# generated using pymatgen
data_AgH18(C7N3)2
_symmetry_space_group_name_H-M   'P 1'
_cell_length_a   6.51920000
_cell_length_b   15.48180000
_cell_length_c   16.99130000
_cell_angle_alpha   89.23000000
_cell_angle_beta   84.60700000
_cell_angle_gamma   85.57400000
_symmetry_Int_Tables_number   1
_chemical_formula_structural   AgH18(C7N3)2
_chemical_formula_sum   'Ag4 H72 C56 N24'
_cell_volume   1702.19836321
_cell_formula_units_Z   4
loop_
 _symmetry_equiv_pos_site_id
 _symmetry_equiv_pos_as_xyz
  1  'x, y, z'
loop_
 _atom_site_type_symbol
 _atom_site_label
 _atom_site_symmetry_multiplicity
 _atom_site_fract_x
 _atom_site_fract_y
 _atom_site_fract_z
 _atom_site_occupancy
  Ag  Ag0  1  0.25279000  0.46987000  0.56309000  1
  Ag  Ag1  1  0.27120000  0.97965000  0.94239000  1
  Ag  Ag2  1  0.72880000  0.02035000  0.05761000  1
  Ag  Ag3  1  0.74721000  0.53013000  0.43691000  1
  H  H4  1  0.01170000  0.68360000  0.33570000  1
  H  H5  1  0.02820000  0.98200000  0.77370000  1
  H  H6  1  0.05850000  0.87220000  0.44950000  1
  H  H7  1  0.06440000  0.98300000  0.34120000  1
  H  H8  1  0.07050000  0.82300000  0.30730000  1
  H  H9  1  0.07940000  0.20200000  0.99840000  1
  H  H10  1  0.08100000  0.63420000  0.70250000  1
  H  H11  1  0.10320000  0.74440000  0.80870000  1
  H  H12  1  0.10850000  0.51030000  0.05750000  1
  H  H13  1  0.11700000  0.53350000  0.72060000  1
  H  H14  1  0.12090000  0.36310000  0.01620000  1
  H  H15  1  0.14900000  0.54160000  0.19170000  1
  H  H16  1  0.15320000  0.71480000  0.89530000  1
  H  H17  1  0.16380000  0.34940000  0.38840000  1
  H  H18  1  0.19840000  0.48500000  0.85800000  1
  H  H19  1  0.20720000  0.55430000  0.92530000  1
  H  H20  1  0.23530000  0.28090000  0.24090000  1
  H  H21  1  0.23820000  0.00070000  0.45630000  1
  H  H22  1  0.23880000  0.12660000  0.65320000  1
  H  H23  1  0.25400000  0.85270000  0.49790000  1
  H  H24  1  0.26420000  0.03410000  0.31890000  1
  H  H25  1  0.27640000  0.77500000  0.26620000  1
  H  H26  1  0.32180000  0.61160000  0.80160000  1
  H  H27  1  0.33333333  0.37910000  0.05050000  1
  H  H28  1  0.34500000  0.68910000  0.51720000  1
  H  H29  1  0.35030000  0.48690000  0.15460000  1
  H  H30  1  0.39440000  0.85290000  0.12010000  1
  H  H31  1  0.40570000  0.32720000  0.18600000  1
  H  H32  1  0.41250000  0.14120000  0.76890000  1
  H  H33  1  0.41560000  0.25590000  0.65910000  1
  H  H34  1  0.41870000  0.04160000  0.74670000  1
  H  H35  1  0.41880000  0.22670000  0.56970000  1
  H  H36  1  0.42300000  0.99730000  0.60480000  1
  H  H37  1  0.42830000  0.06840000  0.53670000  1
  H  H38  1  0.46200000  0.53000000  0.27100000  1
  H  H39  1  0.46270000  0.17990000  0.16450000  1
  H  H40  1  0.53730000  0.82010000  0.83550000  1
  H  H41  1  0.53800000  0.47000000  0.72900000  1
  H  H42  1  0.57170000  0.93160000  0.46330000  1
  H  H43  1  0.57700000  0.00270000  0.39520000  1
  H  H44  1  0.58120000  0.77330000  0.43030000  1
  H  H45  1  0.58130000  0.95840000  0.25330000  1
  H  H46  1  0.58440000  0.74410000  0.34090000  1
  H  H47  1  0.58750000  0.85880000  0.23110000  1
  H  H48  1  0.59430000  0.67280000  0.81400000  1
  H  H49  1  0.60560000  0.14710000  0.87990000  1
  H  H50  1  0.64970000  0.51310000  0.84540000  1
  H  H51  1  0.65500000  0.31090000  0.48280000  1
  H  H52  1  0.66666667  0.62090000  0.94950000  1
  H  H53  1  0.67820000  0.38840000  0.19840000  1
  H  H54  1  0.72360000  0.22500000  0.73380000  1
  H  H55  1  0.73580000  0.96590000  0.68110000  1
  H  H56  1  0.74600000  0.14730000  0.50210000  1
  H  H57  1  0.76120000  0.87340000  0.34680000  1
  H  H58  1  0.76180000  0.99930000  0.54370000  1
  H  H59  1  0.76470000  0.71910000  0.75910000  1
  H  H60  1  0.79280000  0.44570000  0.07470000  1
  H  H61  1  0.80160000  0.51500000  0.14200000  1
  H  H62  1  0.83620000  0.65060000  0.61160000  1
  H  H63  1  0.84680000  0.28520000  0.10470000  1
  H  H64  1  0.85100000  0.45840000  0.80830000  1
  H  H65  1  0.87910000  0.63690000  0.98380000  1
  H  H66  1  0.88300000  0.46650000  0.27940000  1
  H  H67  1  0.89150000  0.48970000  0.94250000  1
  H  H68  1  0.89680000  0.25560000  0.19130000  1
  H  H69  1  0.91900000  0.36580000  0.29750000  1
  H  H70  1  0.92060000  0.79800000  0.00160000  1
  H  H71  1  0.92950000  0.17700000  0.69270000  1
  H  H72  1  0.93560000  0.01700000  0.65880000  1
  H  H73  1  0.94150000  0.12780000  0.55050000  1
  H  H74  1  0.97180000  0.01800000  0.22630000  1
  H  H75  1  0.98830000  0.31640000  0.66430000  1
  C  C76  1  0.04810000  0.98270000  0.18770000  1
  C  C77  1  0.05980000  0.58920000  0.74300000  1
  C  C78  1  0.07000000  0.66940000  0.38320000  1
  C  C79  1  0.08290000  0.69970000  0.84940000  1
  C  C80  1  0.08910000  0.46440000  0.09810000  1
  C  C81  1  0.13790000  0.54110000  0.87870000  1
  C  C82  1  0.14570000  0.30620000  0.12690000  1
  C  C83  1  0.16730000  0.41440000  0.23290000  1
  C  C84  1  0.17190000  0.60990000  0.81700000  1
  C  C85  1  0.18450000  0.37640000  0.06420000  1
  C  C86  1  0.18570000  0.18130000  0.02910000  1
  C  C87  1  0.20220000  0.48490000  0.17020000  1
  C  C88  1  0.20990000  0.86760000  0.44550000  1
  C  C89  1  0.21570000  0.97820000  0.33710000  1
  C  C90  1  0.22170000  0.81980000  0.30440000  1
  C  C91  1  0.25230000  0.67190000  0.48240000  1
  C  C92  1  0.25380000  0.39310000  0.37560000  1
  C  C93  1  0.25680000  0.32600000  0.20050000  1
  C  C94  1  0.27880000  0.89280000  0.12950000  1
  C  C95  1  0.29120000  0.95510000  0.41770000  1
  C  C96  1  0.29470000  0.79690000  0.38620000  1
  C  C97  1  0.29970000  0.90740000  0.27800000  1
  C  C98  1  0.39170000  0.12270000  0.64880000  1
  C  C99  1  0.39470000  0.16960000  0.11950000  1
  C  C100  1  0.41700000  0.49150000  0.31100000  1
  C  C101  1  0.46740000  0.09770000  0.72950000  1
  C  C102  1  0.46860000  0.21080000  0.62100000  1
  C  C103  1  0.47570000  0.05300000  0.58840000  1
  C  C104  1  0.52430000  0.94700000  0.41160000  1
  C  C105  1  0.53140000  0.78920000  0.37900000  1
  C  C106  1  0.53260000  0.90230000  0.27050000  1
  C  C107  1  0.58300000  0.50850000  0.68900000  1
  C  C108  1  0.60530000  0.83040000  0.88050000  1
  C  C109  1  0.60830000  0.87730000  0.35120000  1
  C  C110  1  0.70030000  0.09260000  0.72200000  1
  C  C111  1  0.70530000  0.20310000  0.61380000  1
  C  C112  1  0.70880000  0.04490000  0.58230000  1
  C  C113  1  0.72120000  0.10720000  0.87050000  1
  C  C114  1  0.74320000  0.67400000  0.79950000  1
  C  C115  1  0.74620000  0.60690000  0.62440000  1
  C  C116  1  0.74770000  0.32810000  0.51760000  1
  C  C117  1  0.77830000  0.18020000  0.69560000  1
  C  C118  1  0.78430000  0.02180000  0.66290000  1
  C  C119  1  0.79010000  0.13240000  0.55450000  1
  C  C120  1  0.79780000  0.51510000  0.82980000  1
  C  C121  1  0.81430000  0.81870000  0.97090000  1
  C  C122  1  0.81550000  0.62360000  0.93580000  1
  C  C123  1  0.82810000  0.39010000  0.18300000  1
  C  C124  1  0.83270000  0.58560000  0.76710000  1
  C  C125  1  0.85430000  0.69380000  0.87310000  1
  C  C126  1  0.86210000  0.45890000  0.12130000  1
  C  C127  1  0.91090000  0.53560000  0.90190000  1
  C  C128  1  0.91710000  0.30030000  0.15060000  1
  C  C129  1  0.93000000  0.33060000  0.61680000  1
  C  C130  1  0.94020000  0.41080000  0.25700000  1
  C  C131  1  0.95190000  0.01730000  0.81230000  1
  N  N132  1  0.00750000  0.97790000  0.11390000  1
  N  N133  1  0.02360000  0.60330000  0.42910000  1
  N  N134  1  0.14490000  0.60500000  0.49340000  1
  N  N135  1  0.15800000  0.92030000  0.07580000  1
  N  N136  1  0.21350000  0.71380000  0.41400000  1
  N  N137  1  0.21580000  0.92930000  0.20020000  1
  N  N138  1  0.23710000  0.22130000  0.09460000  1
  N  N139  1  0.27550000  0.43400000  0.30390000  1
  N  N140  1  0.30470000  0.10970000  0.01460000  1
  N  N141  1  0.37360000  0.42280000  0.42340000  1
  N  N142  1  0.43990000  0.10340000  0.07280000  1
  N  N143  1  0.48370000  0.48640000  0.38210000  1
  N  N144  1  0.51630000  0.51360000  0.61790000  1
  N  N145  1  0.56010000  0.89660000  0.92720000  1
  N  N146  1  0.62640000  0.57720000  0.57660000  1
  N  N147  1  0.69530000  0.89030000  0.98540000  1
  N  N148  1  0.72450000  0.56600000  0.69610000  1
  N  N149  1  0.76290000  0.77870000  0.90540000  1
  N  N150  1  0.78420000  0.07070000  0.79980000  1
  N  N151  1  0.78650000  0.28620000  0.58600000  1
  N  N152  1  0.84200000  0.07970000  0.92420000  1
  N  N153  1  0.85510000  0.39500000  0.50660000  1
  N  N154  1  0.97640000  0.39670000  0.57090000  1
  N  N155  1  0.99250000  0.02210000  0.88610000  1
