# generated using pymatgen
data_LiYH8(C2O)8
_symmetry_space_group_name_H-M   'P 1'
_cell_length_a   10.17210000
_cell_length_b   11.64150000
_cell_length_c   16.09200000
_cell_angle_alpha   90.00000000
_cell_angle_beta   90.00000000
_cell_angle_gamma   105.70600000
_symmetry_Int_Tables_number   1
_chemical_formula_structural   LiYH8(C2O)8
_chemical_formula_sum   'Li4 Y4 H32 C64 O32'
_cell_volume   1834.44227247
_cell_formula_units_Z   4
loop_
 _symmetry_equiv_pos_site_id
 _symmetry_equiv_pos_as_xyz
  1  'x, y, z'
loop_
 _atom_site_type_symbol
 _atom_site_label
 _atom_site_symmetry_multiplicity
 _atom_site_fract_x
 _atom_site_fract_y
 _atom_site_fract_z
 _atom_site_occupancy
  Li  Li0  1  0.09490000  0.18140000  0.89950000  1
  Li  Li1  1  0.40510000  0.31860000  0.39950000  1
  Li  Li2  1  0.59490000  0.68140000  0.60050000  1
  Li  Li3  1  0.90510000  0.81860000  0.10050000  1
  Y  Y4  1  0.24927000  0.49915000  0.50298000  1
  Y  Y5  1  0.25073000  0.00085000  0.00298000  1
  Y  Y6  1  0.74927000  0.99915000  0.99702000  1
  Y  Y7  1  0.75073000  0.50085000  0.49702000  1
  H  H8  1  0.03460000  0.09650000  0.62740000  1
  H  H9  1  0.08180000  0.10430000  0.37960000  1
  H  H10  1  0.13860000  0.37330000  0.98620000  1
  H  H11  1  0.18460000  0.38970000  0.29010000  1
  H  H12  1  0.20010000  0.25280000  0.18970000  1
  H  H13  1  0.20140000  0.90440000  0.78640000  1
  H  H14  1  0.21660000  0.76550000  0.68780000  1
  H  H15  1  0.23240000  0.57720000  0.98010000  1
  H  H16  1  0.26760000  0.92280000  0.48010000  1
  H  H17  1  0.28340000  0.73450000  0.18780000  1
  H  H18  1  0.29860000  0.59560000  0.28640000  1
  H  H19  1  0.29990000  0.24720000  0.68970000  1
  H  H20  1  0.31540000  0.11030000  0.79010000  1
  H  H21  1  0.36140000  0.12670000  0.48620000  1
  H  H22  1  0.41820000  0.39570000  0.87960000  1
  H  H23  1  0.46540000  0.40350000  0.12740000  1
  H  H24  1  0.53460000  0.59650000  0.87260000  1
  H  H25  1  0.58180000  0.60430000  0.12040000  1
  H  H26  1  0.63860000  0.87330000  0.51380000  1
  H  H27  1  0.68460000  0.88970000  0.20990000  1
  H  H28  1  0.70010000  0.75280000  0.31030000  1
  H  H29  1  0.70140000  0.40440000  0.71360000  1
  H  H30  1  0.71660000  0.26550000  0.81220000  1
  H  H31  1  0.73240000  0.07720000  0.51990000  1
  H  H32  1  0.76760000  0.42280000  0.01990000  1
  H  H33  1  0.78340000  0.23450000  0.31220000  1
  H  H34  1  0.79860000  0.09560000  0.21360000  1
  H  H35  1  0.79990000  0.74720000  0.81030000  1
  H  H36  1  0.81540000  0.61030000  0.70990000  1
  H  H37  1  0.86140000  0.62670000  0.01380000  1
  H  H38  1  0.91820000  0.89570000  0.62040000  1
  H  H39  1  0.96540000  0.90350000  0.37260000  1
  C  C40  1  0.00150000  0.15830000  0.19215000  1
  C  C41  1  0.01250000  0.06840000  0.12850000  1
  C  C42  1  0.01830000  0.67250000  0.68942000  1
  C  C43  1  0.02030000  0.05780000  0.57630000  1
  C  C44  1  0.02920000  0.58310000  0.62429000  1
  C  C45  1  0.04850000  0.06240000  0.42780000  1
  C  C46  1  0.05670000  0.62330000  0.99730000  1
  C  C47  1  0.06770000  0.11990000  0.50410000  1
  C  C48  1  0.08250000  0.42410000  0.99160000  1
  C  C49  1  0.10680000  0.33100000  0.27418000  1
  C  C50  1  0.11650000  0.24840000  0.21477000  1
  C  C51  1  0.11880000  0.75560000  0.99492000  1
  C  C52  1  0.12370000  0.84530000  0.77110000  1
  C  C53  1  0.13280000  0.76190000  0.71230000  1
  C  C54  1  0.13700000  0.25070000  0.50689000  1
  C  C55  1  0.13890000  0.54640000  0.98830000  1
  C  C56  1  0.36110000  0.95360000  0.48830000  1
  C  C57  1  0.36300000  0.24930000  0.00689000  1
  C  C58  1  0.36720000  0.73810000  0.21230000  1
  C  C59  1  0.37630000  0.65470000  0.27110000  1
  C  C60  1  0.38120000  0.74440000  0.49492000  1
  C  C61  1  0.38350000  0.25160000  0.71477000  1
  C  C62  1  0.39320000  0.16900000  0.77418000  1
  C  C63  1  0.41750000  0.07590000  0.49160000  1
  C  C64  1  0.43230000  0.38010000  0.00410000  1
  C  C65  1  0.44330000  0.87670000  0.49730000  1
  C  C66  1  0.45150000  0.43760000  0.92780000  1
  C  C67  1  0.47080000  0.91690000  0.12429000  1
  C  C68  1  0.47970000  0.44220000  0.07630000  1
  C  C69  1  0.48170000  0.82750000  0.18942000  1
  C  C70  1  0.48750000  0.43160000  0.62850000  1
  C  C71  1  0.49850000  0.34170000  0.69215000  1
  C  C72  1  0.50150000  0.65830000  0.30785000  1
  C  C73  1  0.51250000  0.56840000  0.37150000  1
  C  C74  1  0.51830000  0.17250000  0.81058000  1
  C  C75  1  0.52030000  0.55780000  0.92370000  1
  C  C76  1  0.52920000  0.08310000  0.87571000  1
  C  C77  1  0.54850000  0.56240000  0.07220000  1
  C  C78  1  0.55670000  0.12330000  0.50270000  1
  C  C79  1  0.56770000  0.61990000  0.99590000  1
  C  C80  1  0.58250000  0.92410000  0.50840000  1
  C  C81  1  0.60680000  0.83100000  0.22582000  1
  C  C82  1  0.61650000  0.74840000  0.28523000  1
  C  C83  1  0.61880000  0.25560000  0.50508000  1
  C  C84  1  0.62370000  0.34530000  0.72890000  1
  C  C85  1  0.63280000  0.26190000  0.78770000  1
  C  C86  1  0.63700000  0.75070000  0.99311000  1
  C  C87  1  0.63890000  0.04640000  0.51170000  1
  C  C88  1  0.86110000  0.45360000  0.01170000  1
  C  C89  1  0.86300000  0.74930000  0.49311000  1
  C  C90  1  0.86720000  0.23810000  0.28770000  1
  C  C91  1  0.87630000  0.15470000  0.22890000  1
  C  C92  1  0.88120000  0.24440000  0.00508000  1
  C  C93  1  0.88350000  0.75160000  0.78523000  1
  C  C94  1  0.89320000  0.66900000  0.72582000  1
  C  C95  1  0.91750000  0.57590000  0.00840000  1
  C  C96  1  0.93230000  0.88010000  0.49590000  1
  C  C97  1  0.94330000  0.37670000  0.00270000  1
  C  C98  1  0.95150000  0.93760000  0.57220000  1
  C  C99  1  0.97080000  0.41690000  0.37571000  1
  C  C100  1  0.97970000  0.94220000  0.42370000  1
  C  C101  1  0.98170000  0.32750000  0.31058000  1
  C  C102  1  0.98750000  0.93160000  0.87150000  1
  C  C103  1  0.99850000  0.84170000  0.80785000  1
  O  O104  1  0.05950000  0.82470000  0.03113000  1
  O  O105  1  0.07740000  0.47530000  0.41164000  1
  O  O106  1  0.09670000  0.00560000  0.89648000  1
  O  O107  1  0.09690000  0.31660000  0.55744000  1
  O  O108  1  0.12850000  0.06650000  0.10371000  1
  O  O109  1  0.14650000  0.57130000  0.60905000  1
  O  O110  1  0.23030000  0.79870000  0.95860000  1
  O  O111  1  0.23300000  0.29490000  0.45706000  1
  O  O112  1  0.26700000  0.20510000  0.95706000  1
  O  O113  1  0.26970000  0.70130000  0.45860000  1
  O  O114  1  0.35350000  0.92870000  0.10905000  1
  O  O115  1  0.37150000  0.43350000  0.60371000  1
  O  O116  1  0.40310000  0.18340000  0.05744000  1
  O  O117  1  0.40330000  0.49440000  0.39648000  1
  O  O118  1  0.42260000  0.02470000  0.91164000  1
  O  O119  1  0.44050000  0.67530000  0.53113000  1
  O  O120  1  0.55950000  0.32470000  0.46887000  1
  O  O121  1  0.57740000  0.97530000  0.08836000  1
  O  O122  1  0.59670000  0.50560000  0.60352000  1
  O  O123  1  0.59690000  0.81660000  0.94256000  1
  O  O124  1  0.62850000  0.56650000  0.39629000  1
  O  O125  1  0.64650000  0.07130000  0.89095000  1
  O  O126  1  0.73030000  0.29870000  0.54140000  1
  O  O127  1  0.73300000  0.79490000  0.04294000  1
  O  O128  1  0.76700000  0.70510000  0.54294000  1
  O  O129  1  0.76970000  0.20130000  0.04140000  1
  O  O130  1  0.85350000  0.42870000  0.39095000  1
  O  O131  1  0.87150000  0.93350000  0.89629000  1
  O  O132  1  0.90310000  0.68340000  0.44256000  1
  O  O133  1  0.90330000  0.99440000  0.10352000  1
  O  O134  1  0.92260000  0.52470000  0.58836000  1
  O  O135  1  0.94050000  0.17530000  0.96887000  1
