# generated using pymatgen
data_Co5H96(C79O11)2
_symmetry_space_group_name_H-M   'P 1'
_cell_length_a   19.37720000
_cell_length_b   20.73080000
_cell_length_c   34.37440000
_cell_angle_alpha   90.00000000
_cell_angle_beta   90.00000000
_cell_angle_gamma   115.43200000
_symmetry_Int_Tables_number   1
_chemical_formula_structural   Co5H96(C79O11)2
_chemical_formula_sum   'Co10 H192 C316 O44'
_cell_volume   12470.27214012
_cell_formula_units_Z   2
loop_
 _symmetry_equiv_pos_site_id
 _symmetry_equiv_pos_as_xyz
  1  'x, y, z'
loop_
 _atom_site_type_symbol
 _atom_site_label
 _atom_site_symmetry_multiplicity
 _atom_site_fract_x
 _atom_site_fract_y
 _atom_site_fract_z
 _atom_site_occupancy
  Co  Co0  1  0.85774000  0.19140000  0.44364000  1
  Co  Co1  1  0.35004000  0.23564000  0.59125000  1
  Co  Co2  1  0.75011000  0.27923000  0.48386000  1
  Co  Co3  1  0.52931000  0.28715000  0.57638000  1
  Co  Co4  1  0.71608000  0.33956000  0.57047000  1
  Co  Co5  1  0.28392000  0.66044000  0.07047000  1
  Co  Co6  1  0.47069000  0.71285000  0.07638000  1
  Co  Co7  1  0.24989000  0.72077000  0.98386000  1
  Co  Co8  1  0.64996000  0.76436000  0.09125000  1
  Co  Co9  1  0.14226000  0.80860000  0.94364000  1
  H  H10  1  0.94549000  0.00157000  0.20353000  1
  H  H11  1  0.58992000  0.00234000  0.00078000  1
  H  H12  1  0.95352000  0.00484000  0.73775000  1
  H  H13  1  0.37000000  0.00521000  0.58662000  1
  H  H14  1  0.36829000  0.00840000  0.00497000  1
  H  H15  1  0.88196000  0.01493000  0.39548000  1
  H  H16  1  0.72214000  0.01559000  0.72876000  1
  H  H17  1  0.13986000  0.01814000  0.12226000  1
  H  H18  1  0.75487000  0.03115000  0.80693000  1
  H  H19  1  0.42692000  0.03583000  0.41881000  1
  H  H20  1  0.54045000  0.03959000  0.80055000  1
  H  H21  1  0.44428000  0.04226000  0.84402000  1
  H  H22  1  0.18921000  0.05090000  0.33348000  1
  H  H23  1  0.68693000  0.05332000  0.37350000  1
  H  H24  1  0.55374000  0.06469000  0.12425000  1
  H  H25  1  0.06054000  0.06609000  0.86547000  1
  H  H26  1  0.79917000  0.06733000  0.63504000  1
  H  H27  1  0.41052000  0.06780000  0.95319000  1
  H  H28  1  0.17628000  0.06862000  0.26888000  1
  H  H29  1  0.38714000  0.07147000  0.27651000  1
  H  H30  1  0.65290000  0.08089000  0.70279000  1
  H  H31  1  0.81793000  0.08138000  0.55842000  1
  H  H32  1  0.64372000  0.08777000  0.91785000  1
  H  H33  1  0.17474000  0.08853000  0.39230000  1
  H  H34  1  0.27684000  0.09075000  0.14952000  1
  H  H35  1  0.93304000  0.09094000  0.62373000  1
  H  H36  1  0.18595000  0.09183000  0.66991000  1
  H  H37  1  0.40040000  0.09466000  0.35190000  1
  H  H38  1  0.87399000  0.10638000  0.68622000  1
  H  H39  1  0.87686000  0.10728000  0.76533000  1
  H  H40  1  0.67290000  0.11331000  0.76948000  1
  H  H41  1  0.58073000  0.11448000  0.69546000  1
  H  H42  1  0.63086000  0.11643000  0.01894000  1
  H  H43  1  0.53451000  0.11656000  0.15938000  1
  H  H44  1  0.69575000  0.12249000  0.53446000  1
  H  H45  1  0.47185000  0.12505000  0.53263000  1
  H  H46  1  0.54938000  0.12915000  0.44731000  1
  H  H47  1  0.99839000  0.13374000  0.88909000  1
  H  H48  1  0.77195000  0.16866000  0.88885000  1
  H  H49  1  0.18350000  0.16873000  0.61132000  1
  H  H50  1  0.11539000  0.17336000  0.42358000  1
  H  H51  1  0.47337000  0.17406000  0.39127000  1
  H  H52  1  0.07131000  0.18299000  0.59144000  1
  H  H53  1  0.45948000  0.18407000  0.17995000  1
  H  H54  1  0.55392000  0.18641000  0.88291000  1
  H  H55  1  0.51528000  0.19049000  0.65006000  1
  H  H56  1  0.47118000  0.19557000  0.92661000  1
  H  H57  1  0.25552000  0.19580000  0.16862000  1
  H  H58  1  0.56810000  0.19752000  0.81004000  1
  H  H59  1  0.25772000  0.19969000  0.39906000  1
  H  H60  1  0.26136000  0.20449000  0.26571000  1
  H  H61  1  0.49709000  0.20916000  0.46278000  1
  H  H62  1  0.94739000  0.21596000  0.85965000  1
  H  H63  1  0.28234000  0.23277000  0.47378000  1
  H  H64  1  0.69219000  0.23682000  0.98634000  1
  H  H65  1  0.28946000  0.23752000  0.33791000  1
  H  H66  1  0.74941000  0.24177000  0.69009000  1
  H  H67  1  0.75620000  0.24366000  0.76356000  1
  H  H68  1  0.45333000  0.24390000  0.24697000  1
  H  H69  1  0.95244000  0.25839000  0.78865000  1
  H  H70  1  0.51876000  0.26812000  0.76517000  1
  H  H71  1  0.75979000  0.26849000  0.84769000  1
  H  H72  1  0.51650000  0.28122000  0.68729000  1
  H  H73  1  0.54653000  0.28580000  0.00887000  1
  H  H74  1  0.74390000  0.28593000  0.91892000  1
  H  H75  1  0.83625000  0.29215000  0.64188000  1
  H  H76  1  0.85410000  0.30058000  0.56459000  1
  H  H77  1  0.31237000  0.32597000  0.14850000  1
  H  H78  1  0.46044000  0.34145000  0.03092000  1
  H  H79  1  0.34707000  0.34944000  0.02180000  1
  H  H80  1  0.88143000  0.35385000  0.94255000  1
  H  H81  1  0.00915000  0.36577000  0.37842000  1
  H  H82  1  0.51219000  0.36871000  0.21674000  1
  H  H83  1  0.76637000  0.37014000  0.68932000  1
  H  H84  1  0.76964000  0.37307000  0.76465000  1
  H  H85  1  0.55307000  0.37915000  0.49429000  1
  H  H86  1  0.04188000  0.38925000  0.81263000  1
  H  H87  1  0.57206000  0.39261000  0.89480000  1
  H  H88  1  0.84178000  0.39641000  0.87027000  1
  H  H89  1  0.65715000  0.39969000  0.99603000  1
  H  H90  1  0.35038000  0.40625000  0.12795000  1
  H  H91  1  0.71405000  0.41345000  0.89389000  1
  H  H92  1  0.37921000  0.42456000  0.66510000  1
  H  H93  1  0.71375000  0.42564000  0.82056000  1
  H  H94  1  0.82322000  0.42980000  0.39683000  1
  H  H95  1  0.29422000  0.43115000  0.05681000  1
  H  H96  1  0.88817000  0.44209000  0.46411000  1
  H  H97  1  0.08856000  0.44581000  0.86299000  1
  H  H98  1  0.48915000  0.44919000  0.91773000  1
  H  H99  1  0.48114000  0.45102000  0.46927000  1
  H  H100  1  0.55648000  0.45435000  0.19730000  1
  H  H101  1  0.97200000  0.45667000  0.58398000  1
  H  H102  1  0.97857000  0.46724000  0.94369000  1
  H  H103  1  0.88730000  0.47092000  0.05752000  1
  H  H104  1  0.58513000  0.47262000  0.59557000  1
  H  H105  1  0.79728000  0.48038000  0.02058000  1
  H  H106  1  0.20272000  0.51962000  0.52058000  1
  H  H107  1  0.41487000  0.52738000  0.09557000  1
  H  H108  1  0.11270000  0.52908000  0.55752000  1
  H  H109  1  0.02143000  0.53276000  0.44369000  1
  H  H110  1  0.02800000  0.54333000  0.08398000  1
  H  H111  1  0.44352000  0.54565000  0.69730000  1
  H  H112  1  0.51886000  0.54898000  0.96927000  1
  H  H113  1  0.51085000  0.55081000  0.41773000  1
  H  H114  1  0.91144000  0.55419000  0.36299000  1
  H  H115  1  0.11183000  0.55791000  0.96411000  1
  H  H116  1  0.70578000  0.56885000  0.55681000  1
  H  H117  1  0.17678000  0.57020000  0.89683000  1
  H  H118  1  0.28625000  0.57436000  0.32056000  1
  H  H119  1  0.62079000  0.57544000  0.16510000  1
  H  H120  1  0.28595000  0.58655000  0.39389000  1
  H  H121  1  0.64962000  0.59375000  0.62795000  1
  H  H122  1  0.34285000  0.60031000  0.49603000  1
  H  H123  1  0.15822000  0.60359000  0.37027000  1
  H  H124  1  0.42794000  0.60739000  0.39480000  1
  H  H125  1  0.95812000  0.61075000  0.31263000  1
  H  H126  1  0.44693000  0.62085000  0.99429000  1
  H  H127  1  0.23036000  0.62693000  0.26465000  1
  H  H128  1  0.23363000  0.62986000  0.18932000  1
  H  H129  1  0.48781000  0.63129000  0.71674000  1
  H  H130  1  0.99085000  0.63423000  0.87842000  1
  H  H131  1  0.11857000  0.64615000  0.44255000  1
  H  H132  1  0.65293000  0.65056000  0.52180000  1
  H  H133  1  0.53956000  0.65855000  0.53092000  1
  H  H134  1  0.68763000  0.67403000  0.64850000  1
  H  H135  1  0.14590000  0.69942000  0.06459000  1
  H  H136  1  0.16375000  0.70785000  0.14188000  1
  H  H137  1  0.25610000  0.71407000  0.41892000  1
  H  H138  1  0.45347000  0.71420000  0.50887000  1
  H  H139  1  0.48350000  0.71878000  0.18729000  1
  H  H140  1  0.24021000  0.73151000  0.34769000  1
  H  H141  1  0.48124000  0.73188000  0.26517000  1
  H  H142  1  0.04756000  0.74161000  0.28865000  1
  H  H143  1  0.54667000  0.75610000  0.74697000  1
  H  H144  1  0.24380000  0.75634000  0.26356000  1
  H  H145  1  0.25059000  0.75823000  0.19009000  1
  H  H146  1  0.71054000  0.76248000  0.83791000  1
  H  H147  1  0.30781000  0.76318000  0.48634000  1
  H  H148  1  0.71766000  0.76723000  0.97378000  1
  H  H149  1  0.05261000  0.78404000  0.35965000  1
  H  H150  1  0.50291000  0.79084000  0.96278000  1
  H  H151  1  0.73864000  0.79551000  0.76571000  1
  H  H152  1  0.74228000  0.80031000  0.89906000  1
  H  H153  1  0.43190000  0.80248000  0.31004000  1
  H  H154  1  0.74448000  0.80420000  0.66862000  1
  H  H155  1  0.52882000  0.80443000  0.42661000  1
  H  H156  1  0.48472000  0.80951000  0.15006000  1
  H  H157  1  0.44608000  0.81359000  0.38291000  1
  H  H158  1  0.54052000  0.81593000  0.67995000  1
  H  H159  1  0.92869000  0.81701000  0.09144000  1
  H  H160  1  0.52663000  0.82594000  0.89127000  1
  H  H161  1  0.88461000  0.82664000  0.92358000  1
  H  H162  1  0.81650000  0.83127000  0.11132000  1
  H  H163  1  0.22805000  0.83134000  0.38885000  1
  H  H164  1  0.00161000  0.86626000  0.38909000  1
  H  H165  1  0.45062000  0.87085000  0.94731000  1
  H  H166  1  0.52815000  0.87495000  0.03263000  1
  H  H167  1  0.30425000  0.87751000  0.03446000  1
  H  H168  1  0.46549000  0.88344000  0.65938000  1
  H  H169  1  0.36914000  0.88357000  0.51894000  1
  H  H170  1  0.41927000  0.88552000  0.19546000  1
  H  H171  1  0.32710000  0.88669000  0.26948000  1
  H  H172  1  0.12314000  0.89272000  0.26533000  1
  H  H173  1  0.12601000  0.89362000  0.18622000  1
  H  H174  1  0.59960000  0.90534000  0.85190000  1
  H  H175  1  0.81405000  0.90817000  0.16991000  1
  H  H176  1  0.06696000  0.90906000  0.12373000  1
  H  H177  1  0.72316000  0.90925000  0.64952000  1
  H  H178  1  0.82526000  0.91147000  0.89230000  1
  H  H179  1  0.35628000  0.91223000  0.41785000  1
  H  H180  1  0.18207000  0.91862000  0.05842000  1
  H  H181  1  0.34710000  0.91911000  0.20279000  1
  H  H182  1  0.61286000  0.92853000  0.77651000  1
  H  H183  1  0.82372000  0.93138000  0.76888000  1
  H  H184  1  0.58948000  0.93220000  0.45319000  1
  H  H185  1  0.20083000  0.93267000  0.13504000  1
  H  H186  1  0.93946000  0.93391000  0.36547000  1
  H  H187  1  0.44626000  0.93531000  0.62425000  1
  H  H188  1  0.31307000  0.94668000  0.87350000  1
  H  H189  1  0.81079000  0.94910000  0.83348000  1
  H  H190  1  0.55572000  0.95774000  0.34402000  1
  H  H191  1  0.45955000  0.96041000  0.30055000  1
  H  H192  1  0.57308000  0.96417000  0.91881000  1
  H  H193  1  0.24513000  0.96885000  0.30693000  1
  H  H194  1  0.86014000  0.98186000  0.62226000  1
  H  H195  1  0.27786000  0.98441000  0.22876000  1
  H  H196  1  0.11804000  0.98507000  0.89548000  1
  H  H197  1  0.63171000  0.99160000  0.50497000  1
  H  H198  1  0.63000000  0.99479000  0.08662000  1
  H  H199  1  0.04648000  0.99516000  0.23775000  1
  H  H200  1  0.41008000  0.99766000  0.50078000  1
  H  H201  1  0.05451000  0.99843000  0.70353000  1
  C  C202  1  0.44310000  0.00330000  0.86770000  1
  C  C203  1  0.08920000  0.00390000  0.17940000  1
  C  C204  1  0.54040000  0.00630000  0.12980000  1
  C  C205  1  0.05680000  0.00670000  0.37800000  1
  C  C206  1  0.51340000  0.00720000  0.87980000  1
  C  C207  1  0.84060000  0.00910000  0.83900000  1
  C  C208  1  0.48220000  0.01150000  0.00500000  1
  C  C209  1  0.01950000  0.01240000  0.87810000  1
  C  C210  1  0.33420000  0.01430000  0.21270000  1
  C  C211  1  0.44140000  0.01710000  0.17810000  1
  C  C212  1  0.09820000  0.01710000  0.21760000  1
  C  C213  1  0.62910000  0.02060000  0.69870000  1
  C  C214  1  0.59630000  0.02210000  0.51190000  1
  C  C215  1  0.47280000  0.02420000  0.50970000  1
  C  C216  1  0.51570000  0.02590000  0.65660000  1
  C  C217  1  0.41800000  0.02670000  0.60900000  1
  C  C218  1  0.14890000  0.02910000  0.15480000  1
  C  C219  1  0.94630000  0.03260000  0.39380000  1
  C  C220  1  0.05260000  0.03670000  0.68020000  1
  C  C221  1  0.90810000  0.03830000  0.86180000  1
  C  C222  1  0.48450000  0.03930000  0.40880000  1
  C  C223  1  0.62790000  0.04610000  0.38340000  1
  C  C224  1  0.99180000  0.04820000  0.66440000  1
  C  C225  1  0.81130000  0.05440000  0.82350000  1
  C  C226  1  0.17270000  0.05940000  0.23610000  1
  C  C227  1  0.58670000  0.05940000  0.86140000  1
  C  C228  1  0.59320000  0.06650000  0.81970000  1
  C  C229  1  0.22560000  0.07070000  0.17000000  1
  C  C230  1  0.11100000  0.07420000  0.39320000  1
  C  C231  1  0.51860000  0.08520000  0.98690000  1
  C  C232  1  0.23620000  0.08590000  0.20950000  1
  C  C233  1  0.55090000  0.08880000  0.42520000  1
  C  C234  1  0.62070000  0.08930000  0.41450000  1
  C  C235  1  0.47570000  0.08960000  0.17350000  1
  C  C236  1  0.12940000  0.09000000  0.65930000  1
  C  C237  1  0.36110000  0.09100000  0.20910000  1
  C  C238  1  0.98910000  0.09160000  0.63430000  1
  C  C239  1  0.63240000  0.09270000  0.52720000  1
  C  C240  1  0.50600000  0.09340000  0.52560000  1
  C  C241  1  0.64960000  0.09400000  0.88490000  1
  C  C242  1  0.53870000  0.09440000  0.67020000  1
  C  C243  1  0.44790000  0.10040000  0.62130000  1
  C  C244  1  0.99670000  0.10050000  0.40720000  1
  C  C245  1  0.36220000  0.10640000  0.29080000  1
  C  C246  1  0.47160000  0.10710000  0.96050000  1
  C  C247  1  0.66600000  0.10740000  0.80240000  1
  C  C248  1  0.94560000  0.11060000  0.86970000  1
  C  C249  1  0.81270000  0.11970000  0.61920000  1
  C  C250  1  0.07720000  0.12040000  0.40920000  1
  C  C251  1  0.37150000  0.12110000  0.33300000  1
  C  C252  1  0.58620000  0.12380000  0.53290000  1
  C  C253  1  0.43390000  0.12460000  0.18700000  1
  C  C254  1  0.82140000  0.12800000  0.57720000  1
  C  C255  1  0.84880000  0.12980000  0.82730000  1
  C  C256  1  0.31740000  0.13010000  0.22330000  1
  C  C257  1  0.49880000  0.13110000  0.64600000  1
  C  C258  1  0.59620000  0.13240000  0.99740000  1
  C  C259  1  0.32310000  0.13520000  0.26870000  1
  C  C260  1  0.12850000  0.13520000  0.62770000  1
  C  C261  1  0.84930000  0.13570000  0.74700000  1
  C  C262  1  0.72120000  0.13700000  0.86920000  1
  C  C263  1  0.84880000  0.13800000  0.70360000  1
  C  C264  1  0.40900000  0.13890000  0.60270000  1
  C  C265  1  0.73060000  0.14110000  0.82700000  1
  C  C266  1  0.06550000  0.14210000  0.61490000  1
  C  C267  1  0.69820000  0.14430000  0.43270000  1
  C  C268  1  0.95050000  0.14470000  0.42280000  1
  C  C269  1  0.91640000  0.15650000  0.85280000  1
  C  C270  1  0.34710000  0.16350000  0.34830000  1
  C  C271  1  0.81230000  0.17210000  0.76500000  1
  C  C272  1  0.81080000  0.17390000  0.80960000  1
  C  C273  1  0.50760000  0.17770000  0.94590000  1
  C  C274  1  0.81770000  0.17860000  0.68430000  1
  C  C275  1  0.82210000  0.18210000  0.64080000  1
  C  C276  1  0.29400000  0.18220000  0.28490000  1
  C  C277  1  0.36380000  0.18640000  0.39060000  1
  C  C278  1  0.43040000  0.18760000  0.40790000  1
  C  C279  1  0.83340000  0.19090000  0.56150000  1
  C  C280  1  0.30830000  0.19760000  0.32420000  1
  C  C281  1  0.84350000  0.19870000  0.51630000  1
  C  C282  1  0.61860000  0.20040000  0.54980000  1
  C  C283  1  0.62950000  0.20170000  0.97960000  1
  C  C284  1  0.31120000  0.20230000  0.41420000  1
  C  C285  1  0.44300000  0.20710000  0.44860000  1
  C  C286  1  0.34940000  0.20820000  0.20700000  1
  C  C287  1  0.78110000  0.21190000  0.74610000  1
  C  C288  1  0.78000000  0.21330000  0.70600000  1
  C  C289  1  0.32360000  0.22070000  0.45480000  1
  C  C290  1  0.39090000  0.22330000  0.47070000  1
  C  C291  1  0.58790000  0.22750000  0.95440000  1
  C  C292  1  0.31370000  0.23320000  0.18090000  1
  C  C293  1  0.40790000  0.23860000  0.51270000  1
  C  C294  1  0.59030000  0.24120000  0.86990000  1
  C  C295  1  0.83340000  0.24540000  0.62340000  1
  C  C296  1  0.59860000  0.24750000  0.82850000  1
  C  C297  1  0.84130000  0.24880000  0.58090000  1
  C  C298  1  0.42190000  0.25800000  0.22280000  1
  C  C299  1  0.85760000  0.25820000  0.82270000  1
  C  C300  1  0.93090000  0.28960000  0.80870000  1
  C  C301  1  0.57490000  0.29290000  0.74840000  1
  C  C302  1  0.82370000  0.29530000  0.84130000  1
  C  C303  1  0.57000000  0.29700000  0.70590000  1
  C  C304  1  0.62600000  0.30100000  0.89450000  1
  C  C305  1  0.62160000  0.30400000  0.93760000  1
  C  C306  1  0.34520000  0.30420000  0.16790000  1
  C  C307  1  0.64090000  0.31010000  0.81140000  1
  C  C308  1  0.64530000  0.31810000  0.76860000  1
  C  C309  1  0.53390000  0.32280000  0.98850000  1
  C  C310  1  0.63950000  0.32310000  0.68890000  1
  C  C311  1  0.64010000  0.32420000  0.64270000  1
  C  C312  1  0.86830000  0.32740000  0.41780000  1
  C  C313  1  0.45380000  0.32760000  0.20660000  1
  C  C314  1  0.75610000  0.33070000  0.94090000  1
  C  C315  1  0.56590000  0.33690000  0.94840000  1
  C  C316  1  0.70050000  0.34640000  0.95270000  1
  C  C317  1  0.41590000  0.34650000  0.17900000  1
  C  C318  1  0.71300000  0.34860000  0.74830000  1
  C  C319  1  0.71190000  0.34940000  0.70750000  1
  C  C320  1  0.48840000  0.35510000  0.00100000  1
  C  C321  1  0.97860000  0.36310000  0.82050000  1
  C  C322  1  0.67580000  0.36520000  0.87580000  1
  C  C323  1  0.86830000  0.36650000  0.85240000  1
  C  C324  1  0.83520000  0.36840000  0.95470000  1
  C  C325  1  0.44440000  0.36980000  0.60570000  1
  C  C326  1  0.67960000  0.37140000  0.83470000  1
  C  C327  1  0.54910000  0.38090000  0.92580000  1
  C  C328  1  0.91580000  0.39480000  0.39210000  1
  C  C329  1  0.70930000  0.39490000  0.98360000  1
  C  C330  1  0.94280000  0.39970000  0.84190000  1
  C  C331  1  0.47710000  0.40230000  0.97810000  1
  C  C332  1  0.84570000  0.40240000  0.54050000  1
  C  C333  1  0.98720000  0.40870000  0.37730000  1
  C  C334  1  0.37020000  0.40980000  0.01830000  1
  C  C335  1  0.50470000  0.41380000  0.93790000  1
  C  C336  1  0.84710000  0.42370000  0.98420000  1
  C  C337  1  0.45010000  0.42430000  0.16430000  1
  C  C338  1  0.66280000  0.42800000  0.54650000  1
  C  C339  1  0.78640000  0.43680000  0.99800000  1
  C  C340  1  0.57020000  0.43760000  0.50180000  1
  C  C341  1  0.47900000  0.44270000  0.62870000  1
  C  C342  1  0.88410000  0.44390000  0.38680000  1
  C  C343  1  0.41130000  0.44440000  0.13630000  1
  C  C344  1  0.43660000  0.44820000  0.99380000  1
  C  C345  1  0.92370000  0.45030000  0.52490000  1
  C  C346  1  0.34290000  0.45590000  0.03500000  1
  C  C347  1  0.44010000  0.46270000  0.65670000  1
  C  C348  1  0.93700000  0.46610000  0.48590000  1
  C  C349  1  0.92840000  0.46720000  0.99860000  1
  C  C350  1  0.52450000  0.47080000  0.17443000  1
  C  C351  1  0.62810000  0.47170000  0.52630000  1
  C  C352  1  0.99270000  0.47170000  0.85600000  1
  C  C353  1  0.98440000  0.47180000  0.55200000  1
  C  C354  1  0.03590000  0.47650000  0.36020000  1
  C  C355  1  0.53540000  0.47750000  0.48740000  1
  C  C356  1  0.93880000  0.48700000  0.03740000  1
  C  C357  1  0.98700000  0.48730000  0.97500000  1
  C  C358  1  0.06650000  0.48800000  0.86810000  1
  C  C359  1  0.55330000  0.48910000  0.61850000  1
  C  C360  1  0.44670000  0.51090000  0.11850000  1
  C  C361  1  0.93350000  0.51200000  0.36810000  1
  C  C362  1  0.01300000  0.51270000  0.47500000  1
  C  C363  1  0.06120000  0.51300000  0.53740000  1
  C  C364  1  0.46460000  0.52250000  0.98740000  1
  C  C365  1  0.96410000  0.52350000  0.86020000  1
  C  C366  1  0.01560000  0.52820000  0.05200000  1
  C  C367  1  0.37190000  0.52830000  0.02630000  1
  C  C368  1  0.00730000  0.52830000  0.35600000  1
  C  C369  1  0.47550000  0.52920000  0.67443000  1
  C  C370  1  0.07160000  0.53280000  0.49860000  1
  C  C371  1  0.06300000  0.53390000  0.98590000  1
  C  C372  1  0.55990000  0.53730000  0.15670000  1
  C  C373  1  0.65710000  0.54410000  0.53500000  1
  C  C374  1  0.07630000  0.54970000  0.02490000  1
  C  C375  1  0.56340000  0.55180000  0.49380000  1
  C  C376  1  0.58870000  0.55560000  0.63630000  1
  C  C377  1  0.11590000  0.55610000  0.88680000  1
  C  C378  1  0.52100000  0.55730000  0.12870000  1
  C  C379  1  0.42980000  0.56240000  0.00180000  1
  C  C380  1  0.21360000  0.56320000  0.49800000  1
  C  C381  1  0.33720000  0.57200000  0.04650000  1
  C  C382  1  0.54990000  0.57570000  0.66430000  1
  C  C383  1  0.15290000  0.57630000  0.48420000  1
  C  C384  1  0.49530000  0.58620000  0.43790000  1
  C  C385  1  0.62980000  0.59020000  0.51830000  1
  C  C386  1  0.01280000  0.59130000  0.87730000  1
  C  C387  1  0.15430000  0.59760000  0.04050000  1
  C  C388  1  0.52290000  0.59770000  0.47810000  1
  C  C389  1  0.05720000  0.60030000  0.34190000  1
  C  C390  1  0.29070000  0.60510000  0.48360000  1
  C  C391  1  0.08420000  0.60520000  0.89210000  1
  C  C392  1  0.45090000  0.61910000  0.42580000  1
  C  C393  1  0.32040000  0.62860000  0.33470000  1
  C  C394  1  0.55560000  0.63020000  0.10570000  1
  C  C395  1  0.16480000  0.63160000  0.45470000  1
  C  C396  1  0.13170000  0.63350000  0.35240000  1
  C  C397  1  0.32420000  0.63480000  0.37580000  1
  C  C398  1  0.02140000  0.63690000  0.32050000  1
  C  C399  1  0.51160000  0.64490000  0.50100000  1
  C  C400  1  0.28810000  0.65060000  0.20750000  1
  C  C401  1  0.28700000  0.65140000  0.24830000  1
  C  C402  1  0.58410000  0.65350000  0.67900000  1
  C  C403  1  0.29950000  0.65360000  0.45270000  1
  C  C404  1  0.43410000  0.66310000  0.44840000  1
  C  C405  1  0.24390000  0.66930000  0.44090000  1
  C  C406  1  0.54620000  0.67240000  0.70660000  1
  C  C407  1  0.13170000  0.67260000  0.91780000  1
  C  C408  1  0.35990000  0.67580000  0.14270000  1
  C  C409  1  0.36050000  0.67690000  0.18890000  1
  C  C410  1  0.46610000  0.67720000  0.48850000  1
  C  C411  1  0.35470000  0.68190000  0.26860000  1
  C  C412  1  0.35910000  0.68990000  0.31140000  1
  C  C413  1  0.65480000  0.69580000  0.66790000  1
  C  C414  1  0.37840000  0.69600000  0.43760000  1
  C  C415  1  0.37400000  0.69900000  0.39450000  1
  C  C416  1  0.43000000  0.70300000  0.20590000  1
  C  C417  1  0.17630000  0.70470000  0.34130000  1
  C  C418  1  0.42510000  0.70710000  0.24840000  1
  C  C419  1  0.06910000  0.71040000  0.30870000  1
  C  C420  1  0.14240000  0.74180000  0.32270000  1
  C  C421  1  0.57810000  0.74200000  0.72280000  1
  C  C422  1  0.15870000  0.75120000  0.08090000  1
  C  C423  1  0.40140000  0.75250000  0.32850000  1
  C  C424  1  0.16660000  0.75460000  0.12340000  1
  C  C425  1  0.40970000  0.75880000  0.36990000  1
  C  C426  1  0.59210000  0.76140000  0.01270000  1
  C  C427  1  0.68630000  0.76680000  0.68090000  1
  C  C428  1  0.41210000  0.77250000  0.45440000  1
  C  C429  1  0.60910000  0.77670000  0.97070000  1
  C  C430  1  0.67640000  0.77930000  0.95480000  1
  C  C431  1  0.22000000  0.78670000  0.20600000  1
  C  C432  1  0.21890000  0.78810000  0.24610000  1
  C  C433  1  0.65060000  0.79180000  0.70700000  1
  C  C434  1  0.55700000  0.79290000  0.94860000  1
  C  C435  1  0.68880000  0.79770000  0.91420000  1
  C  C436  1  0.37050000  0.79830000  0.47960000  1
  C  C437  1  0.38140000  0.79960000  0.04980000  1
  C  C438  1  0.15650000  0.80130000  0.01630000  1
  C  C439  1  0.69170000  0.80240000  0.82420000  1
  C  C440  1  0.16660000  0.80910000  0.06150000  1
  C  C441  1  0.56960000  0.81240000  0.90790000  1
  C  C442  1  0.63620000  0.81360000  0.89060000  1
  C  C443  1  0.70600000  0.81780000  0.78490000  1
  C  C444  1  0.17790000  0.81790000  0.14080000  1
  C  C445  1  0.18230000  0.82140000  0.18430000  1
  C  C446  1  0.49240000  0.82230000  0.44590000  1
  C  C447  1  0.18920000  0.82610000  0.30960000  1
  C  C448  1  0.18770000  0.82790000  0.26500000  1
  C  C449  1  0.65290000  0.83650000  0.84830000  1
  C  C450  1  0.08360000  0.84350000  0.35280000  1
  C  C451  1  0.04950000  0.85530000  0.92280000  1
  C  C452  1  0.30180000  0.85570000  0.93270000  1
  C  C453  1  0.93450000  0.85790000  0.11490000  1
  C  C454  1  0.26940000  0.85890000  0.32700000  1
  C  C455  1  0.59100000  0.86110000  0.10270000  1
  C  C456  1  0.15120000  0.86200000  0.20360000  1
  C  C457  1  0.27880000  0.86300000  0.36920000  1
  C  C458  1  0.15070000  0.86430000  0.24700000  1
  C  C459  1  0.87150000  0.86480000  0.12770000  1
  C  C460  1  0.67690000  0.86480000  0.76870000  1
  C  C461  1  0.40380000  0.86760000  0.49740000  1
  C  C462  1  0.50120000  0.86890000  0.14600000  1
  C  C463  1  0.68260000  0.86990000  0.72330000  1
  C  C464  1  0.15120000  0.87020000  0.32730000  1
  C  C465  1  0.17860000  0.87200000  0.07720000  1
  C  C466  1  0.56610000  0.87540000  0.68700000  1
  C  C467  1  0.41380000  0.87620000  0.03290000  1
  C  C468  1  0.62850000  0.87890000  0.83300000  1
  C  C469  1  0.92280000  0.87960000  0.90920000  1
  C  C470  1  0.18730000  0.88030000  0.11920000  1
  C  C471  1  0.05440000  0.88940000  0.36970000  1
  C  C472  1  0.33400000  0.89260000  0.30240000  1
  C  C473  1  0.52840000  0.89290000  0.46050000  1
  C  C474  1  0.63780000  0.89360000  0.79080000  1
  C  C475  1  0.00330000  0.89950000  0.90720000  1
  C  C476  1  0.55210000  0.89960000  0.12130000  1
  C  C477  1  0.46130000  0.90560000  0.17020000  1
  C  C478  1  0.35040000  0.90600000  0.38490000  1
  C  C479  1  0.49400000  0.90660000  0.02560000  1
  C  C480  1  0.36760000  0.90730000  0.02720000  1
  C  C481  1  0.01090000  0.90840000  0.13430000  1
  C  C482  1  0.63890000  0.90900000  0.70910000  1
  C  C483  1  0.87060000  0.91000000  0.15930000  1
  C  C484  1  0.52430000  0.91040000  0.67350000  1
  C  C485  1  0.37930000  0.91070000  0.91450000  1
  C  C486  1  0.44910000  0.91120000  0.92520000  1
  C  C487  1  0.76380000  0.91410000  0.70950000  1
  C  C488  1  0.48140000  0.91480000  0.48690000  1
  C  C489  1  0.88900000  0.92580000  0.89320000  1
  C  C490  1  0.77440000  0.92930000  0.67000000  1
  C  C491  1  0.40680000  0.93350000  0.31970000  1
  C  C492  1  0.41330000  0.94060000  0.36140000  1
  C  C493  1  0.82730000  0.94060000  0.73610000  1
  C  C494  1  0.18870000  0.94560000  0.32350000  1
  C  C495  1  0.00820000  0.95180000  0.16440000  1
  C  C496  1  0.37210000  0.95390000  0.88340000  1
  C  C497  1  0.51550000  0.96070000  0.90880000  1
  C  C498  1  0.09190000  0.96170000  0.36180000  1
  C  C499  1  0.94740000  0.96330000  0.18020000  1
  C  C500  1  0.05370000  0.96740000  0.89380000  1
  C  C501  1  0.85110000  0.97090000  0.65480000  1
  C  C502  1  0.58200000  0.97330000  0.10900000  1
  C  C503  1  0.48430000  0.97410000  0.15660000  1
  C  C504  1  0.52720000  0.97580000  0.00970000  1
  C  C505  1  0.40370000  0.97790000  0.01190000  1
  C  C506  1  0.37090000  0.97940000  0.19870000  1
  C  C507  1  0.55860000  0.98290000  0.67810000  1
  C  C508  1  0.90180000  0.98290000  0.71760000  1
  C  C509  1  0.66580000  0.98570000  0.71270000  1
  C  C510  1  0.98050000  0.98760000  0.37810000  1
  C  C511  1  0.51780000  0.98850000  0.50500000  1
  C  C512  1  0.15940000  0.99090000  0.33900000  1
  C  C513  1  0.48660000  0.99280000  0.37980000  1
  C  C514  1  0.94320000  0.99330000  0.87800000  1
  C  C515  1  0.45960000  0.99370000  0.62980000  1
  C  C516  1  0.91080000  0.99610000  0.67940000  1
  C  C517  1  0.55690000  0.99670000  0.36770000  1
  O  O518  1  0.35380000  0.10610000  0.57950000  1
  O  O519  1  0.89250000  0.12780000  0.41340000  1
  O  O520  1  0.75050000  0.13640000  0.42390000  1
  O  O521  1  0.85800000  0.15370000  0.49770000  1
  O  O522  1  0.68330000  0.18870000  0.45400000  1
  O  O523  1  0.00050000  0.19590000  0.44110000  1
  O  O524  1  0.43140000  0.20640000  0.60816000  1
  O  O525  1  0.57710000  0.21830000  0.57035000  1
  O  O526  1  0.35460000  0.24000000  0.53147000  1
  O  O527  1  0.68940000  0.24250000  0.54128000  1
  O  O528  1  0.83720000  0.25020000  0.50180000  1
  O  O529  1  0.47400000  0.25290000  0.52302000  1
  O  O530  1  0.90360000  0.28790000  0.41850000  1
  O  O531  1  0.57920000  0.32270000  0.62760000  1
  O  O532  1  0.81290000  0.32660000  0.43404000  1
  O  O533  1  0.69990000  0.32830000  0.62711000  1
  O  O534  1  0.37870000  0.32930000  0.61680000  1
  O  O535  1  0.63050000  0.35920000  0.54206000  1
  O  O536  1  0.48490000  0.35960000  0.58252000  1
  O  O537  1  0.79280000  0.37490000  0.51450000  1
  O  O538  1  0.83310000  0.39730000  0.57480000  1
  O  O539  1  0.71970000  0.45490000  0.56830000  1
  O  O540  1  0.28030000  0.54510000  0.06830000  1
  O  O541  1  0.16690000  0.60270000  0.07480000  1
  O  O542  1  0.20720000  0.62510000  0.01450000  1
  O  O543  1  0.51510000  0.64040000  0.08252000  1
  O  O544  1  0.36950000  0.64080000  0.04206000  1
  O  O545  1  0.62130000  0.67070000  0.11680000  1
  O  O546  1  0.30010000  0.67170000  0.12711000  1
  O  O547  1  0.18710000  0.67340000  0.93404000  1
  O  O548  1  0.42080000  0.67730000  0.12760000  1
  O  O549  1  0.09640000  0.71210000  0.91850000  1
  O  O550  1  0.52600000  0.74710000  0.02302000  1
  O  O551  1  0.16280000  0.74980000  0.00180000  1
  O  O552  1  0.31060000  0.75750000  0.04128000  1
  O  O553  1  0.64540000  0.76000000  0.03147000  1
  O  O554  1  0.42290000  0.78170000  0.07035000  1
  O  O555  1  0.56860000  0.79360000  0.10816000  1
  O  O556  1  0.99950000  0.80410000  0.94110000  1
  O  O557  1  0.31670000  0.81130000  0.95400000  1
  O  O558  1  0.14200000  0.84630000  0.99770000  1
  O  O559  1  0.24950000  0.86360000  0.92390000  1
  O  O560  1  0.10750000  0.87220000  0.91340000  1
  O  O561  1  0.64620000  0.89390000  0.07950000  1
