# generated using pymatgen
data_Co5H30C44(N6O11)2
_symmetry_space_group_name_H-M   'P 1'
_cell_length_a   11.07880000
_cell_length_b   12.69650000
_cell_length_c   12.78790000
_cell_angle_alpha   65.77600000
_cell_angle_beta   86.62000000
_cell_angle_gamma   83.38700000
_symmetry_Int_Tables_number   1
_chemical_formula_structural   Co5H30C44(N6O11)2
_chemical_formula_sum   'Co5 H30 C44 N12 O22'
_cell_volume   1629.33645564
_cell_formula_units_Z   1
loop_
 _symmetry_equiv_pos_site_id
 _symmetry_equiv_pos_as_xyz
  1  'x, y, z'
loop_
 _atom_site_type_symbol
 _atom_site_label
 _atom_site_symmetry_multiplicity
 _atom_site_fract_x
 _atom_site_fract_y
 _atom_site_fract_z
 _atom_site_occupancy
  Co  Co0  1  0.00000000  0.00000000  0.00000000  1
  Co  Co1  1  0.10216000  0.81873000  0.23137000  1
  Co  Co2  1  0.24955000  0.88467000  0.94841000  1
  Co  Co3  1  0.75045000  0.11533000  0.05159000  1
  Co  Co4  1  0.89784000  0.18127000  0.76863000  1
  H  H5  1  0.00390000  0.58240000  0.39730000  1
  H  H6  1  0.07700000  0.79600000  0.05000000  1
  H  H7  1  0.13450000  0.84470000  0.65600000  1
  H  H8  1  0.14850000  0.13510000  0.53510000  1
  H  H9  1  0.19800000  0.03350000  0.27570000  1
  H  H10  1  0.22180000  0.28240000  0.60620000  1
  H  H11  1  0.28480000  0.29100000  0.43030000  1
  H  H12  1  0.31760000  0.59620000  0.25430000  1
  H  H13  1  0.33950000  0.93290000  0.38710000  1
  H  H14  1  0.36550000  0.00510000  0.66890000  1
  H  H15  1  0.36610000  0.36270000  0.32660000  1
  H  H16  1  0.39940000  0.11030000  0.90410000  1
  H  H17  1  0.41480000  0.73190000  0.38850000  1
  H  H18  1  0.44600000  0.93450000  0.46200000  1
  H  H19  1  0.47240000  0.19230000  0.04750000  1
  H  H20  1  0.52760000  0.80770000  0.95250000  1
  H  H21  1  0.55400000  0.06550000  0.53800000  1
  H  H22  1  0.58520000  0.26810000  0.61150000  1
  H  H23  1  0.60060000  0.88970000  0.09590000  1
  H  H24  1  0.63390000  0.63730000  0.67340000  1
  H  H25  1  0.63450000  0.99490000  0.33110000  1
  H  H26  1  0.66050000  0.06710000  0.61290000  1
  H  H27  1  0.68240000  0.40380000  0.74570000  1
  H  H28  1  0.71520000  0.70900000  0.56970000  1
  H  H29  1  0.77820000  0.71760000  0.39380000  1
  H  H30  1  0.80200000  0.96650000  0.72430000  1
  H  H31  1  0.85150000  0.86490000  0.46490000  1
  H  H32  1  0.86550000  0.15530000  0.34400000  1
  H  H33  1  0.92300000  0.20400000  0.95000000  1
  H  H34  1  0.99610000  0.41760000  0.60270000  1
  C  C35  1  0.00610000  0.84670000  0.54970000  1
  C  C36  1  0.02390000  0.09110000  0.29570000  1
  C  C37  1  0.02950000  0.93100000  0.79800000  1
  C  C38  1  0.05220000  0.86370000  0.63930000  1
  C  C39  1  0.08220000  0.56060000  0.37820000  1
  C  C40  1  0.09080000  0.80810000  0.47170000  1
  C  C41  1  0.11670000  0.12500000  0.47440000  1
  C  C42  1  0.14670000  0.06360000  0.31910000  1
  C  C43  1  0.17270000  0.15490000  0.82270000  1
  C  C44  1  0.19180000  0.08170000  0.40780000  1
  C  C45  1  0.24980000  0.57020000  0.30030000  1
  C  C46  1  0.29370000  0.18830000  0.76470000  1
  C  C47  1  0.29420000  0.25680000  0.64640000  1
  C  C48  1  0.32780000  0.35990000  0.39770000  1
  C  C49  1  0.37010000  0.85180000  0.16950000  1
  C  C50  1  0.38940000  0.98310000  0.40200000  1
  C  C51  1  0.40070000  0.15380000  0.82520000  1
  C  C52  1  0.40440000  0.28570000  0.59030000  1
  C  C53  1  0.42430000  0.96240000  0.72340000  1
  C  C54  1  0.48560000  0.14390000  0.12430000  1
  C  C55  1  0.48830000  0.75080000  0.34980000  1
  C  C56  1  0.48950000  0.81580000  0.23180000  1
  C  C57  1  0.51050000  0.18420000  0.76820000  1
  C  C58  1  0.51170000  0.24920000  0.65020000  1
  C  C59  1  0.51440000  0.85610000  0.87570000  1
  C  C60  1  0.57570000  0.03760000  0.27660000  1
  C  C61  1  0.59560000  0.71430000  0.40970000  1
  C  C62  1  0.59930000  0.84620000  0.17480000  1
  C  C63  1  0.61060000  0.01690000  0.59800000  1
  C  C64  1  0.62990000  0.14820000  0.83050000  1
  C  C65  1  0.67220000  0.64010000  0.60230000  1
  C  C66  1  0.70580000  0.74320000  0.35360000  1
  C  C67  1  0.70630000  0.81170000  0.23530000  1
  C  C68  1  0.75020000  0.42980000  0.69970000  1
  C  C69  1  0.80820000  0.91830000  0.59220000  1
  C  C70  1  0.82730000  0.84510000  0.17730000  1
  C  C71  1  0.85330000  0.93640000  0.68090000  1
  C  C72  1  0.88330000  0.87500000  0.52560000  1
  C  C73  1  0.90920000  0.19190000  0.52830000  1
  C  C74  1  0.91780000  0.43940000  0.62180000  1
  C  C75  1  0.94780000  0.13630000  0.36070000  1
  C  C76  1  0.97050000  0.06900000  0.20200000  1
  C  C77  1  0.97610000  0.90890000  0.70430000  1
  C  C78  1  0.99390000  0.15330000  0.45030000  1
  N  N79  1  0.13230000  0.45380000  0.42530000  1
  N  N80  1  0.15090000  0.63640000  0.30090000  1
  N  N81  1  0.24160000  0.46130000  0.37340000  1
  N  N82  1  0.39780000  0.11540000  0.19980000  1
  N  N83  1  0.40200000  0.90250000  0.83360000  1
  N  N84  1  0.45680000  0.04690000  0.29840000  1
  N  N85  1  0.54320000  0.95310000  0.70160000  1
  N  N86  1  0.59800000  0.09750000  0.16640000  1
  N  N87  1  0.60220000  0.88460000  0.80020000  1
  N  N88  1  0.75840000  0.53870000  0.62660000  1
  N  N89  1  0.84910000  0.36360000  0.69910000  1
  N  N90  1  0.86770000  0.54620000  0.57470000  1
  O  O91  1  0.03940000  0.01720000  0.15120000  1
  O  O92  1  0.04220000  0.81750000  0.38140000  1
  O  O93  1  0.08140000  0.22000000  0.77550000  1
  O  O94  1  0.10630000  0.84820000  0.06270000  1
  O  O95  1  0.13890000  0.89560000  0.81990000  1
  O  O96  1  0.17230000  0.06360000  0.91550000  1
  O  O97  1  0.19840000  0.77600000  0.49840000  1
  O  O98  1  0.27700000  0.85200000  0.22940000  1
  O  O99  1  0.31490000  0.05830000  0.43960000  1
  O  O100  1  0.37480000  0.87700000  0.06370000  1
  O  O101  1  0.41790000  0.35190000  0.47400000  1
  O  O102  1  0.58210000  0.64810000  0.52600000  1
  O  O103  1  0.62520000  0.12300000  0.93630000  1
  O  O104  1  0.68510000  0.94170000  0.56040000  1
  O  O105  1  0.72300000  0.14800000  0.77060000  1
  O  O106  1  0.80160000  0.22400000  0.50160000  1
  O  O107  1  0.82770000  0.93640000  0.08450000  1
  O  O108  1  0.86110000  0.10440000  0.18010000  1
  O  O109  1  0.89370000  0.15180000  0.93730000  1
  O  O110  1  0.91860000  0.78000000  0.22450000  1
  O  O111  1  0.95780000  0.18250000  0.61860000  1
  O  O112  1  0.96060000  0.98280000  0.84880000  1
