# generated using pymatgen
data_Co2H18C24N4O9
_symmetry_space_group_name_H-M   'P 1'
_cell_length_a   11.43980000
_cell_length_b   13.29550000
_cell_length_c   26.24830000
_cell_angle_alpha   90.00000000
_cell_angle_beta   90.00000000
_cell_angle_gamma   90.00000000
_symmetry_Int_Tables_number   1
_chemical_formula_structural   Co2H18C24N4O9
_chemical_formula_sum   'Co8 H72 C96 N16 O36'
_cell_volume   3992.31028226
_cell_formula_units_Z   4
loop_
 _symmetry_equiv_pos_site_id
 _symmetry_equiv_pos_as_xyz
  1  'x, y, z'
loop_
 _atom_site_type_symbol
 _atom_site_label
 _atom_site_symmetry_multiplicity
 _atom_site_fract_x
 _atom_site_fract_y
 _atom_site_fract_z
 _atom_site_occupancy
  Co  Co0  1  0.07416000  0.05776000  0.86295000  1
  Co  Co1  1  0.18203000  0.43754000  0.58000000  1
  Co  Co2  1  0.31797000  0.56246000  0.08000000  1
  Co  Co3  1  0.42584000  0.94224000  0.36295000  1
  Co  Co4  1  0.57416000  0.44224000  0.13705000  1
  Co  Co5  1  0.68203000  0.06246000  0.42000000  1
  Co  Co6  1  0.81797000  0.93754000  0.92000000  1
  Co  Co7  1  0.92584000  0.55776000  0.63705000  1
  H  H8  1  0.00990000  0.82470000  0.33150000  1
  H  H9  1  0.02500000  0.86860000  0.49860000  1
  H  H10  1  0.02620000  0.84510000  0.05260000  1
  H  H11  1  0.03100000  0.76510000  0.66540000  1
  H  H12  1  0.03450000  0.12090000  0.35370000  1
  H  H13  1  0.04230000  0.87820000  0.73050000  1
  H  H14  1  0.06750000  0.49320000  0.04620000  1
  H  H15  1  0.11630000  0.62850000  0.59010000  1
  H  H16  1  0.12610000  0.72470000  0.09630000  1
  H  H17  1  0.13180000  0.58360000  0.48960000  1
  H  H18  1  0.13320000  0.07250000  0.74980000  1
  H  H19  1  0.13480000  0.18200000  0.68270000  1
  H  H20  1  0.15580000  0.59110000  0.64410000  1
  H  H21  1  0.15860000  0.31180000  0.48350000  1
  H  H22  1  0.21140000  0.81590000  0.33400000  1
  H  H23  1  0.21750000  0.70610000  0.44070000  1
  H  H24  1  0.23480000  0.10500000  0.35020000  1
  H  H25  1  0.24340000  0.18260000  0.43970000  1
  H  H26  1  0.25660000  0.81740000  0.93970000  1
  H  H27  1  0.26520000  0.89500000  0.85020000  1
  H  H28  1  0.28250000  0.29390000  0.94070000  1
  H  H29  1  0.28860000  0.18410000  0.83400000  1
  H  H30  1  0.34140000  0.68820000  0.98350000  1
  H  H31  1  0.34420000  0.40890000  0.14410000  1
  H  H32  1  0.36520000  0.81800000  0.18270000  1
  H  H33  1  0.36680000  0.92750000  0.24980000  1
  H  H34  1  0.36820000  0.41640000  0.98960000  1
  H  H35  1  0.37390000  0.27530000  0.59630000  1
  H  H36  1  0.38370000  0.37150000  0.09010000  1
  H  H37  1  0.43250000  0.50680000  0.54620000  1
  H  H38  1  0.45770000  0.12180000  0.23050000  1
  H  H39  1  0.46550000  0.87910000  0.85370000  1
  H  H40  1  0.46900000  0.23490000  0.16540000  1
  H  H41  1  0.47380000  0.15490000  0.55260000  1
  H  H42  1  0.47500000  0.13140000  0.99860000  1
  H  H43  1  0.49010000  0.17530000  0.83150000  1
  H  H44  1  0.50990000  0.67530000  0.66850000  1
  H  H45  1  0.52500000  0.63140000  0.50140000  1
  H  H46  1  0.52620000  0.65490000  0.94740000  1
  H  H47  1  0.53100000  0.73490000  0.33460000  1
  H  H48  1  0.53450000  0.37910000  0.64630000  1
  H  H49  1  0.54230000  0.62180000  0.26950000  1
  H  H50  1  0.56750000  0.00680000  0.95380000  1
  H  H51  1  0.61630000  0.87150000  0.40990000  1
  H  H52  1  0.62610000  0.77530000  0.90370000  1
  H  H53  1  0.63180000  0.91640000  0.51040000  1
  H  H54  1  0.63320000  0.42750000  0.25020000  1
  H  H55  1  0.63480000  0.31800000  0.31730000  1
  H  H56  1  0.65580000  0.90890000  0.35590000  1
  H  H57  1  0.65860000  0.18820000  0.51650000  1
  H  H58  1  0.71140000  0.68410000  0.66600000  1
  H  H59  1  0.71750000  0.79390000  0.55930000  1
  H  H60  1  0.73480000  0.39500000  0.64980000  1
  H  H61  1  0.74340000  0.31740000  0.56030000  1
  H  H62  1  0.75660000  0.68260000  0.06030000  1
  H  H63  1  0.76520000  0.60500000  0.14980000  1
  H  H64  1  0.78250000  0.20610000  0.05930000  1
  H  H65  1  0.78860000  0.31590000  0.16600000  1
  H  H66  1  0.84140000  0.81180000  0.01650000  1
  H  H67  1  0.84420000  0.09110000  0.85590000  1
  H  H68  1  0.86520000  0.68200000  0.81730000  1
  H  H69  1  0.86680000  0.57250000  0.75020000  1
  H  H70  1  0.86820000  0.08360000  0.01040000  1
  H  H71  1  0.87390000  0.22470000  0.40370000  1
  H  H72  1  0.88370000  0.12850000  0.90990000  1
  H  H73  1  0.93250000  0.99320000  0.45380000  1
  H  H74  1  0.95770000  0.37820000  0.76950000  1
  H  H75  1  0.96550000  0.62090000  0.14630000  1
  H  H76  1  0.96900000  0.26510000  0.83460000  1
  H  H77  1  0.97380000  0.34510000  0.44740000  1
  H  H78  1  0.97500000  0.36860000  0.00140000  1
  H  H79  1  0.99010000  0.32470000  0.16850000  1
  C  C80  1  0.00020000  0.47340000  0.15491000  1
  C  C81  1  0.00180000  0.24780000  0.80339000  1
  C  C82  1  0.00480000  0.81680000  0.73538000  1
  C  C83  1  0.03930000  0.36710000  0.67420000  1
  C  C84  1  0.04560000  0.29310000  0.71780000  1
  C  C85  1  0.05380000  0.88240000  0.33719000  1
  C  C86  1  0.05530000  0.37720000  0.99805000  1
  C  C87  1  0.05720000  0.23530000  0.93526000  1
  C  C88  1  0.06200000  0.91940000  0.95803000  1
  C  C89  1  0.06840000  0.05780000  0.34965000  1
  C  C90  1  0.09120000  0.81480000  0.03784000  1
  C  C91  1  0.09890000  0.13540000  0.75392000  1
  C  C92  1  0.09910000  0.20030000  0.71312000  1
  C  C93  1  0.11190000  0.45100000  0.02557000  1
  C  C94  1  0.11800000  0.31630000  0.96557000  1
  C  C95  1  0.12770000  0.84370000  0.99013000  1
  C  C96  1  0.13340000  0.47730000  0.14878000  1
  C  C97  1  0.15080000  0.74120000  0.06360000  1
  C  C98  1  0.17540000  0.87810000  0.33791000  1
  C  C99  1  0.18890000  0.04730000  0.34816000  1
  C  C100  1  0.21210000  0.59330000  0.49214000  1
  C  C101  1  0.22210000  0.27880000  0.49802000  1
  C  C102  1  0.22580000  0.79730000  0.97090000  1
  C  C103  1  0.23680000  0.33260000  0.96253000  1
  C  C104  1  0.26320000  0.66740000  0.46253000  1
  C  C105  1  0.27420000  0.20270000  0.47090000  1
  C  C106  1  0.27790000  0.72120000  0.99802000  1
  C  C107  1  0.28790000  0.40670000  0.99214000  1
  C  C108  1  0.31110000  0.95270000  0.84816000  1
  C  C109  1  0.32460000  0.12190000  0.83791000  1
  C  C110  1  0.34920000  0.25880000  0.56360000  1
  C  C111  1  0.36660000  0.52270000  0.64878000  1
  C  C112  1  0.37230000  0.15630000  0.49013000  1
  C  C113  1  0.38200000  0.68370000  0.46557000  1
  C  C114  1  0.38810000  0.54900000  0.52557000  1
  C  C115  1  0.40090000  0.79970000  0.21312000  1
  C  C116  1  0.40110000  0.86460000  0.25392000  1
  C  C117  1  0.40880000  0.18520000  0.53784000  1
  C  C118  1  0.43160000  0.94220000  0.84965000  1
  C  C119  1  0.43800000  0.08060000  0.45803000  1
  C  C120  1  0.44280000  0.76470000  0.43526000  1
  C  C121  1  0.44470000  0.62280000  0.49805000  1
  C  C122  1  0.44620000  0.11760000  0.83719000  1
  C  C123  1  0.45440000  0.70690000  0.21780000  1
  C  C124  1  0.46070000  0.63290000  0.17420000  1
  C  C125  1  0.49520000  0.18320000  0.23538000  1
  C  C126  1  0.49820000  0.75220000  0.30339000  1
  C  C127  1  0.49980000  0.52660000  0.65491000  1
  C  C128  1  0.50020000  0.02660000  0.84509000  1
  C  C129  1  0.50180000  0.25220000  0.19661000  1
  C  C130  1  0.50480000  0.68320000  0.26462000  1
  C  C131  1  0.53930000  0.13290000  0.32580000  1
  C  C132  1  0.54560000  0.20690000  0.28220000  1
  C  C133  1  0.55380000  0.61760000  0.66281000  1
  C  C134  1  0.55530000  0.12280000  0.00195000  1
  C  C135  1  0.55720000  0.26470000  0.06474000  1
  C  C136  1  0.56200000  0.58060000  0.04197000  1
  C  C137  1  0.56840000  0.44220000  0.65035000  1
  C  C138  1  0.59120000  0.68520000  0.96216000  1
  C  C139  1  0.59890000  0.36460000  0.24608000  1
  C  C140  1  0.59910000  0.29970000  0.28688000  1
  C  C141  1  0.61190000  0.04900000  0.97443000  1
  C  C142  1  0.61800000  0.18370000  0.03443000  1
  C  C143  1  0.62770000  0.65630000  0.00987000  1
  C  C144  1  0.63340000  0.02270000  0.85122000  1
  C  C145  1  0.65080000  0.75880000  0.93640000  1
  C  C146  1  0.67540000  0.62190000  0.66209000  1
  C  C147  1  0.68890000  0.45270000  0.65184000  1
  C  C148  1  0.71210000  0.90670000  0.50786000  1
  C  C149  1  0.72210000  0.22120000  0.50198000  1
  C  C150  1  0.72580000  0.70270000  0.02910000  1
  C  C151  1  0.73680000  0.16740000  0.03747000  1
  C  C152  1  0.76320000  0.83260000  0.53747000  1
  C  C153  1  0.77420000  0.29730000  0.52910000  1
  C  C154  1  0.77790000  0.77880000  0.00198000  1
  C  C155  1  0.78790000  0.09330000  0.00786000  1
  C  C156  1  0.81110000  0.54730000  0.15184000  1
  C  C157  1  0.82460000  0.37810000  0.16209000  1
  C  C158  1  0.84920000  0.24120000  0.43640000  1
  C  C159  1  0.86660000  0.97730000  0.35122000  1
  C  C160  1  0.87230000  0.34370000  0.50987000  1
  C  C161  1  0.88200000  0.81630000  0.53443000  1
  C  C162  1  0.88810000  0.95100000  0.47443000  1
  C  C163  1  0.90090000  0.70030000  0.78688000  1
  C  C164  1  0.90110000  0.63540000  0.74608000  1
  C  C165  1  0.90880000  0.31480000  0.46216000  1
  C  C166  1  0.93160000  0.55780000  0.15035000  1
  C  C167  1  0.93800000  0.41940000  0.54197000  1
  C  C168  1  0.94280000  0.73530000  0.56474000  1
  C  C169  1  0.94470000  0.87720000  0.50195000  1
  C  C170  1  0.94620000  0.38240000  0.16281000  1
  C  C171  1  0.95440000  0.79310000  0.78220000  1
  C  C172  1  0.96070000  0.86710000  0.82580000  1
  C  C173  1  0.99520000  0.31680000  0.76462000  1
  C  C174  1  0.99820000  0.74780000  0.69661000  1
  C  C175  1  0.99980000  0.97340000  0.34509000  1
  N  N176  1  0.05200000  0.15779000  0.79945000  1
  N  N177  1  0.22760000  0.46460000  0.02401000  1
  N  N178  1  0.24190000  0.69200000  0.04443000  1
  N  N179  1  0.24210000  0.95880000  0.34391000  1
  N  N180  1  0.25790000  0.04120000  0.84391000  1
  N  N181  1  0.25810000  0.30800000  0.54443000  1
  N  N182  1  0.27240000  0.53540000  0.52401000  1
  N  N183  1  0.44800000  0.84221000  0.29945000  1
  N  N184  1  0.55200000  0.34221000  0.20055000  1
  N  N185  1  0.72760000  0.03540000  0.97599000  1
  N  N186  1  0.74190000  0.80800000  0.95557000  1
  N  N187  1  0.74210000  0.54120000  0.65609000  1
  N  N188  1  0.75790000  0.45880000  0.15609000  1
  N  N189  1  0.75810000  0.19200000  0.45557000  1
  N  N190  1  0.77240000  0.96460000  0.47599000  1
  N  N191  1  0.94800000  0.65779000  0.70055000  1
  O  O192  1  0.02783000  0.93998000  0.81859000  1
  O  O193  1  0.04412000  0.43199000  0.53007000  1
  O  O194  1  0.05000000  0.72820000  0.55967000  1
  O  O195  1  0.10128000  0.34885000  0.63597000  1
  O  O196  1  0.10973000  0.57366000  0.61431000  1
  O  O197  1  0.11573000  0.96036000  0.92300000  1
  O  O198  1  0.12060000  0.18142000  0.90739000  1
  O  O199  1  0.17176000  0.55341000  0.12642000  1
  O  O200  1  0.19090000  0.40420000  0.16372000  1
  O  O201  1  0.30910000  0.59580000  0.66372000  1
  O  O202  1  0.32824000  0.44659000  0.62642000  1
  O  O203  1  0.37940000  0.81858000  0.40739000  1
  O  O204  1  0.38427000  0.03964000  0.42300000  1
  O  O205  1  0.39027000  0.42634000  0.11431000  1
  O  O206  1  0.39872000  0.65115000  0.13597000  1
  O  O207  1  0.45000000  0.27180000  0.05967000  1
  O  O208  1  0.45588000  0.56801000  0.03007000  1
  O  O209  1  0.47217000  0.06002000  0.31859000  1
  O  O210  1  0.52783000  0.56002000  0.18141000  1
  O  O211  1  0.54412000  0.06801000  0.46993000  1
  O  O212  1  0.55000000  0.77180000  0.44033000  1
  O  O213  1  0.60128000  0.15115000  0.36403000  1
  O  O214  1  0.60973000  0.92634000  0.38569000  1
  O  O215  1  0.61573000  0.53964000  0.07700000  1
  O  O216  1  0.62060000  0.31858000  0.09261000  1
  O  O217  1  0.67176000  0.94659000  0.87358000  1
  O  O218  1  0.69090000  0.09580000  0.83628000  1
  O  O219  1  0.80910000  0.90420000  0.33628000  1
  O  O220  1  0.82824000  0.05341000  0.37358000  1
  O  O221  1  0.87940000  0.68142000  0.59261000  1
  O  O222  1  0.88427000  0.46036000  0.57700000  1
  O  O223  1  0.89027000  0.07366000  0.88569000  1
  O  O224  1  0.89872000  0.84885000  0.86403000  1
  O  O225  1  0.95000000  0.22820000  0.94033000  1
  O  O226  1  0.95588000  0.93199000  0.96993000  1
  O  O227  1  0.97217000  0.43998000  0.68141000  1
