# generated using pymatgen
data_CoH16C24(NO2)2
_symmetry_space_group_name_H-M   'P 1'
_cell_length_a   25.33230000
_cell_length_b   25.92010000
_cell_length_c   25.92011205
_cell_angle_alpha   76.18487633
_cell_angle_beta   60.74735245
_cell_angle_gamma   60.74740000
_symmetry_Int_Tables_number   1
_chemical_formula_structural   CoH16C24(NO2)2
_chemical_formula_sum   'Co16 H256 C384 N32 O64'
_cell_volume   12955.45855695
_cell_formula_units_Z   16
loop_
 _symmetry_equiv_pos_site_id
 _symmetry_equiv_pos_as_xyz
  1  'x, y, z'
loop_
 _atom_site_type_symbol
 _atom_site_label
 _atom_site_symmetry_multiplicity
 _atom_site_fract_x
 _atom_site_fract_y
 _atom_site_fract_z
 _atom_site_occupancy
  Co  Co0  1  0.16317000  0.73320000  0.76990000  1
  Co  Co1  1  0.65322000  0.76277000  0.27107000  1
  Co  Co2  1  0.18305000  0.23701000  0.72953000  1
  Co  Co3  1  0.66627000  0.26680000  0.23010000  1
  Co  Co4  1  0.92429000  0.72893000  0.76277000  1
  Co  Co5  1  0.93307000  0.23010000  0.73320000  1
  Co  Co6  1  0.39943000  0.77153000  0.26055000  1
  Co  Co7  1  0.41599000  0.27107000  0.23723000  1
  Co  Co8  1  0.65998000  0.73945000  0.77153000  1
  Co  Co9  1  0.14959000  0.76299000  0.27047000  1
  Co  Co10  1  0.68706000  0.23723000  0.72893000  1
  Co  Co11  1  0.17096000  0.26055000  0.22847000  1
  Co  Co12  1  0.42006000  0.72953000  0.76299000  1
  Co  Co13  1  0.43151000  0.22847000  0.73945000  1
  Co  Co14  1  0.89637000  0.76990000  0.26680000  1
  Co  Co15  1  0.91258000  0.27047000  0.23701000  1
  H  H16  1  0.87110000  0.77470000  0.12730000  1
  H  H17  1  0.18180000  0.51900000  0.81580000  1
  H  H18  1  0.73890000  0.30870000  0.25770000  1
  H  H19  1  0.82680000  0.06370000  0.16790000  1
  H  H20  1  0.26800000  0.94330000  0.72530000  1
  H  H21  1  0.67260000  0.89390000  0.31750000  1
  H  H22  1  0.65666667  0.18590000  0.33333333  1
  H  H23  1  0.25800000  0.85950000  0.72850000  1
  H  H24  1  0.52030000  0.69490000  0.46430000  1
  H  H25  1  0.76800000  0.79490000  0.21370000  1
  H  H26  1  0.69630000  0.06900000  0.27820000  1
  H  H27  1  0.32110000  0.76630000  0.64490000  1
  H  H28  1  0.85130000  0.22440000  0.10280000  1
  H  H29  1  0.21560000  0.60740000  0.73480000  1
  H  H30  1  0.20980000  0.36580000  0.73300000  1
  H  H31  1  0.99330000  0.27470000  0.94330000  1
  H  H32  1  0.08040000  0.30430000  0.84950000  1
  H  H33  1  0.83480000  0.66770000  0.07350000  1
  H  H34  1  0.88250000  0.18520000  0.02440000  1
  H  H35  1  0.09840000  0.60490000  0.80550000  1
  H  H36  1  0.50930000  0.71960000  0.39220000  1
  H  H37  1  0.58860000  0.98530000  0.30670000  1
  H  H38  1  0.09730000  0.42920000  0.79500000  1
  H  H39  1  0.05840000  0.93630000  0.83210000  1
  H  H40  1  0.73570000  0.69220000  0.15360000  1
  H  H41  1  0.99010000  0.68250000  0.89390000  1
  H  H42  1  0.06770000  0.02440000  0.81480000  1
  H  H43  1  0.89530000  0.69330000  0.98530000  1
  H  H44  1  0.63430000  0.89420000  0.23900000  1
  H  H45  1  0.64580000  0.12730000  0.22530000  1
  H  H46  1  0.31630000  0.77560000  0.55160000  1
  H  H47  1  0.07570000  0.10280000  0.77560000  1
  H  H48  1  0.08650000  0.18940000  0.76380000  1
  H  H49  1  0.98650000  0.27150000  0.85950000  1
  H  H50  1  0.17593333  0.81410000  0.66666667  1
  H  H51  1  0.50250000  0.07350000  0.33230000  1
  H  H52  1  0.53890000  0.47900000  0.29540000  1
  H  H53  1  0.89050000  0.16790000  0.93630000  1
  H  H54  1  0.59700000  0.64370000  0.22850000  1
  H  H55  1  0.55780000  0.39260000  0.26520000  1
  H  H56  1  0.58500000  0.55490000  0.23710000  1
  H  H57  1  0.10130000  0.70200000  0.71340000  1
  H  H58  1  0.50520000  0.72690000  0.30490000  1
  H  H59  1  0.37490000  0.23040000  0.43300000  1
  H  H60  1  0.28480000  0.23960000  0.52100000  1
  H  H61  1  0.01050000  0.51820000  0.79360000  1
  H  H62  1  0.51670000  0.29800000  0.28660000  1
  H  H63  1  0.43470000  0.28690000  0.36850000  1
  H  H64  1  0.31150000  0.77420000  0.48100000  1
  H  H65  1  0.53660000  0.80820000  0.24960000  1
  H  H66  1  0.76070000  0.29450000  0.02190000  1
  H  H67  1  0.55170000  0.98100000  0.22700000  1
  H  H68  1  0.98170000  0.78630000  0.79490000  1
  H  H69  1  0.99840000  0.87270000  0.77470000  1
  H  H70  1  0.07850000  0.44540000  0.69320000  1
  H  H71  1  0.56290000  0.21370000  0.20510000  1
  H  H72  1  0.87330000  0.76100000  0.89420000  1
  H  H73  1  0.70970000  0.73670000  0.05670000  1
  H  H74  1  0.04350000  0.93100000  0.72180000  1
  H  H75  1  0.05520000  0.02190000  0.70550000  1
  H  H76  1  0.77870000  0.77300000  0.98100000  1
  H  H77  1  0.61440000  0.74860000  0.14440000  1
  H  H78  1  0.16860000  0.83340000  0.57620000  1
  H  H79  1  0.04760000  0.25770000  0.69130000  1
  H  H80  1  0.42790000  0.15360000  0.30780000  1
  H  H81  1  0.12790000  0.27690000  0.60470000  1
  H  H82  1  0.96600000  0.35510000  0.76630000  1
  H  H83  1  0.09010000  0.71310000  0.63150000  1
  H  H84  1  0.44640000  0.05670000  0.26330000  1
  H  H85  1  0.30960000  0.76880000  0.39540000  1
  H  H86  1  0.50880000  0.39510000  0.19450000  1
  H  H87  1  0.51660000  0.48100000  0.18420000  1
  H  H88  1  0.76530000  0.27820000  0.93100000  1
  H  H89  1  0.25030000  0.33510000  0.44130000  1
  H  H90  1  0.50230000  0.66210000  0.18570000  1
  H  H91  1  0.16130000  0.33600000  0.52200000  1
  H  H92  1  0.46180000  0.89730000  0.21970000  1
  H  H93  1  0.98460000  0.53570000  0.69490000  1
  H  H94  1  0.51150000  0.57250000  0.16610000  1
  H  H95  1  0.19120000  0.81720000  0.48480000  1
  H  H96  1  0.56650000  0.31750000  0.10610000  1
  H  H97  1  0.84260000  0.33333333  0.81410000  1
  H  H98  1  0.77310000  0.22530000  0.87270000  1
  H  H99  1  0.86790000  0.44840000  0.77560000  1
  H  H100  1  0.52850000  0.23900000  0.10580000  1
  H  H101  1  0.90150000  0.60780000  0.71960000  1
  H  H102  1  0.36300000  0.14440000  0.25140000  1
  H  H103  1  0.03830000  0.76960000  0.56700000  1
  H  H104  1  0.24070000  0.22850000  0.35630000  1
  H  H105  1  0.19770000  0.80590000  0.39730000  1
  H  H106  1  0.78620000  0.75040000  0.80820000  1
  H  H107  1  0.41530000  0.97230000  0.17790000  1
  H  H108  1  0.57390000  0.30670000  0.01470000  1
  H  H109  1  0.02670000  0.66490000  0.55870000  1
  H  H110  1  0.13990000  0.23710000  0.44510000  1
  H  H111  1  0.30520000  0.71810000  0.27950000  1
  H  H112  1  0.88930000  0.84640000  0.69220000  1
  H  H113  1  0.68150000  0.78030000  0.89730000  1
  H  H114  1  0.74480000  0.42380000  0.83340000  1
  H  H115  1  0.90830000  0.92650000  0.66770000  1
  H  H116  1  0.30860000  0.63420000  0.26700000  1
  H  H117  1  0.88060000  0.01470000  0.69330000  1
  H  H118  1  0.28950000  0.97820000  0.27880000  1
  H  H119  1  0.79250000  0.51900000  0.77420000  1
  H  H120  1  0.88400000  0.10610000  0.68250000  1
  H  H121  1  0.59320000  0.82210000  0.97230000  1
  H  H122  1  0.77660000  0.20510000  0.78630000  1
  H  H123  1  0.95040000  0.26520000  0.60740000  1
  H  H124  1  0.49580000  0.83280000  0.06180000  1
  H  H125  1  0.53270000  0.22700000  0.01900000  1
  H  H126  1  0.56830000  0.72120000  0.97820000  1
  H  H127  1  0.01790000  0.29540000  0.52100000  1
  H  H128  1  0.81010000  0.69510000  0.72690000  1
  H  H129  1  0.46780000  0.73660000  0.06900000  1
  H  H130  1  0.34480000  0.24960000  0.19180000  1
  H  H131  1  0.75970000  0.01900000  0.77300000  1
  H  H132  1  0.32230000  0.48180000  0.20640000  1
  H  H133  1  0.76750000  0.10580000  0.76100000  1
  H  H134  1  0.32150000  0.57080000  0.20500000  1
  H  H135  1  0.04540000  0.76040000  0.47900000  1
  H  H136  1  0.21710000  0.55460000  0.30680000  1
  H  H137  1  0.21520000  0.46430000  0.30510000  1
  H  H138  1  0.81470000  0.28660000  0.70200000  1
  H  H139  1  0.99760000  0.18420000  0.51900000  1
  H  H140  1  0.08400000  0.16610000  0.42750000  1
  H  H141  1  0.22890000  0.39220000  0.28040000  1
  H  H142  1  0.90390000  0.19450000  0.60490000  1
  H  H143  1  0.75880000  0.85560000  0.74860000  1
  H  H144  1  0.23210000  0.30490000  0.27310000  1
  H  H145  1  0.76640000  0.94330000  0.73670000  1
  H  H146  1  0.57600000  0.33230000  0.92650000  1
  H  H147  1  0.16440000  0.18570000  0.33790000  1
  H  H148  1  0.01930000  0.66400000  0.47800000  1
  H  H149  1  0.32860000  0.06180000  0.16720000  1
  H  H150  1  0.67600000  0.51520000  0.81720000  1
  H  H151  1  0.17530000  0.89460000  0.31660000  1
  H  H152  1  0.35970000  0.78680000  0.12760000  1
  H  H153  1  0.70500000  0.60460000  0.76880000  1
  H  H154  1  0.25610000  0.80500000  0.21500000  1
  H  H155  1  0.82550000  0.77150000  0.64370000  1
  H  H156  1  0.20440000  0.06900000  0.26340000  1
  H  H157  1  0.35910000  0.21970000  0.10270000  1
  H  H158  1  0.50310000  0.26330000  0.94330000  1
  H  H159  1  0.72160000  0.36850000  0.71310000  1
  H  H160  1  0.58150000  0.30780000  0.84640000  1
  H  H161  1  0.38760000  0.17790000  0.02770000  1
  H  H162  1  0.33670000  0.66970000  0.07590000  1
  H  H163  1  0.00950000  0.72310000  0.39530000  1
  H  H164  1  0.59500000  0.60270000  0.80590000  1
  H  H165  1  0.09140000  0.98760000  0.30260000  1
  H  H166  1  0.55760000  0.93820000  0.83280000  1
  H  H167  1  0.56550000  0.02770000  0.82210000  1
  H  H168  1  0.49190000  0.68340000  0.89460000  1
  H  H169  1  0.23420000  0.69570000  0.15050000  1
  H  H170  1  0.39400000  0.69740000  0.98760000  1
  H  H171  1  0.11920000  0.89460000  0.25940000  1
  H  H172  1  0.82210000  0.76290000  0.55490000  1
  H  H173  1  0.60530000  0.43300000  0.76960000  1
  H  H174  1  0.50740000  0.25140000  0.85560000  1
  H  H175  1  0.14650000  0.12760000  0.21320000  1
  H  H176  1  0.57880000  0.10270000  0.78030000  1
  H  H177  1  0.68800000  0.81430000  0.66210000  1
  H  H178  1  0.59440000  0.19180000  0.75040000  1
  H  H179  1  0.00640000  0.07590000  0.33030000  1
  H  H180  1  0.39040000  0.16720000  0.93820000  1
  H  H181  1  0.80410000  0.20640000  0.51820000  1
  H  H182  1  0.89230000  0.20500000  0.42920000  1
  H  H183  1  0.08740000  0.64490000  0.23370000  1
  H  H184  1  0.09190000  0.55160000  0.22440000  1
  H  H185  1  0.83430000  0.70460000  0.47900000  1
  H  H186  1  0.08570000  0.48100000  0.22580000  1
  H  H187  1  0.07840000  0.39540000  0.23120000  1
  H  H188  1  0.94280000  0.26700000  0.36580000  1
  H  H189  1  0.99660000  0.74230000  0.30870000  1
  H  H190  1  0.02330000  0.27950000  0.28190000  1
  H  H191  1  0.58470000  0.72050000  0.71810000  1
  H  H192  1  0.26770000  0.27880000  0.02180000  1
  H  H193  1  0.52440000  0.52100000  0.76040000  1
  H  H194  1  0.03060000  0.98500000  0.25020000  1
  H  H195  1  0.47110000  0.78500000  0.80500000  1
  H  H196  1  0.03970000  0.81060000  0.23620000  1
  H  H197  1  0.48730000  0.87240000  0.78680000  1
  H  H198  1  0.53680000  0.93100000  0.73660000  1
  H  H199  1  0.37860000  0.74060000  0.89460000  1
  H  H200  1  0.21130000  0.72530000  0.05670000  1
  H  H201  1  0.54650000  0.02180000  0.72120000  1
  H  H202  1  0.28080000  0.74980000  0.98500000  1
  H  H203  1  0.11750000  0.72850000  0.14050000  1
  H  H204  1  0.06110000  0.21500000  0.19500000  1
  H  H205  1  0.58540000  0.44130000  0.66490000  1
  H  H206  1  0.67760000  0.83390000  0.57250000  1
  H  H207  1  0.46920000  0.35630000  0.77150000  1
  H  H208  1  0.92990000  0.15050000  0.30430000  1
  H  H209  1  0.53700000  0.27310000  0.69510000  1
  H  H210  1  0.62110000  0.28040000  0.60780000  1
  H  H211  1  0.77170000  0.30680000  0.44540000  1
  H  H212  1  0.82300000  0.73480000  0.39260000  1
  H  H213  1  0.67950000  0.30510000  0.53570000  1
  H  H214  1  0.93660000  0.05670000  0.27470000  1
  H  H215  1  0.57560000  0.73300000  0.63420000  1
  H  H216  1  0.27340000  0.26340000  0.93100000  1
  H  H217  1  0.00360000  0.39730000  0.19410000  1
  H  H218  1  0.00840000  0.48480000  0.18280000  1
  H  H219  1  0.70080000  0.81580000  0.48100000  1
  H  H220  1  0.95410000  0.89720000  0.22440000  1
  H  H221  1  0.99000000  0.66666667  0.18590000  1
  H  H222  1  0.06990000  0.31660000  0.10540000  1
  H  H223  1  0.00200000  0.57620000  0.16660000  1
  H  H224  1  0.35010000  0.33790000  0.81430000  1
  H  H225  1  0.49730000  0.52200000  0.66400000  1
  H  H226  1  0.27410000  0.21320000  0.87240000  1
  H  H227  1  0.37700000  0.44510000  0.76290000  1
  H  H228  1  0.40480000  0.60470000  0.72310000  1
  H  H229  1  0.01380000  0.25940000  0.10540000  1
  H  H230  1  0.84600000  0.14050000  0.27150000  1
  H  H231  1  0.80330000  0.71340000  0.29800000  1
  H  H232  1  0.70330000  0.80550000  0.39510000  1
  H  H233  1  0.52650000  0.79500000  0.57080000  1
  H  H234  1  0.90690000  0.97560000  0.18520000  1
  H  H235  1  0.64350000  0.22440000  0.44840000  1
  H  H236  1  0.07900000  0.30260000  0.01240000  1
  H  H237  1  0.80320000  0.63150000  0.28690000  1
  H  H238  1  0.73230000  0.23370000  0.35510000  1
  H  H239  1  0.27590000  0.76380000  0.81060000  1
  H  H240  1  0.56670000  0.22580000  0.51900000  1
  H  H241  1  0.25010000  0.42750000  0.83390000  1
  H  H242  1  0.41260000  0.92410000  0.66970000  1
  H  H243  1  0.38470000  0.84950000  0.69570000  1
  H  H244  1  0.38160000  0.01240000  0.69740000  1
  H  H245  1  0.52390000  0.69320000  0.55460000  1
  H  H246  1  0.47380000  0.23120000  0.60460000  1
  H  H247  1  0.78260000  0.97810000  0.29450000  1
  H  H248  1  0.17850000  0.77560000  0.89720000  1
  H  H249  1  0.38650000  0.10540000  0.68340000  1
  H  H250  1  0.09210000  0.81480000  0.97560000  1
  H  H251  1  0.27610000  0.19500000  0.78500000  1
  H  H252  1  0.99470000  0.83210000  0.06370000  1
  H  H253  1  0.07710000  0.70550000  0.97810000  1
  H  H254  1  0.30530000  0.69130000  0.74230000  1
  H  H255  1  0.80580000  0.47900000  0.23960000  1
  H  H256  1  0.97450000  0.72180000  0.06900000  1
  H  H257  1  0.85030000  0.23620000  0.18940000  1
  H  H258  1  0.80790000  0.56700000  0.23040000  1
  H  H259  1  0.01560000  0.25020000  0.01500000  1
  H  H260  1  0.69160000  0.55870000  0.33510000  1
  H  H261  1  0.30280000  0.28190000  0.72050000  1
  H  H262  1  0.68330000  0.47800000  0.33600000  1
  H  H263  1  0.31330000  0.52100000  0.70460000  1
  H  H264  1  0.26580000  0.01500000  0.74980000  1
  H  H265  1  0.27320000  0.10540000  0.74060000  1
  H  H266  1  0.52870000  0.79360000  0.48180000  1
  H  H267  1  0.73260000  0.39530000  0.27690000  1
  H  H268  1  0.49320000  0.18280000  0.51520000  1
  H  H269  1  0.08230000  0.33030000  0.92410000  1
  H  H270  1  0.40090000  0.19410000  0.60270000  1
  H  H271  1  0.57820000  0.16660000  0.42380000  1
  C  C272  1  0.62310000  0.79090000  0.36950000  1
  C  C273  1  0.67920000  0.92870000  0.30870000  1
  C  C274  1  0.76700000  0.16510000  0.22090000  1
  C  C275  1  0.23750000  0.36160000  0.75000000  1
  C  C276  1  0.88540000  0.23160000  0.10140000  1
  C  C277  1  0.25460000  0.60730000  0.73170000  1
  C  C278  1  0.93420000  0.23550000  0.05050000  1
  C  C279  1  0.66960000  0.55860000  0.31420000  1
  C  C280  1  0.48050000  0.70810000  0.50030000  1
  C  C281  1  0.22740000  0.05130000  0.75310000  1
  C  C282  1  0.66510000  0.51150000  0.31450000  1
  C  C283  1  0.69050000  0.03390000  0.28790000  1
  C  C284  1  0.23140000  0.10420000  0.74640000  1
  C  C285  1  0.84440000  0.75590000  0.13330000  1
  C  C286  1  0.12230000  0.28870000  0.85090000  1
  C  C287  1  0.36100000  0.75150000  0.60910000  1
  C  C288  1  0.22550000  0.94250000  0.74450000  1
  C  C289  1  0.69620000  0.39660000  0.27360000  1
  C  C290  1  0.78280000  0.76760000  0.18520000  1
  C  C291  1  0.09460000  0.70370000  0.87230000  1
  C  C292  1  0.04090000  0.70000000  0.92560000  1
  C  C293  1  0.21800000  0.89350000  0.74830000  1
  C  C294  1  0.45020000  0.19850000  0.51610000  1
  C  C295  1  0.92790000  0.70450000  0.03630000  1
  C  C296  1  0.39700000  0.20080000  0.56680000  1
  C  C297  1  0.69920000  0.34420000  0.26240000  1
  C  C298  1  0.56350000  0.19510000  0.39710000  1
  C  C299  1  0.86470000  0.71780000  0.09260000  1
  C  C300  1  0.15010000  0.51880000  0.80640000  1
  C  C301  1  0.61020000  0.20840000  0.34320000  1
  C  C302  1  0.15570000  0.46650000  0.79410000  1
  C  C303  1  0.16520000  0.99160000  0.77120000  1
  C  C304  1  0.15780000  0.88620000  0.77840000  1
  C  C305  1  0.16970000  0.05050000  0.76450000  1
  C  C306  1  0.15300000  0.83490000  0.77910000  1
  C  C307  1  0.62790000  0.98430000  0.30390000  1
  C  C308  1  0.64370000  0.60990000  0.28430000  1
  C  C309  1  0.93640000  0.22880000  0.99160000  1
  C  C310  1  0.63240000  0.03630000  0.29550000  1
  C  C311  1  0.64620000  0.67130000  0.27870000  1
  C  C312  1  0.82240000  0.69370000  0.10190000  1
  C  C313  1  0.63460000  0.50780000  0.28460000  1
  C  C314  1  0.41480000  0.73040000  0.50400000  1
  C  C315  1  0.98790000  0.69130000  0.92870000  1
  C  C316  1  0.63640000  0.45320000  0.28000000  1
  C  C317  1  0.93180000  0.69610000  0.98430000  1
  C  C318  1  0.76480000  0.70720000  0.15040000  1
  C  C319  1  0.97000000  0.25550000  0.94250000  1
  C  C320  1  0.35850000  0.75530000  0.55310000  1
  C  C321  1  0.27690000  0.21490000  0.63250000  1
  C  C322  1  0.10080000  0.93700000  0.80740000  1
  C  C323  1  0.44220000  0.21900000  0.46540000  1
  C  C324  1  0.10750000  0.98880000  0.79920000  1
  C  C325  1  0.33670000  0.21250000  0.56890000  1
  C  C326  1  0.49480000  0.22530000  0.41010000  1
  C  C327  1  0.09860000  0.56860000  0.80400000  1
  C  C328  1  0.90670000  0.20080000  0.98880000  1
  C  C329  1  0.09830000  0.46540000  0.79500000  1
  C  C330  1  0.12420000  0.15270000  0.76130000  1
  C  C331  1  0.11700000  0.10140000  0.76840000  1
  C  C332  1  0.58250000  0.44680000  0.28320000  1
  C  C333  1  0.58250000  0.09260000  0.28220000  1
  C  C334  1  0.61310000  0.61070000  0.25150000  1
  C  C335  1  0.60840000  0.55640000  0.25600000  1
  C  C336  1  0.59360000  0.39270000  0.26830000  1
  C  C337  1  0.46790000  0.72900000  0.39260000  1
  C  C338  1  0.96630000  0.25170000  0.89350000  1
  C  C339  1  0.40980000  0.73740000  0.44800000  1
  C  C340  1  0.37860000  0.22660000  0.46860000  1
  C  C341  1  0.32740000  0.22800000  0.51920000  1
  C  C342  1  0.52910000  0.27350000  0.31630000  1
  C  C343  1  0.90820000  0.19260000  0.93700000  1
  C  C344  1  0.04530000  0.57100000  0.79960000  1
  C  C345  1  0.60030000  0.13330000  0.24410000  1
  C  C346  1  0.47960000  0.26610000  0.36410000  1
  C  C347  1  0.04720000  0.51760000  0.79580000  1
  C  C348  1  0.59720000  0.89450000  0.23810000  1
  C  C349  1  0.93620000  0.22160000  0.88620000  1
  C  C350  1  0.51610000  0.10190000  0.30630000  1
  C  C351  1  0.09100000  0.33400000  0.72960000  1
  C  C352  1  0.16180000  0.79160000  0.65680000  1
  C  C353  1  0.46480000  0.73430000  0.34030000  1
  C  C354  1  0.11890000  0.72650000  0.68370000  1
  C  C355  1  0.35240000  0.75920000  0.44620000  1
  C  C356  1  0.67060000  0.29630000  0.12770000  1
  C  C357  1  0.54150000  0.84370000  0.24230000  1
  C  C358  1  0.99260000  0.63050000  0.79090000  1
  C  C359  1  0.55040000  0.18520000  0.23240000  1
  C  C360  1  0.54940000  0.94490000  0.22990000  1
  C  C361  1  0.93210000  0.22090000  0.83490000  1
  C  C362  1  0.47200000  0.15040000  0.29280000  1
  C  C363  1  0.15570000  0.80490000  0.60290000  1
  C  C364  1  0.03180000  0.39210000  0.72550000  1
  C  C365  1  0.10980000  0.73390000  0.63590000  1
  C  C366  1  0.72320000  0.29430000  0.02210000  1
  C  C367  1  0.35180000  0.76020000  0.39300000  1
  C  C368  1  0.03610000  0.44540000  0.70720000  1
  C  C369  1  0.66650000  0.30000000  0.07440000  1
  C  C370  1  0.96800000  0.81480000  0.76760000  1
  C  C371  1  0.97770000  0.86670000  0.75590000  1
  C  C372  1  0.83530000  0.76190000  0.89450000  1
  C  C373  1  0.01230000  0.96610000  0.71210000  1
  C  C374  1  0.77930000  0.77010000  0.94490000  1
  C  C375  1  0.66640000  0.75670000  0.05750000  1
  C  C376  1  0.01750000  0.02210000  0.70570000  1
  C  C377  1  0.49710000  0.94550000  0.22530000  1
  C  C378  1  0.49440000  0.89780000  0.22760000  1
  C  C379  1  0.97010000  0.39090000  0.75150000  1
  C  C380  1  0.13020000  0.77470000  0.58990000  1
  C  C381  1  0.61020000  0.76090000  0.10850000  1
  C  C382  1  0.04340000  0.26240000  0.65580000  1
  C  C383  1  0.09280000  0.27360000  0.60340000  1
  C  C384  1  0.72440000  0.28790000  0.96610000  1
  C  C385  1  0.98080000  0.49970000  0.70810000  1
  C  C386  1  0.60790000  0.30870000  0.07130000  1
  C  C387  1  0.95730000  0.90740000  0.71780000  1
  C  C388  1  0.96690000  0.12770000  0.70370000  1
  C  C389  1  0.22820000  0.31420000  0.44140000  1
  C  C390  1  0.47530000  0.48120000  0.19360000  1
  C  C391  1  0.96420000  0.96370000  0.70450000  1
  C  C392  1  0.72240000  0.77470000  0.94550000  1
  C  C393  1  0.46380000  0.65470000  0.20410000  1
  C  C394  1  0.47120000  0.43140000  0.19600000  1
  C  C395  1  0.91160000  0.44690000  0.75530000  1
  C  C396  1  0.96650000  0.07440000  0.70000000  1
  C  C397  1  0.42310000  0.05750000  0.24330000  1
  C  C398  1  0.17660000  0.31450000  0.48850000  1
  C  C399  1  0.65800000  0.78330000  0.00610000  1
  C  C400  1  0.12660000  0.78100000  0.53460000  1
  C  C401  1  0.55090000  0.78090000  0.11010000  1
  C  C402  1  0.46880000  0.60140000  0.19080000  1
  C  C403  1  0.44130000  0.00610000  0.21670000  1
  C  C404  1  0.49060000  0.78050000  0.16270000  1
  C  C405  1  0.91880000  0.49600000  0.73040000  1
  C  C406  1  0.16480000  0.80150000  0.48390000  1
  C  C407  1  0.31750000  0.27870000  0.32870000  1
  C  C408  1  0.25360000  0.28430000  0.39010000  1
  C  C409  1  0.08960000  0.28000000  0.54680000  1
  C  C410  1  0.14240000  0.28460000  0.49220000  1
  C  C411  1  0.66870000  0.29550000  0.96370000  1
  C  C412  1  0.61220000  0.30390000  0.01570000  1
  C  C413  1  0.78380000  0.75770000  0.84370000  1
  C  C414  1  0.41310000  0.59140000  0.21300000  1
  C  C415  1  0.41400000  0.36950000  0.20910000  1
  C  C416  1  0.91520000  0.84960000  0.70720000  1
  C  C417  1  0.41630000  0.53350000  0.20590000  1
  C  C418  1  0.72200000  0.77240000  0.89780000  1
  C  C419  1  0.92430000  0.89810000  0.69370000  1
  C  C420  1  0.41590000  0.42900000  0.20040000  1
  C  C421  1  0.22380000  0.25150000  0.38930000  1
  C  C422  1  0.91610000  0.01570000  0.69610000  1
  C  C423  1  0.81860000  0.34320000  0.79160000  1
  C  C424  1  0.37110000  0.10850000  0.23910000  1
  C  C425  1  0.16480000  0.25600000  0.44360000  1
  C  C426  1  0.34820000  0.68670000  0.25970000  1
  C  C427  1  0.91660000  0.07130000  0.69130000  1
  C  C428  1  0.59760000  0.80710000  0.00790000  1
  C  C429  1  0.07380000  0.77340000  0.53140000  1
  C  C430  1  0.73360000  0.24410000  0.86670000  1
  C  C431  1  0.53960000  0.81120000  0.06000000  1
  C  C432  1  0.34910000  0.63840000  0.25000000  1
  C  C433  1  0.16460000  0.79920000  0.43320000  1
  C  C434  1  0.40470000  0.00790000  0.19290000  1
  C  C435  1  0.49170000  0.23810000  0.10550000  1
  C  C436  1  0.92490000  0.72130000  0.67130000  1
  C  C437  1  0.85780000  0.55200000  0.73740000  1
  C  C438  1  0.98630000  0.26830000  0.60730000  1
  C  C439  1  0.86050000  0.60740000  0.72900000  1
  C  C440  1  0.30230000  0.87300000  0.28520000  1
  C  C441  1  0.02930000  0.28320000  0.55320000  1
  C  C442  1  0.67510000  0.28220000  0.90740000  1
  C  C443  1  0.36060000  0.48240000  0.20420000  1
  C  C444  1  0.35870000  0.53460000  0.20500000  1
  C  C445  1  0.75860000  0.39710000  0.80490000  1
  C  C446  1  0.79860000  0.55380000  0.75920000  1
  C  C447  1  0.07460000  0.77200000  0.48080000  1
  C  C448  1  0.33180000  0.11010000  0.21910000  1
  C  C449  1  0.73560000  0.23240000  0.81480000  1
  C  C450  1  0.49430000  0.22990000  0.05510000  1
  C  C451  1  0.11810000  0.78750000  0.43110000  1
  C  C452  1  0.98380000  0.68580000  0.55860000  1
  C  C453  1  0.38520000  0.24230000  0.15630000  1
  C  C454  1  0.35080000  0.06000000  0.18880000  1
  C  C455  1  0.80510000  0.65970000  0.73430000  1
  C  C456  1  0.92800000  0.71570000  0.60990000  1
  C  C457  1  0.24440000  0.92750000  0.29090000  1
  C  C458  1  0.25040000  0.97880000  0.28140000  1
  C  C459  1  0.80260000  0.31630000  0.72650000  1
  C  C460  1  0.61800000  0.30630000  0.89810000  1
  C  C461  1  0.53180000  0.71860000  0.97880000  1
  C  C462  1  0.47290000  0.72470000  0.03430000  1
  C  C463  1  0.74480000  0.60700000  0.76020000  1
  C  C464  1  0.44260000  0.22530000  0.05450000  1
  C  C465  1  0.72010000  0.41010000  0.77470000  1
  C  C466  1  0.39220000  0.22760000  0.10220000  1
  C  C467  1  0.72420000  0.05510000  0.77010000  1
  C  C468  1  0.12430000  0.78510000  0.36750000  1
  C  C469  1  0.72980000  0.10550000  0.76190000  1
  C  C470  1  0.97960000  0.68550000  0.51150000  1
  C  C471  1  0.27110000  0.16270000  0.21950000  1
  C  C472  1  0.18290000  0.92890000  0.30430000  1
  C  C473  1  0.18870000  0.55460000  0.29280000  1
  C  C474  1  0.72390000  0.94250000  0.75670000  1
  C  C475  1  0.18860000  0.50030000  0.29190000  1
  C  C476  1  0.71870000  0.89150000  0.76090000  1
  C  C477  1  0.74570000  0.36410000  0.73390000  1
  C  C478  1  0.86460000  0.74850000  0.61070000  1
  C  C479  1  0.95650000  0.19360000  0.51880000  1
  C  C480  1  0.19760000  0.03430000  0.27530000  1
  C  C481  1  0.62240000  0.29280000  0.84960000  1
  C  C482  1  0.90260000  0.19600000  0.56860000  1
  C  C483  1  0.33560000  0.76520000  0.13420000  1
  C  C484  1  0.07020000  0.19080000  0.39860000  1
  C  C485  1  0.19690000  0.39260000  0.27100000  1
  C  C486  1  0.19910000  0.34030000  0.26570000  1
  C  C487  1  0.11850000  0.20410000  0.34530000  1
  C  C488  1  0.42670000  0.71400000  0.03620000  1
  C  C489  1  0.53530000  0.70910000  0.92750000  1
  C  C490  1  0.58750000  0.71480000  0.87300000  1
  C  C491  1  0.27310000  0.77690000  0.18650000  1
  C  C492  1  0.36070000  0.72450000  0.09450000  1
  C  C493  1  0.64870000  0.51610000  0.80150000  1
  C  C494  1  0.66410000  0.99390000  0.78330000  1
  C  C495  1  0.66790000  0.05450000  0.77470000  1
  C  C496  1  0.66120000  0.46540000  0.78100000  1
  C  C497  1  0.66100000  0.88990000  0.78090000  1
  C  C498  1  0.44740000  0.21670000  0.99390000  1
  C  C499  1  0.65330000  0.83730000  0.78050000  1
  C  C500  1  0.13200000  0.98530000  0.29810000  1
  C  C501  1  0.91920000  0.71540000  0.50780000  1
  C  C502  1  0.14070000  0.03620000  0.28600000  1
  C  C503  1  0.15460000  0.66600000  0.27040000  1
  C  C504  1  0.32080000  0.69820000  0.10360000  1
  C  C505  1  0.14940000  0.60790000  0.27450000  1
  C  C506  1  0.48060000  0.24330000  0.94250000  1
  C  C507  1  0.86440000  0.74400000  0.55640000  1
  C  C508  1  0.94980000  0.20590000  0.46650000  1
  C  C509  1  0.48720000  0.69570000  0.92890000  1
  C  C510  1  0.84490000  0.20040000  0.57100000  1
  C  C511  1  0.43010000  0.70190000  0.98530000  1
  C  C512  1  0.14520000  0.50400000  0.26960000  1
  C  C513  1  0.78350000  0.20910000  0.63050000  1
  C  C514  1  0.00450000  0.21300000  0.40860000  1
  C  C515  1  0.60550000  0.99210000  0.80710000  1
  C  C516  1  0.26190000  0.71130000  0.14910000  1
  C  C517  1  0.59960000  0.94000000  0.81120000  1
  C  C518  1  0.14720000  0.44800000  0.26260000  1
  C  C519  1  0.41260000  0.19290000  0.99210000  1
  C  C520  1  0.59780000  0.56680000  0.79920000  1
  C  C521  1  0.61980000  0.10220000  0.77240000  1
  C  C522  1  0.62750000  0.15630000  0.75770000  1
  C  C523  1  0.60520000  0.46860000  0.77340000  1
  C  C524  1  0.47960000  0.23910000  0.89150000  1
  C  C525  1  0.91640000  0.72000000  0.45320000  1
  C  C526  1  0.96980000  0.72640000  0.39660000  1
  C  C527  1  0.11250000  0.60910000  0.24850000  1
  C  C528  1  0.08520000  0.09450000  0.27550000  1
  C  C529  1  0.84300000  0.20420000  0.51760000  1
  C  C530  1  0.89330000  0.20500000  0.46540000  1
  C  C531  1  0.11380000  0.55310000  0.24470000  1
  C  C532  1  0.11160000  0.44620000  0.24080000  1
  C  C533  1  0.11200000  0.39300000  0.23980000  1
  C  C534  1  0.41080000  0.18880000  0.94000000  1
  C  C535  1  0.98750000  0.25000000  0.36160000  1
  C  C536  1  0.03490000  0.25970000  0.31330000  1
  C  C537  1  0.54920000  0.56890000  0.78750000  1
  C  C538  1  0.08200000  0.89580000  0.25360000  1
  C  C539  1  0.10080000  0.13420000  0.23480000  1
  C  C540  1  0.44190000  0.21910000  0.88990000  1
  C  C541  1  0.55540000  0.51920000  0.77200000  1
  C  C542  1  0.66790000  0.79590000  0.65470000  1
  C  C543  1  0.01900000  0.10360000  0.30180000  1
  C  C544  1  0.59620000  0.32870000  0.72130000  1
  C  C545  1  0.86570000  0.71680000  0.44680000  1
  C  C546  1  0.96160000  0.73760000  0.34420000  1
  C  C547  1  0.17530000  0.28520000  0.12700000  1
  C  C548  1  0.60790000  0.74030000  0.68670000  1
  C  C549  1  0.03180000  0.94870000  0.24690000  1
  C  C550  1  0.03820000  0.84730000  0.23870000  1
  C  C551  1  0.49180000  0.63250000  0.78510000  1
  C  C552  1  0.05000000  0.18650000  0.22310000  1
  C  C553  1  0.43380000  0.21950000  0.83730000  1
  C  C554  1  0.97320000  0.14910000  0.28870000  1
  C  C555  1  0.65960000  0.80920000  0.60140000  1
  C  C556  1  0.86190000  0.73170000  0.39270000  1
  C  C557  1  0.53790000  0.39010000  0.71570000  1
  C  C558  1  0.22920000  0.28140000  0.02120000  1
  C  C559  1  0.17190000  0.29090000  0.07250000  1
  C  C560  1  0.59910000  0.75000000  0.63840000  1
  C  C561  1  0.45960000  0.81350000  0.77690000  1
  C  C562  1  0.46980000  0.86580000  0.76520000  1
  C  C563  1  0.50720000  0.96570000  0.72470000  1
  C  C564  1  0.33560000  0.74640000  0.89580000  1
  C  C565  1  0.51060000  0.02120000  0.71860000  1
  C  C566  1  0.54240000  0.44140000  0.68580000  1
  C  C567  1  0.27870000  0.75310000  0.94870000  1
  C  C568  1  0.16800000  0.74450000  0.05750000  1
  C  C569  1  0.47530000  0.38930000  0.74850000  1
  C  C570  1  0.98470000  0.94950000  0.23550000  1
  C  C571  1  0.98680000  0.89860000  0.23160000  1
  C  C572  1  0.11150000  0.74830000  0.10650000  1
  C  C573  1  0.62610000  0.78700000  0.59140000  1
  C  C574  1  0.53940000  0.26570000  0.65970000  1
  C  C575  1  0.23190000  0.27530000  0.96570000  1
  C  C576  1  0.58950000  0.27100000  0.60740000  1
  C  C577  1  0.74330000  0.29280000  0.44540000  1
  C  C578  1  0.68890000  0.29190000  0.49970000  1
  C  C579  1  0.11180000  0.30430000  0.07110000  1
  C  C580  1  0.45520000  0.90550000  0.72450000  1
  C  C581  1  0.46290000  0.96380000  0.71400000  1
  C  C582  1  0.49110000  0.48850000  0.68550000  1
  C  C583  1  0.46050000  0.12700000  0.71480000  1
  C  C584  1  0.46280000  0.07250000  0.70910000  1
  C  C585  1  0.22020000  0.76450000  0.94950000  1
  C  C586  1  0.91250000  0.05750000  0.25550000  1
  C  C587  1  0.15680000  0.77120000  0.00840000  1
  C  C588  1  0.96630000  0.48390000  0.19850000  1
  C  C589  1  0.42080000  0.44360000  0.74400000  1
  C  C590  1  0.96380000  0.43320000  0.20080000  1
  C  C591  1  0.95340000  0.65680000  0.20840000  1
  C  C592  1  0.04400000  0.77840000  0.11380000  1
  C  C593  1  0.92800000  0.00840000  0.22880000  1
  C  C594  1  0.62220000  0.79410000  0.53350000  1
  C  C595  1  0.96060000  0.60290000  0.19510000  1
  C  C596  1  0.82060000  0.27040000  0.33400000  1
  C  C597  1  0.98790000  0.77910000  0.16510000  1
  C  C598  1  0.66890000  0.80640000  0.48120000  1
  C  C599  1  0.75730000  0.27450000  0.39210000  1
  C  C600  1  0.59520000  0.26260000  0.55200000  1
  C  C601  1  0.64920000  0.26960000  0.49600000  1
  C  C602  1  0.42700000  0.49220000  0.71540000  1
  C  C603  1  0.17690000  0.28600000  0.96380000  1
  C  C604  1  0.11730000  0.29810000  0.01470000  1
  C  C605  1  0.90490000  0.58990000  0.22530000  1
  C  C606  1  0.90760000  0.53460000  0.21900000  1
  C  C607  1  0.90940000  0.36750000  0.21490000  1
  C  C608  1  0.27690000  0.76130000  0.84730000  1
  C  C609  1  0.42440000  0.89640000  0.69820000  1
  C  C610  1  0.41100000  0.85090000  0.71130000  1
  C  C611  1  0.84540000  0.68370000  0.27350000  1
  C  C612  1  0.32260000  0.34530000  0.79590000  1
  C  C613  1  0.90560000  0.43110000  0.21250000  1
  C  C614  1  0.41540000  0.01470000  0.70190000  1
  C  C615  1  0.21840000  0.76840000  0.89860000  1
  C  C616  1  0.66690000  0.24470000  0.44690000  1
  C  C617  1  0.72160000  0.24850000  0.39090000  1
  C  C618  1  0.50500000  0.23980000  0.60700000  1
  C  C619  1  0.41610000  0.07110000  0.69570000  1
  C  C620  1  0.55780000  0.24080000  0.55380000  1
  C  C621  1  0.85980000  0.10650000  0.25170000  1
  C  C622  1  0.84370000  0.63590000  0.26610000  1
  C  C623  1  0.09630000  0.79920000  0.01120000  1
  C  C624  1  0.03780000  0.80740000  0.06300000  1
  C  C625  1  0.23500000  0.23480000  0.86580000  1
  C  C626  1  0.66720000  0.80400000  0.43140000  1
  C  C627  1  0.56370000  0.79500000  0.53460000  1
  C  C628  1  0.89550000  0.01120000  0.20080000  1
  C  C629  1  0.79830000  0.87230000  0.29630000  1
  C  C630  1  0.36640000  0.60340000  0.72640000  1
  C  C631  1  0.42500000  0.72960000  0.66600000  1
  C  C632  1  0.36960000  0.54680000  0.72000000  1
  C  C633  1  0.17970000  0.27550000  0.90550000  1
  C  C634  1  0.97780000  0.25360000  0.10420000  1
  C  C635  1  0.84660000  0.48080000  0.22800000  1
  C  C636  1  0.84720000  0.53140000  0.22660000  1
  C  C637  1  0.26100000  0.39860000  0.80920000  1
  C  C638  1  0.23650000  0.22310000  0.81350000  1
  C  C639  1  0.56480000  0.79580000  0.48240000  1
  C  C640  1  0.61630000  0.79960000  0.42900000  1
  C  C641  1  0.82240000  0.11380000  0.22160000  1
  C  C642  1  0.30580000  0.65580000  0.73760000  1
  C  C643  1  0.74090000  0.92560000  0.30000000  1
  C  C644  1  0.74530000  0.97790000  0.29430000  1
  C  C645  1  0.88550000  0.23870000  0.15270000  1
  C  C646  1  0.84520000  0.06300000  0.19260000  1
  C  C647  1  0.48150000  0.70720000  0.55460000  1
  C  C648  1  0.29460000  0.31330000  0.74030000  1
  C  C649  1  0.42390000  0.72550000  0.60790000  1
  C  C650  1  0.98050000  0.24690000  0.05130000  1
  C  C651  1  0.31250000  0.55320000  0.71680000  1
  C  C652  1  0.12260000  0.30180000  0.89640000  1
  C  C653  1  0.03960000  0.70570000  0.97790000  1
  C  C654  1  0.97840000  0.71210000  0.03390000  1
  C  C655  1  0.21750000  0.40860000  0.78700000  1
  N  N656  1  0.24790000  0.65970000  0.74210000  1
  N  N657  1  0.17740000  0.25480000  0.80660000  1
  N  N658  1  0.74390000  0.73960000  0.19500000  1
  N  N659  1  0.17860000  0.15400000  0.75160000  1
  N  N660  1  0.64970000  0.34030000  0.25790000  1
  N  N661  1  0.59180000  0.25240000  0.30420000  1
  N  N662  1  0.14840000  0.74760000  0.69580000  1
  N  N663  1  0.59090000  0.84480000  0.24520000  1
  N  N664  1  0.48350000  0.19500000  0.26040000  1
  N  N665  1  0.40600000  0.75000000  0.33520000  1
  N  N666  1  0.83610000  0.75480000  0.84480000  1
  N  N667  1  0.93890000  0.80500000  0.73960000  1
  N  N668  1  0.99000000  0.25790000  0.65970000  1
  N  N669  1  0.40180000  0.69630000  0.24450000  1
  N  N670  1  0.84420000  0.30420000  0.74760000  1
  N  N671  1  0.43570000  0.24520000  0.15520000  1
  N  N672  1  0.74120000  0.66480000  0.75000000  1
  N  N673  1  0.67850000  0.26040000  0.80500000  1
  N  N674  1  0.68090000  0.15520000  0.75480000  1
  N  N675  1  0.23880000  0.74520000  0.19340000  1
  N  N676  1  0.15600000  0.33520000  0.25000000  1
  N  N677  1  0.09810000  0.24450000  0.30370000  1
  N  N678  1  0.64630000  0.75550000  0.69630000  1
  N  N679  1  0.08420000  0.84600000  0.24840000  1
  N  N680  1  0.90760000  0.74210000  0.34030000  1
  N  N681  1  0.98400000  0.19340000  0.25480000  1
  N  N682  1  0.33260000  0.75160000  0.84600000  1
  N  N683  1  0.43220000  0.80660000  0.74520000  1
  N  N684  1  0.49120000  0.25000000  0.66480000  1
  N  N685  1  0.89600000  0.69580000  0.25240000  1
  N  N686  1  0.34260000  0.30370000  0.75550000  1
  N  N687  1  0.93020000  0.24840000  0.15400000  1
  O  O688  1  0.67200000  0.79120000  0.32600000  1
  O  O689  1  0.74980000  0.21710000  0.24390000  1
  O  O690  1  0.68580000  0.66450000  0.30270000  1
  O  O691  1  0.21080000  0.78290000  0.75610000  1
  O  O692  1  0.28420000  0.20930000  0.67510000  1
  O  O693  1  0.57790000  0.78690000  0.36750000  1
  O  O694  1  0.72630000  0.17010000  0.20290000  1
  O  O695  1  0.08910000  0.70930000  0.82150000  1
  O  O696  1  0.09930000  0.82990000  0.79710000  1
  O  O697  1  0.62390000  0.70900000  0.25520000  1
  O  O698  1  0.22390000  0.22250000  0.63490000  1
  O  O699  1  0.14550000  0.33780000  0.70980000  1
  O  O700  1  0.72410000  0.28750000  0.13050000  1
  O  O701  1  0.08390000  0.29130000  0.74690000  1
  O  O702  1  0.61990000  0.29070000  0.17850000  1
  O  O703  1  0.99800000  0.67400000  0.79120000  1
  O  O704  1  0.96690000  0.24390000  0.78290000  1
  O  O705  1  0.94540000  0.63250000  0.78690000  1
  O  O706  1  0.89640000  0.20290000  0.82990000  1
  O  O707  1  0.01160000  0.13050000  0.71250000  1
  O  O708  1  0.50020000  0.75490000  0.21230000  1
  O  O709  1  0.35030000  0.30270000  0.33550000  1
  O  O710  1  0.46320000  0.32600000  0.20880000  1
  O  O711  1  0.98850000  0.69730000  0.66450000  1
  O  O712  1  0.35790000  0.86990000  0.27610000  1
  O  O713  1  0.33290000  0.25520000  0.29100000  1
  O  O714  1  0.91060000  0.17850000  0.70930000  1
  O  O715  1  0.43370000  0.79840000  0.16600000  1
  O  O716  1  0.87910000  0.74480000  0.70900000  1
  O  O717  1  0.29950000  0.82380000  0.28580000  1
  O  O718  1  0.36480000  0.36750000  0.21310000  1
  O  O719  1  0.63400000  0.72390000  0.86990000  1
  O  O720  1  0.25510000  0.21230000  0.24510000  1
  O  O721  1  0.16860000  0.79070000  0.32490000  1
  O  O722  1  0.19310000  0.66220000  0.29020000  1
  O  O723  1  0.71250000  0.78770000  0.75490000  1
  O  O724  1  0.78920000  0.20880000  0.67400000  1
  O  O725  1  0.08130000  0.77750000  0.36510000  1
  O  O726  1  0.23210000  0.16600000  0.20160000  1
  O  O727  1  0.58530000  0.71420000  0.82380000  1
  O  O728  1  0.59970000  0.83400000  0.79840000  1
  O  O729  1  0.12210000  0.70870000  0.25310000  1
  O  O730  1  0.73230000  0.21310000  0.63250000  1
  O  O731  1  0.22780000  0.27610000  0.13010000  1
  O  O732  1  0.65300000  0.33550000  0.69730000  1
  O  O733  1  0.58810000  0.29100000  0.74480000  1
  O  O734  1  0.12330000  0.28580000  0.17620000  1
  O  O735  1  0.49350000  0.67510000  0.79070000  1
  O  O736  1  0.46740000  0.24510000  0.78770000  1
  O  O737  1  0.39810000  0.20160000  0.83400000  1
  O  O738  1  0.50390000  0.13010000  0.72390000  1
  O  O739  1  0.44640000  0.63490000  0.77750000  1
  O  O740  1  0.99370000  0.75610000  0.21710000  1
  O  O741  1  0.85530000  0.29020000  0.33780000  1
  O  O742  1  0.95930000  0.32490000  0.20930000  1
  O  O743  1  0.48330000  0.70980000  0.66220000  1
  O  O744  1  0.85460000  0.86950000  0.28750000  1
  O  O745  1  0.40910000  0.17620000  0.71420000  1
  O  O746  1  0.83080000  0.25310000  0.29130000  1
  O  O747  1  0.92920000  0.79710000  0.17010000  1
  O  O748  1  0.79840000  0.82150000  0.29070000  1
  O  O749  1  0.37520000  0.74690000  0.70870000  1
  O  O750  1  0.85880000  0.36510000  0.22250000  1
  O  O751  1  0.14210000  0.71250000  0.86950000  1
