# generated using pymatgen
data_Ga3P3O12F
_symmetry_space_group_name_H-M   'P 1'
_cell_length_a   9.31280000
_cell_length_b   9.32270000
_cell_length_c   9.34970000
_cell_angle_alpha   103.17000000
_cell_angle_beta   93.60000000
_cell_angle_gamma   90.14000000
_symmetry_Int_Tables_number   1
_chemical_formula_structural   Ga3P3O12F
_chemical_formula_sum   'Ga6 P6 O24 F2'
_cell_volume   788.71797685
_cell_formula_units_Z   2
loop_
 _symmetry_equiv_pos_site_id
 _symmetry_equiv_pos_as_xyz
  1  'x, y, z'
loop_
 _atom_site_type_symbol
 _atom_site_label
 _atom_site_symmetry_multiplicity
 _atom_site_fract_x
 _atom_site_fract_y
 _atom_site_fract_z
 _atom_site_occupancy
  Ga  Ga0  1  0.15819000  0.62486000  0.42339000  1
  Ga  Ga1  1  0.38698000  0.60375000  0.83507000  1
  Ga  Ga2  1  0.43464000  0.13698000  0.58999000  1
  Ga  Ga3  1  0.56536000  0.86302000  0.41001000  1
  Ga  Ga4  1  0.61302000  0.39625000  0.16493000  1
  Ga  Ga5  1  0.84181000  0.37514000  0.57661000  1
  P  P6  1  0.18078000  0.37569000  0.59385000  1
  P  P7  1  0.35546000  0.83302000  0.64834000  1
  P  P8  1  0.37745000  0.62303000  0.17202000  1
  P  P9  1  0.62255000  0.37697000  0.82798000  1
  P  P10  1  0.64454000  0.16698000  0.35166000  1
  P  P11  1  0.81922000  0.62431000  0.40615000  1
  O  O12  1  0.02730000  0.34340000  0.62890000  1
  O  O13  1  0.17520000  0.44090000  0.45640000  1
  O  O14  1  0.20370000  0.76980000  0.58620000  1
  O  O15  1  0.24550000  0.64640000  0.26260000  1
  O  O16  1  0.24590000  0.48820000  0.72700000  1
  O  O17  1  0.25950000  0.23310000  0.56380000  1
  O  O18  1  0.32130000  0.63590000  0.01860000  1
  O  O19  1  0.34960000  0.99960000  0.68840000  1
  O  O20  1  0.38770000  0.78460000  0.79470000  1
  O  O21  1  0.43300000  0.46740000  0.16450000  1
  O  O22  1  0.46330000  0.76470000  0.53690000  1
  O  O23  1  0.49660000  0.73450000  0.22930000  1
  O  O24  1  0.50340000  0.26550000  0.77070000  1
  O  O25  1  0.53670000  0.23530000  0.46310000  1
  O  O26  1  0.56700000  0.53260000  0.83550000  1
  O  O27  1  0.61230000  0.21540000  0.20530000  1
  O  O28  1  0.65040000  0.00040000  0.31160000  1
  O  O29  1  0.67870000  0.36410000  0.98140000  1
  O  O30  1  0.74050000  0.76690000  0.43620000  1
  O  O31  1  0.75410000  0.51180000  0.27300000  1
  O  O32  1  0.75450000  0.35360000  0.73740000  1
  O  O33  1  0.79630000  0.23020000  0.41380000  1
  O  O34  1  0.82480000  0.55910000  0.54360000  1
  O  O35  1  0.97270000  0.65660000  0.37110000  1
  F  F36  1  0.39000000  0.98300000  0.40930000  1
  F  F37  1  0.61000000  0.01700000  0.59070000  1
