# generated using pymatgen
data_Zn4H28C28N8O5
_symmetry_space_group_name_H-M   'P 1'
_cell_length_a   11.52280000
_cell_length_b   11.52280000
_cell_length_c   25.76920000
_cell_angle_alpha   90.00000000
_cell_angle_beta   90.00000000
_cell_angle_gamma   90.00000000
_symmetry_Int_Tables_number   1
_chemical_formula_structural   Zn4H28C28N8O5
_chemical_formula_sum   'Zn8 H56 C56 N16 O10'
_cell_volume   3421.50346434
_cell_formula_units_Z   2
loop_
 _symmetry_equiv_pos_site_id
 _symmetry_equiv_pos_as_xyz
  1  'x, y, z'
loop_
 _atom_site_type_symbol
 _atom_site_label
 _atom_site_symmetry_multiplicity
 _atom_site_fract_x
 _atom_site_fract_y
 _atom_site_fract_z
 _atom_site_occupancy
  Zn  Zn0  1  0.40139000  0.40139000  0.20782000  1
  Zn  Zn1  1  0.40139000  0.40139000  0.79218000  1
  Zn  Zn2  1  0.40139000  0.59861000  0.29218000  1
  Zn  Zn3  1  0.40139000  0.59861000  0.70782000  1
  Zn  Zn4  1  0.59861000  0.40139000  0.29218000  1
  Zn  Zn5  1  0.59861000  0.40139000  0.70782000  1
  Zn  Zn6  1  0.59861000  0.59861000  0.20782000  1
  Zn  Zn7  1  0.59861000  0.59861000  0.79218000  1
  H  H8  1  0.04120000  0.38940000  0.15560000  1
  H  H9  1  0.04120000  0.38940000  0.84440000  1
  H  H10  1  0.04120000  0.61060000  0.34440000  1
  H  H11  1  0.04120000  0.61060000  0.65560000  1
  H  H12  1  0.09050000  0.28410000  0.18720000  1
  H  H13  1  0.09050000  0.28410000  0.81280000  1
  H  H14  1  0.09050000  0.71590000  0.31280000  1
  H  H15  1  0.09050000  0.71590000  0.68720000  1
  H  H16  1  0.17220000  0.35490000  0.15020000  1
  H  H17  1  0.17220000  0.35490000  0.84980000  1
  H  H18  1  0.17220000  0.64510000  0.34980000  1
  H  H19  1  0.17220000  0.64510000  0.65020000  1
  H  H20  1  0.28410000  0.09050000  0.18720000  1
  H  H21  1  0.28410000  0.09050000  0.81280000  1
  H  H22  1  0.28410000  0.90950000  0.31280000  1
  H  H23  1  0.28410000  0.90950000  0.68720000  1
  H  H24  1  0.35490000  0.17220000  0.15020000  1
  H  H25  1  0.35490000  0.17220000  0.84980000  1
  H  H26  1  0.35490000  0.82780000  0.34980000  1
  H  H27  1  0.35490000  0.82780000  0.65020000  1
  H  H28  1  0.37890000  0.37890000  0.04440000  1
  H  H29  1  0.37890000  0.37890000  0.95560000  1
  H  H30  1  0.37890000  0.62110000  0.45560000  1
  H  H31  1  0.37890000  0.62110000  0.54440000  1
  H  H32  1  0.38940000  0.04120000  0.15560000  1
  H  H33  1  0.38940000  0.04120000  0.84440000  1
  H  H34  1  0.38940000  0.95880000  0.34440000  1
  H  H35  1  0.38940000  0.95880000  0.65560000  1
  H  H36  1  0.61060000  0.04120000  0.34440000  1
  H  H37  1  0.61060000  0.04120000  0.65560000  1
  H  H38  1  0.61060000  0.95880000  0.15560000  1
  H  H39  1  0.61060000  0.95880000  0.84440000  1
  H  H40  1  0.62110000  0.37890000  0.45560000  1
  H  H41  1  0.62110000  0.37890000  0.54440000  1
  H  H42  1  0.62110000  0.62110000  0.04440000  1
  H  H43  1  0.62110000  0.62110000  0.95560000  1
  H  H44  1  0.64510000  0.17220000  0.34980000  1
  H  H45  1  0.64510000  0.17220000  0.65020000  1
  H  H46  1  0.64510000  0.82780000  0.15020000  1
  H  H47  1  0.64510000  0.82780000  0.84980000  1
  H  H48  1  0.71590000  0.09050000  0.31280000  1
  H  H49  1  0.71590000  0.09050000  0.68720000  1
  H  H50  1  0.71590000  0.90950000  0.18720000  1
  H  H51  1  0.71590000  0.90950000  0.81280000  1
  H  H52  1  0.82780000  0.35490000  0.34980000  1
  H  H53  1  0.82780000  0.35490000  0.65020000  1
  H  H54  1  0.82780000  0.64510000  0.15020000  1
  H  H55  1  0.82780000  0.64510000  0.84980000  1
  H  H56  1  0.90950000  0.28410000  0.31280000  1
  H  H57  1  0.90950000  0.28410000  0.68720000  1
  H  H58  1  0.90950000  0.71590000  0.18720000  1
  H  H59  1  0.90950000  0.71590000  0.81280000  1
  H  H60  1  0.95880000  0.38940000  0.34440000  1
  H  H61  1  0.95880000  0.38940000  0.65560000  1
  H  H62  1  0.95880000  0.61060000  0.15560000  1
  H  H63  1  0.95880000  0.61060000  0.84440000  1
  C  C64  1  0.06480000  0.50000000  0.25000000  1
  C  C65  1  0.06480000  0.50000000  0.75000000  1
  C  C66  1  0.10770000  0.35990000  0.17370000  1
  C  C67  1  0.10770000  0.35990000  0.82630000  1
  C  C68  1  0.10770000  0.64010000  0.32630000  1
  C  C69  1  0.10770000  0.64010000  0.67370000  1
  C  C70  1  0.13750000  0.43900000  0.21722000  1
  C  C71  1  0.13750000  0.43900000  0.78278000  1
  C  C72  1  0.13750000  0.56100000  0.28278000  1
  C  C73  1  0.13750000  0.56100000  0.71722000  1
  C  C74  1  0.35990000  0.10770000  0.17370000  1
  C  C75  1  0.35990000  0.10770000  0.82630000  1
  C  C76  1  0.35990000  0.89230000  0.32630000  1
  C  C77  1  0.35990000  0.89230000  0.67370000  1
  C  C78  1  0.42860000  0.42860000  0.02670000  1
  C  C79  1  0.42860000  0.42860000  0.97330000  1
  C  C80  1  0.42860000  0.57140000  0.47330000  1
  C  C81  1  0.42860000  0.57140000  0.52670000  1
  C  C82  1  0.43900000  0.13750000  0.21722000  1
  C  C83  1  0.43900000  0.13750000  0.78278000  1
  C  C84  1  0.43900000  0.86250000  0.28278000  1
  C  C85  1  0.43900000  0.86250000  0.71722000  1
  C  C86  1  0.50000000  0.06480000  0.25000000  1
  C  C87  1  0.50000000  0.06480000  0.75000000  1
  C  C88  1  0.50000000  0.50000000  0.05400000  1
  C  C89  1  0.50000000  0.50000000  0.11190000  1
  C  C90  1  0.50000000  0.50000000  0.38810000  1
  C  C91  1  0.50000000  0.50000000  0.44600000  1
  C  C92  1  0.50000000  0.50000000  0.55400000  1
  C  C93  1  0.50000000  0.50000000  0.61190000  1
  C  C94  1  0.50000000  0.50000000  0.88810000  1
  C  C95  1  0.50000000  0.50000000  0.94600000  1
  C  C96  1  0.50000000  0.93520000  0.25000000  1
  C  C97  1  0.50000000  0.93520000  0.75000000  1
  C  C98  1  0.56100000  0.13750000  0.28278000  1
  C  C99  1  0.56100000  0.13750000  0.71722000  1
  C  C100  1  0.56100000  0.86250000  0.21722000  1
  C  C101  1  0.56100000  0.86250000  0.78278000  1
  C  C102  1  0.57140000  0.42860000  0.47330000  1
  C  C103  1  0.57140000  0.42860000  0.52670000  1
  C  C104  1  0.57140000  0.57140000  0.02670000  1
  C  C105  1  0.57140000  0.57140000  0.97330000  1
  C  C106  1  0.64010000  0.10770000  0.32630000  1
  C  C107  1  0.64010000  0.10770000  0.67370000  1
  C  C108  1  0.64010000  0.89230000  0.17370000  1
  C  C109  1  0.64010000  0.89230000  0.82630000  1
  C  C110  1  0.86250000  0.43900000  0.28278000  1
  C  C111  1  0.86250000  0.43900000  0.71722000  1
  C  C112  1  0.86250000  0.56100000  0.21722000  1
  C  C113  1  0.86250000  0.56100000  0.78278000  1
  C  C114  1  0.89230000  0.35990000  0.32630000  1
  C  C115  1  0.89230000  0.35990000  0.67370000  1
  C  C116  1  0.89230000  0.64010000  0.17370000  1
  C  C117  1  0.89230000  0.64010000  0.82630000  1
  C  C118  1  0.93520000  0.50000000  0.25000000  1
  C  C119  1  0.93520000  0.50000000  0.75000000  1
  N  N120  1  0.24770000  0.46150000  0.22942000  1
  N  N121  1  0.24770000  0.46150000  0.77058000  1
  N  N122  1  0.24770000  0.53850000  0.27058000  1
  N  N123  1  0.24770000  0.53850000  0.72942000  1
  N  N124  1  0.46150000  0.24770000  0.22942000  1
  N  N125  1  0.46150000  0.24770000  0.77058000  1
  N  N126  1  0.46150000  0.75230000  0.27058000  1
  N  N127  1  0.46150000  0.75230000  0.72942000  1
  N  N128  1  0.53850000  0.24770000  0.27058000  1
  N  N129  1  0.53850000  0.24770000  0.72942000  1
  N  N130  1  0.53850000  0.75230000  0.22942000  1
  N  N131  1  0.53850000  0.75230000  0.77058000  1
  N  N132  1  0.75230000  0.46150000  0.27058000  1
  N  N133  1  0.75230000  0.46150000  0.72942000  1
  N  N134  1  0.75230000  0.53850000  0.22942000  1
  N  N135  1  0.75230000  0.53850000  0.77058000  1
  O  O136  1  0.43160000  0.43160000  0.13381000  1
  O  O137  1  0.43160000  0.43160000  0.86619000  1
  O  O138  1  0.43160000  0.56840000  0.36619000  1
  O  O139  1  0.43160000  0.56840000  0.63381000  1
  O  O140  1  0.50000000  0.50000000  0.25000000  1
  O  O141  1  0.50000000  0.50000000  0.75000000  1
  O  O142  1  0.56840000  0.43160000  0.36619000  1
  O  O143  1  0.56840000  0.43160000  0.63381000  1
  O  O144  1  0.56840000  0.56840000  0.13381000  1
  O  O145  1  0.56840000  0.56840000  0.86619000  1
