# generated using pymatgen
data_Zn4H20C37O20
_symmetry_space_group_name_H-M   'P 1'
_cell_length_a   19.03960000
_cell_length_b   19.03960000
_cell_length_c   23.56300000
_cell_angle_alpha   90.00000000
_cell_angle_beta   90.00000000
_cell_angle_gamma   90.00000000
_symmetry_Int_Tables_number   1
_chemical_formula_structural   Zn4H20C37O20
_chemical_formula_sum   'Zn16 H80 C148 O80'
_cell_volume   8541.73755295
_cell_formula_units_Z   4
loop_
 _symmetry_equiv_pos_site_id
 _symmetry_equiv_pos_as_xyz
  1  'x, y, z'
loop_
 _atom_site_type_symbol
 _atom_site_label
 _atom_site_symmetry_multiplicity
 _atom_site_fract_x
 _atom_site_fract_y
 _atom_site_fract_z
 _atom_site_occupancy
  Zn  Zn0  1  0.02708000  0.04886000  0.70397000  1
  Zn  Zn1  1  0.02708000  0.45114000  0.20397000  1
  Zn  Zn2  1  0.04886000  0.02708000  0.20397000  1
  Zn  Zn3  1  0.04886000  0.47292000  0.70397000  1
  Zn  Zn4  1  0.45114000  0.02708000  0.70397000  1
  Zn  Zn5  1  0.45114000  0.47292000  0.20397000  1
  Zn  Zn6  1  0.47292000  0.04886000  0.20397000  1
  Zn  Zn7  1  0.47292000  0.45114000  0.70397000  1
  Zn  Zn8  1  0.52708000  0.54886000  0.29603000  1
  Zn  Zn9  1  0.52708000  0.95114000  0.79603000  1
  Zn  Zn10  1  0.54886000  0.52708000  0.79603000  1
  Zn  Zn11  1  0.54886000  0.97292000  0.29603000  1
  Zn  Zn12  1  0.95114000  0.52708000  0.29603000  1
  Zn  Zn13  1  0.95114000  0.97292000  0.79603000  1
  Zn  Zn14  1  0.97292000  0.54886000  0.79603000  1
  Zn  Zn15  1  0.97292000  0.95114000  0.29603000  1
  H  H16  1  0.01140000  0.24280000  0.27170000  1
  H  H17  1  0.01140000  0.25720000  0.77170000  1
  H  H18  1  0.09520000  0.62700000  0.11570000  1
  H  H19  1  0.09520000  0.87300000  0.61570000  1
  H  H20  1  0.11230000  0.66280000  0.61220000  1
  H  H21  1  0.11230000  0.83720000  0.11220000  1
  H  H22  1  0.12700000  0.59520000  0.38430000  1
  H  H23  1  0.12700000  0.90480000  0.88430000  1
  H  H24  1  0.15590000  0.69800000  0.51450000  1
  H  H25  1  0.15590000  0.80200000  0.01450000  1
  H  H26  1  0.16280000  0.61230000  0.88780000  1
  H  H27  1  0.16280000  0.88770000  0.38780000  1
  H  H28  1  0.18870000  0.70930000  0.93500000  1
  H  H29  1  0.18870000  0.79070000  0.43500000  1
  H  H30  1  0.19800000  0.65590000  0.98550000  1
  H  H31  1  0.19800000  0.84410000  0.48550000  1
  H  H32  1  0.20930000  0.68870000  0.56500000  1
  H  H33  1  0.20930000  0.81130000  0.06500000  1
  H  H34  1  0.24280000  0.01140000  0.77170000  1
  H  H35  1  0.24280000  0.48860000  0.27170000  1
  H  H36  1  0.25720000  0.01140000  0.27170000  1
  H  H37  1  0.25720000  0.48860000  0.77170000  1
  H  H38  1  0.29070000  0.68870000  0.06500000  1
  H  H39  1  0.29070000  0.81130000  0.56500000  1
  H  H40  1  0.30200000  0.65590000  0.48550000  1
  H  H41  1  0.30200000  0.84410000  0.98550000  1
  H  H42  1  0.31130000  0.70930000  0.43500000  1
  H  H43  1  0.31130000  0.79070000  0.93500000  1
  H  H44  1  0.33720000  0.61230000  0.38780000  1
  H  H45  1  0.33720000  0.88770000  0.88780000  1
  H  H46  1  0.34410000  0.69800000  0.01450000  1
  H  H47  1  0.34410000  0.80200000  0.51450000  1
  H  H48  1  0.37300000  0.59520000  0.88430000  1
  H  H49  1  0.37300000  0.90480000  0.38430000  1
  H  H50  1  0.38770000  0.66280000  0.11220000  1
  H  H51  1  0.38770000  0.83720000  0.61220000  1
  H  H52  1  0.40480000  0.62700000  0.61570000  1
  H  H53  1  0.40480000  0.87300000  0.11570000  1
  H  H54  1  0.48860000  0.24280000  0.77170000  1
  H  H55  1  0.48860000  0.25720000  0.27170000  1
  H  H56  1  0.51140000  0.74280000  0.72830000  1
  H  H57  1  0.51140000  0.75720000  0.22830000  1
  H  H58  1  0.59520000  0.12700000  0.88430000  1
  H  H59  1  0.59520000  0.37300000  0.38430000  1
  H  H60  1  0.61230000  0.16280000  0.38780000  1
  H  H61  1  0.61230000  0.33720000  0.88780000  1
  H  H62  1  0.62700000  0.09520000  0.61570000  1
  H  H63  1  0.62700000  0.40480000  0.11570000  1
  H  H64  1  0.65590000  0.19800000  0.48550000  1
  H  H65  1  0.65590000  0.30200000  0.98550000  1
  H  H66  1  0.66280000  0.11230000  0.11220000  1
  H  H67  1  0.66280000  0.38770000  0.61220000  1
  H  H68  1  0.68870000  0.20930000  0.06500000  1
  H  H69  1  0.68870000  0.29070000  0.56500000  1
  H  H70  1  0.69800000  0.15590000  0.01450000  1
  H  H71  1  0.69800000  0.34410000  0.51450000  1
  H  H72  1  0.70930000  0.18870000  0.43500000  1
  H  H73  1  0.70930000  0.31130000  0.93500000  1
  H  H74  1  0.74280000  0.51140000  0.22830000  1
  H  H75  1  0.74280000  0.98860000  0.72830000  1
  H  H76  1  0.75720000  0.51140000  0.72830000  1
  H  H77  1  0.75720000  0.98860000  0.22830000  1
  H  H78  1  0.79070000  0.18870000  0.93500000  1
  H  H79  1  0.79070000  0.31130000  0.43500000  1
  H  H80  1  0.80200000  0.15590000  0.51450000  1
  H  H81  1  0.80200000  0.34410000  0.01450000  1
  H  H82  1  0.81130000  0.20930000  0.56500000  1
  H  H83  1  0.81130000  0.29070000  0.06500000  1
  H  H84  1  0.83720000  0.11230000  0.61220000  1
  H  H85  1  0.83720000  0.38770000  0.11220000  1
  H  H86  1  0.84410000  0.19800000  0.98550000  1
  H  H87  1  0.84410000  0.30200000  0.48550000  1
  H  H88  1  0.87300000  0.09520000  0.11570000  1
  H  H89  1  0.87300000  0.40480000  0.61570000  1
  H  H90  1  0.88770000  0.16280000  0.88780000  1
  H  H91  1  0.88770000  0.33720000  0.38780000  1
  H  H92  1  0.90480000  0.12700000  0.38430000  1
  H  H93  1  0.90480000  0.37300000  0.88430000  1
  H  H94  1  0.98860000  0.74280000  0.22830000  1
  H  H95  1  0.98860000  0.75720000  0.72830000  1
  C  C96  1  0.01160000  0.60760000  0.20296000  1
  C  C97  1  0.01160000  0.89240000  0.70296000  1
  C  C98  1  0.01890000  0.73980000  0.19742000  1
  C  C99  1  0.01890000  0.76020000  0.69742000  1
  C  C100  1  0.03080000  0.62820000  0.70094000  1
  C  C101  1  0.03080000  0.87180000  0.20094000  1
  C  C102  1  0.03640000  0.67460000  0.17524000  1
  C  C103  1  0.03640000  0.82540000  0.67524000  1
  C  C104  1  0.04640000  0.69940000  0.67363000  1
  C  C105  1  0.04640000  0.80060000  0.17363000  1
  C  C106  1  0.08290000  0.67070000  0.13044000  1
  C  C107  1  0.08290000  0.82930000  0.63044000  1
  C  C108  1  0.09340000  0.70340000  0.62810000  1
  C  C109  1  0.09340000  0.79660000  0.12810000  1
  C  C110  1  0.10760000  0.51160000  0.29704000  1
  C  C111  1  0.10760000  0.98840000  0.79704000  1
  C  C112  1  0.11140000  0.73100000  0.10720000  1
  C  C113  1  0.11140000  0.76900000  0.60720000  1
  C  C114  1  0.12820000  0.53080000  0.79906000  1
  C  C115  1  0.12820000  0.96920000  0.29906000  1
  C  C116  1  0.17070000  0.58290000  0.36956000  1
  C  C117  1  0.17070000  0.91710000  0.86956000  1
  C  C118  1  0.17460000  0.53640000  0.32476000  1
  C  C119  1  0.17460000  0.96360000  0.82476000  1
  C  C120  1  0.19080000  0.72181000  0.53751000  1
  C  C121  1  0.19080000  0.77819000  0.03751000  1
  C  C122  1  0.19940000  0.54640000  0.82637000  1
  C  C123  1  0.19940000  0.95360000  0.32637000  1
  C  C124  1  0.20340000  0.59340000  0.87190000  1
  C  C125  1  0.20340000  0.90660000  0.37190000  1
  C  C126  1  0.22181000  0.69080000  0.96249000  1
  C  C127  1  0.22181000  0.80920000  0.46249000  1
  C  C128  1  0.23100000  0.61140000  0.39280000  1
  C  C129  1  0.23100000  0.88860000  0.89280000  1
  C  C130  1  0.23980000  0.51890000  0.30258000  1
  C  C131  1  0.23980000  0.98110000  0.80258000  1
  C  C132  1  0.25000000  0.75000000  0.00000000  1
  C  C133  1  0.25000000  0.75000000  0.50000000  1
  C  C134  1  0.26020000  0.51890000  0.80258000  1
  C  C135  1  0.26020000  0.98110000  0.30258000  1
  C  C136  1  0.26900000  0.61140000  0.89280000  1
  C  C137  1  0.26900000  0.88860000  0.39280000  1
  C  C138  1  0.27819000  0.69080000  0.46249000  1
  C  C139  1  0.27819000  0.80920000  0.96249000  1
  C  C140  1  0.29660000  0.59340000  0.37190000  1
  C  C141  1  0.29660000  0.90660000  0.87190000  1
  C  C142  1  0.30060000  0.54640000  0.32637000  1
  C  C143  1  0.30060000  0.95360000  0.82637000  1
  C  C144  1  0.30920000  0.72181000  0.03751000  1
  C  C145  1  0.30920000  0.77819000  0.53751000  1
  C  C146  1  0.32540000  0.53640000  0.82476000  1
  C  C147  1  0.32540000  0.96360000  0.32476000  1
  C  C148  1  0.32930000  0.58290000  0.86956000  1
  C  C149  1  0.32930000  0.91710000  0.36956000  1
  C  C150  1  0.37180000  0.53080000  0.29906000  1
  C  C151  1  0.37180000  0.96920000  0.79906000  1
  C  C152  1  0.38860000  0.73100000  0.60720000  1
  C  C153  1  0.38860000  0.76900000  0.10720000  1
  C  C154  1  0.39240000  0.51160000  0.79704000  1
  C  C155  1  0.39240000  0.98840000  0.29704000  1
  C  C156  1  0.40660000  0.70340000  0.12810000  1
  C  C157  1  0.40660000  0.79660000  0.62810000  1
  C  C158  1  0.41710000  0.67070000  0.63044000  1
  C  C159  1  0.41710000  0.82930000  0.13044000  1
  C  C160  1  0.45360000  0.69940000  0.17363000  1
  C  C161  1  0.45360000  0.80060000  0.67363000  1
  C  C162  1  0.46360000  0.67460000  0.67524000  1
  C  C163  1  0.46360000  0.82540000  0.17524000  1
  C  C164  1  0.46920000  0.62820000  0.20094000  1
  C  C165  1  0.46920000  0.87180000  0.70094000  1
  C  C166  1  0.48110000  0.73980000  0.69742000  1
  C  C167  1  0.48110000  0.76020000  0.19742000  1
  C  C168  1  0.48840000  0.60760000  0.70296000  1
  C  C169  1  0.48840000  0.89240000  0.20296000  1
  C  C170  1  0.51160000  0.10760000  0.79704000  1
  C  C171  1  0.51160000  0.39240000  0.29704000  1
  C  C172  1  0.51890000  0.23980000  0.80258000  1
  C  C173  1  0.51890000  0.26020000  0.30258000  1
  C  C174  1  0.53080000  0.12820000  0.29906000  1
  C  C175  1  0.53080000  0.37180000  0.79906000  1
  C  C176  1  0.53640000  0.17460000  0.82476000  1
  C  C177  1  0.53640000  0.32540000  0.32476000  1
  C  C178  1  0.54640000  0.19940000  0.32637000  1
  C  C179  1  0.54640000  0.30060000  0.82637000  1
  C  C180  1  0.58290000  0.17070000  0.86956000  1
  C  C181  1  0.58290000  0.32930000  0.36956000  1
  C  C182  1  0.59340000  0.20340000  0.37190000  1
  C  C183  1  0.59340000  0.29660000  0.87190000  1
  C  C184  1  0.60760000  0.01160000  0.70296000  1
  C  C185  1  0.60760000  0.48840000  0.20296000  1
  C  C186  1  0.61140000  0.23100000  0.89280000  1
  C  C187  1  0.61140000  0.26900000  0.39280000  1
  C  C188  1  0.62820000  0.03080000  0.20094000  1
  C  C189  1  0.62820000  0.46920000  0.70094000  1
  C  C190  1  0.67070000  0.08290000  0.63044000  1
  C  C191  1  0.67070000  0.41710000  0.13044000  1
  C  C192  1  0.67460000  0.03640000  0.67524000  1
  C  C193  1  0.67460000  0.46360000  0.17524000  1
  C  C194  1  0.69080000  0.22181000  0.46249000  1
  C  C195  1  0.69080000  0.27819000  0.96249000  1
  C  C196  1  0.69940000  0.04640000  0.17363000  1
  C  C197  1  0.69940000  0.45360000  0.67363000  1
  C  C198  1  0.70340000  0.09340000  0.12810000  1
  C  C199  1  0.70340000  0.40660000  0.62810000  1
  C  C200  1  0.72181000  0.19080000  0.03751000  1
  C  C201  1  0.72181000  0.30920000  0.53751000  1
  C  C202  1  0.73100000  0.11140000  0.60720000  1
  C  C203  1  0.73100000  0.38860000  0.10720000  1
  C  C204  1  0.73980000  0.01890000  0.69742000  1
  C  C205  1  0.73980000  0.48110000  0.19742000  1
  C  C206  1  0.75000000  0.25000000  0.00000000  1
  C  C207  1  0.75000000  0.25000000  0.50000000  1
  C  C208  1  0.76020000  0.01890000  0.19742000  1
  C  C209  1  0.76020000  0.48110000  0.69742000  1
  C  C210  1  0.76900000  0.11140000  0.10720000  1
  C  C211  1  0.76900000  0.38860000  0.60720000  1
  C  C212  1  0.77819000  0.19080000  0.53751000  1
  C  C213  1  0.77819000  0.30920000  0.03751000  1
  C  C214  1  0.79660000  0.09340000  0.62810000  1
  C  C215  1  0.79660000  0.40660000  0.12810000  1
  C  C216  1  0.80060000  0.04640000  0.67363000  1
  C  C217  1  0.80060000  0.45360000  0.17363000  1
  C  C218  1  0.80920000  0.22181000  0.96249000  1
  C  C219  1  0.80920000  0.27819000  0.46249000  1
  C  C220  1  0.82540000  0.03640000  0.17524000  1
  C  C221  1  0.82540000  0.46360000  0.67524000  1
  C  C222  1  0.82930000  0.08290000  0.13044000  1
  C  C223  1  0.82930000  0.41710000  0.63044000  1
  C  C224  1  0.87180000  0.03080000  0.70094000  1
  C  C225  1  0.87180000  0.46920000  0.20094000  1
  C  C226  1  0.88860000  0.23100000  0.39280000  1
  C  C227  1  0.88860000  0.26900000  0.89280000  1
  C  C228  1  0.89240000  0.01160000  0.20296000  1
  C  C229  1  0.89240000  0.48840000  0.70296000  1
  C  C230  1  0.90660000  0.20340000  0.87190000  1
  C  C231  1  0.90660000  0.29660000  0.37190000  1
  C  C232  1  0.91710000  0.17070000  0.36956000  1
  C  C233  1  0.91710000  0.32930000  0.86956000  1
  C  C234  1  0.95360000  0.19940000  0.82637000  1
  C  C235  1  0.95360000  0.30060000  0.32637000  1
  C  C236  1  0.96360000  0.17460000  0.32476000  1
  C  C237  1  0.96360000  0.32540000  0.82476000  1
  C  C238  1  0.96920000  0.12820000  0.79906000  1
  C  C239  1  0.96920000  0.37180000  0.29906000  1
  C  C240  1  0.98110000  0.23980000  0.30258000  1
  C  C241  1  0.98110000  0.26020000  0.80258000  1
  C  C242  1  0.98840000  0.10760000  0.29704000  1
  C  C243  1  0.98840000  0.39240000  0.79704000  1
  O  O244  1  0.00913000  0.12959000  0.75716000  1
  O  O245  1  0.00913000  0.37041000  0.25716000  1
  O  O246  1  0.02290000  0.11396000  0.25153000  1
  O  O247  1  0.02290000  0.38604000  0.75153000  1
  O  O248  1  0.02668000  0.55161000  0.17855000  1
  O  O249  1  0.02668000  0.94839000  0.67855000  1
  O  O250  1  0.05161000  0.52668000  0.32145000  1
  O  O251  1  0.05161000  0.97332000  0.82145000  1
  O  O252  1  0.05743000  0.57611000  0.67802000  1
  O  O253  1  0.05743000  0.92389000  0.17802000  1
  O  O254  1  0.07611000  0.55743000  0.82198000  1
  O  O255  1  0.07611000  0.94257000  0.32198000  1
  O  O256  1  0.11396000  0.02290000  0.75153000  1
  O  O257  1  0.11396000  0.47710000  0.25153000  1
  O  O258  1  0.12959000  0.00913000  0.25716000  1
  O  O259  1  0.12959000  0.49087000  0.75716000  1
  O  O260  1  0.16035000  0.71993000  0.06550000  1
  O  O261  1  0.16035000  0.78007000  0.56550000  1
  O  O262  1  0.21993000  0.66035000  0.43450000  1
  O  O263  1  0.21993000  0.83965000  0.93450000  1
  O  O264  1  0.28007000  0.66035000  0.93450000  1
  O  O265  1  0.28007000  0.83965000  0.43450000  1
  O  O266  1  0.33965000  0.71993000  0.56550000  1
  O  O267  1  0.33965000  0.78007000  0.06550000  1
  O  O268  1  0.37041000  0.00913000  0.75716000  1
  O  O269  1  0.37041000  0.49087000  0.25716000  1
  O  O270  1  0.38604000  0.02290000  0.25153000  1
  O  O271  1  0.38604000  0.47710000  0.75153000  1
  O  O272  1  0.42389000  0.55743000  0.32198000  1
  O  O273  1  0.42389000  0.94257000  0.82198000  1
  O  O274  1  0.44257000  0.57611000  0.17802000  1
  O  O275  1  0.44257000  0.92389000  0.67802000  1
  O  O276  1  0.44839000  0.52668000  0.82145000  1
  O  O277  1  0.44839000  0.97332000  0.32145000  1
  O  O278  1  0.47332000  0.55161000  0.67855000  1
  O  O279  1  0.47332000  0.94839000  0.17855000  1
  O  O280  1  0.47710000  0.11396000  0.75153000  1
  O  O281  1  0.47710000  0.38604000  0.25153000  1
  O  O282  1  0.49087000  0.12959000  0.25716000  1
  O  O283  1  0.49087000  0.37041000  0.75716000  1
  O  O284  1  0.50913000  0.62959000  0.24284000  1
  O  O285  1  0.50913000  0.87041000  0.74284000  1
  O  O286  1  0.52290000  0.61396000  0.74847000  1
  O  O287  1  0.52290000  0.88604000  0.24847000  1
  O  O288  1  0.52668000  0.05161000  0.82145000  1
  O  O289  1  0.52668000  0.44839000  0.32145000  1
  O  O290  1  0.55161000  0.02668000  0.67855000  1
  O  O291  1  0.55161000  0.47332000  0.17855000  1
  O  O292  1  0.55743000  0.07611000  0.32198000  1
  O  O293  1  0.55743000  0.42389000  0.82198000  1
  O  O294  1  0.57611000  0.05743000  0.17802000  1
  O  O295  1  0.57611000  0.44257000  0.67802000  1
  O  O296  1  0.61396000  0.52290000  0.24847000  1
  O  O297  1  0.61396000  0.97710000  0.74847000  1
  O  O298  1  0.62959000  0.50913000  0.74284000  1
  O  O299  1  0.62959000  0.99087000  0.24284000  1
  O  O300  1  0.66035000  0.21993000  0.93450000  1
  O  O301  1  0.66035000  0.28007000  0.43450000  1
  O  O302  1  0.71993000  0.16035000  0.56550000  1
  O  O303  1  0.71993000  0.33965000  0.06550000  1
  O  O304  1  0.78007000  0.16035000  0.06550000  1
  O  O305  1  0.78007000  0.33965000  0.56550000  1
  O  O306  1  0.83965000  0.21993000  0.43450000  1
  O  O307  1  0.83965000  0.28007000  0.93450000  1
  O  O308  1  0.87041000  0.50913000  0.24284000  1
  O  O309  1  0.87041000  0.99087000  0.74284000  1
  O  O310  1  0.88604000  0.52290000  0.74847000  1
  O  O311  1  0.88604000  0.97710000  0.24847000  1
  O  O312  1  0.92389000  0.05743000  0.67802000  1
  O  O313  1  0.92389000  0.44257000  0.17802000  1
  O  O314  1  0.94257000  0.07611000  0.82198000  1
  O  O315  1  0.94257000  0.42389000  0.32198000  1
  O  O316  1  0.94839000  0.02668000  0.17855000  1
  O  O317  1  0.94839000  0.47332000  0.67855000  1
  O  O318  1  0.97332000  0.05161000  0.32145000  1
  O  O319  1  0.97332000  0.44839000  0.82145000  1
  O  O320  1  0.97710000  0.61396000  0.24847000  1
  O  O321  1  0.97710000  0.88604000  0.74847000  1
  O  O322  1  0.99087000  0.62959000  0.74284000  1
  O  O323  1  0.99087000  0.87041000  0.24284000  1
