# generated using pymatgen
data_Cd3H48(C3O)16
_symmetry_space_group_name_H-M   'P 1'
_cell_length_a   9.85230000
_cell_length_b   19.52440000
_cell_length_c   19.66990000
_cell_angle_alpha   89.71500000
_cell_angle_beta   83.05800000
_cell_angle_gamma   87.77600000
_symmetry_Int_Tables_number   1
_chemical_formula_structural   Cd3H48(C3O)16
_chemical_formula_sum   'Cd6 H96 C96 O32'
_cell_volume   3753.13914849
_cell_formula_units_Z   2
loop_
 _symmetry_equiv_pos_site_id
 _symmetry_equiv_pos_as_xyz
  1  'x, y, z'
loop_
 _atom_site_type_symbol
 _atom_site_label
 _atom_site_symmetry_multiplicity
 _atom_site_fract_x
 _atom_site_fract_y
 _atom_site_fract_z
 _atom_site_occupancy
  Cd  Cd0  1  0.00000000  0.00000000  0.00000000  1
  Cd  Cd1  1  0.00000000  0.50000000  0.50000000  1
  Cd  Cd2  1  0.00076000  0.84584000  0.92316000  1
  Cd  Cd3  1  0.06366000  0.57392000  0.34431000  1
  Cd  Cd4  1  0.93634000  0.42608000  0.65569000  1
  Cd  Cd5  1  0.99924000  0.15416000  0.07684000  1
  H  H6  1  0.00010000  0.34110000  0.43240000  1
  H  H7  1  0.00520000  0.92750000  0.15270000  1
  H  H8  1  0.01210000  0.98920000  0.37970000  1
  H  H9  1  0.01490000  0.89010000  0.51380000  1
  H  H10  1  0.01590000  0.35530000  0.22630000  1
  H  H11  1  0.03080000  0.81650000  0.32300000  1
  H  H12  1  0.04620000  0.82600000  0.67840000  1
  H  H13  1  0.05080000  0.72480000  0.14110000  1
  H  H14  1  0.06640000  0.11970000  0.41340000  1
  H  H15  1  0.06850000  0.07840000  0.62040000  1
  H  H16  1  0.08290000  0.19700000  0.53390000  1
  H  H17  1  0.09180000  0.27030000  0.50120000  1
  H  H18  1  0.09190000  0.91820000  0.36950000  1
  H  H19  1  0.09370000  0.88210000  0.57820000  1
  H  H20  1  0.09980000  0.04400000  0.28100000  1
  H  H21  1  0.10510000  0.96260000  0.70110000  1
  H  H22  1  0.11510000  0.00050000  0.77030000  1
  H  H23  1  0.11600000  0.00500000  0.21090000  1
  H  H24  1  0.15330000  0.79450000  0.45920000  1
  H  H25  1  0.15930000  0.72370000  0.49700000  1
  H  H26  1  0.17660000  0.20840000  0.46480000  1
  H  H27  1  0.19170000  0.02820000  0.70180000  1
  H  H28  1  0.20770000  0.98290000  0.26760000  1
  H  H29  1  0.23110000  0.78670000  0.52400000  1
  H  H30  1  0.25890000  0.14920000  0.87320000  1
  H  H31  1  0.26880000  0.38590000  0.45910000  1
  H  H32  1  0.27730000  0.04480000  0.88590000  1
  H  H33  1  0.30680000  0.39290000  0.34850000  1
  H  H34  1  0.31460000  0.68690000  0.63740000  1
  H  H35  1  0.31970000  0.60740000  0.55860000  1
  H  H36  1  0.32170000  0.15200000  0.79620000  1
  H  H37  1  0.32410000  0.93950000  0.10620000  1
  H  H38  1  0.32510000  0.31290000  0.34400000  1
  H  H39  1  0.32750000  0.21590000  0.84350000  1
  H  H40  1  0.33530000  0.84400000  0.14280000  1
  H  H41  1  0.34150000  0.57810000  0.65630000  1
  H  H42  1  0.35840000  0.16730000  0.95400000  1
  H  H43  1  0.38390000  0.85110000  0.21540000  1
  H  H44  1  0.38550000  0.35840000  0.28260000  1
  H  H45  1  0.38820000  0.71000000  0.69930000  1
  H  H46  1  0.39680000  0.60120000  0.72370000  1
  H  H47  1  0.41700000  0.78320000  0.17340000  1
  H  H48  1  0.43250000  0.73890000  0.62580000  1
  H  H49  1  0.43550000  0.22900000  0.91820000  1
  H  H50  1  0.45300000  0.43420000  0.62200000  1
  H  H51  1  0.47810000  0.54490000  0.67700000  1
  H  H52  1  0.48310000  0.82830000  0.04580000  1
  H  H53  1  0.49210000  0.11950000  0.06760000  1
  H  H54  1  0.50790000  0.88050000  0.93240000  1
  H  H55  1  0.51690000  0.17170000  0.95420000  1
  H  H56  1  0.52190000  0.45510000  0.32300000  1
  H  H57  1  0.54700000  0.56580000  0.37800000  1
  H  H58  1  0.56450000  0.77100000  0.08180000  1
  H  H59  1  0.56750000  0.26110000  0.37420000  1
  H  H60  1  0.58300000  0.21680000  0.82660000  1
  H  H61  1  0.60320000  0.39880000  0.27630000  1
  H  H62  1  0.61180000  0.29000000  0.30070000  1
  H  H63  1  0.61450000  0.64160000  0.71740000  1
  H  H64  1  0.61610000  0.14890000  0.78460000  1
  H  H65  1  0.64160000  0.83270000  0.04600000  1
  H  H66  1  0.65850000  0.42190000  0.34370000  1
  H  H67  1  0.66470000  0.15600000  0.85720000  1
  H  H68  1  0.67250000  0.78410000  0.15650000  1
  H  H69  1  0.67490000  0.68710000  0.65600000  1
  H  H70  1  0.67590000  0.06050000  0.89380000  1
  H  H71  1  0.67830000  0.84800000  0.20380000  1
  H  H72  1  0.68030000  0.39260000  0.44140000  1
  H  H73  1  0.68540000  0.31310000  0.36260000  1
  H  H74  1  0.69320000  0.60710000  0.65150000  1
  H  H75  1  0.72270000  0.95520000  0.11410000  1
  H  H76  1  0.73120000  0.61410000  0.54090000  1
  H  H77  1  0.74110000  0.85080000  0.12680000  1
  H  H78  1  0.76890000  0.21330000  0.47600000  1
  H  H79  1  0.79230000  0.01710000  0.73240000  1
  H  H80  1  0.80830000  0.97180000  0.29820000  1
  H  H81  1  0.82340000  0.79160000  0.53520000  1
  H  H82  1  0.84070000  0.27630000  0.50300000  1
  H  H83  1  0.84670000  0.20550000  0.54080000  1
  H  H84  1  0.88400000  0.99500000  0.78910000  1
  H  H85  1  0.88490000  0.99950000  0.22970000  1
  H  H86  1  0.89490000  0.03740000  0.29890000  1
  H  H87  1  0.90020000  0.95600000  0.71900000  1
  H  H88  1  0.90630000  0.11790000  0.42180000  1
  H  H89  1  0.90810000  0.08180000  0.63050000  1
  H  H90  1  0.90820000  0.72970000  0.49880000  1
  H  H91  1  0.91710000  0.80300000  0.46610000  1
  H  H92  1  0.93150000  0.92160000  0.37960000  1
  H  H93  1  0.93360000  0.88030000  0.58660000  1
  H  H94  1  0.94920000  0.27520000  0.85890000  1
  H  H95  1  0.95380000  0.17400000  0.32160000  1
  H  H96  1  0.96920000  0.18350000  0.67700000  1
  H  H97  1  0.98410000  0.64470000  0.77370000  1
  H  H98  1  0.98510000  0.10990000  0.48620000  1
  H  H99  1  0.98790000  0.01080000  0.62030000  1
  H  H100  1  0.99480000  0.07250000  0.84730000  1
  H  H101  1  0.99990000  0.65890000  0.56760000  1
  C  C102  1  0.00290000  0.67990000  0.60980000  1
  C  C103  1  0.00550000  0.32930000  0.26630000  1
  C  C104  1  0.00760000  0.83230000  0.06250000  1
  C  C105  1  0.00940000  0.35990000  0.32990000  1
  C  C106  1  0.01110000  0.95010000  0.28840000  1
  C  C107  1  0.01200000  0.94430000  0.36010000  1
  C  C108  1  0.01430000  0.74130000  0.73620000  1
  C  C109  1  0.01600000  0.86790000  0.55740000  1
  C  C110  1  0.01610000  0.77770000  0.80400000  1
  C  C111  1  0.01610000  0.88590000  0.17500000  1
  C  C112  1  0.01930000  0.74920000  0.61260000  1
  C  C113  1  0.02410000  0.82700000  0.13880000  1
  C  C114  1  0.02420000  0.88510000  0.24640000  1
  C  C115  1  0.02560000  0.79240000  0.54760000  1
  C  C116  1  0.02930000  0.77960000  0.67630000  1
  C  C117  1  0.03340000  0.43440000  0.33260000  1
  C  C118  1  0.03410000  0.81960000  0.27570000  1
  C  C119  1  0.04250000  0.76420000  0.16800000  1
  C  C120  1  0.04860000  0.75950000  0.23810000  1
  C  C121  1  0.06680000  0.69340000  0.27400000  1
  C  C122  1  0.09200000  0.22210000  0.49160000  1
  C  C123  1  0.11100000  0.00650000  0.72210000  1
  C  C124  1  0.11900000  0.00020000  0.25930000  1
  C  C125  1  0.15400000  0.77260000  0.50300000  1
  C  C126  1  0.20520000  0.41730000  0.58800000  1
  C  C127  1  0.24760000  0.91530000  0.91630000  1
  C  C128  1  0.24880000  0.06280000  0.07360000  1
  C  C129  1  0.28020000  0.57120000  0.43550000  1
  C  C130  1  0.33200000  0.16670000  0.84170000  1
  C  C131  1  0.34290000  0.41090000  0.54660000  1
  C  C132  1  0.34890000  0.39200000  0.47860000  1
  C  C133  1  0.36250000  0.02510000  0.89180000  1
  C  C134  1  0.36700000  0.35540000  0.33160000  1
  C  C135  1  0.37390000  0.95520000  0.91060000  1
  C  C136  1  0.38720000  0.03480000  0.08490000  1
  C  C137  1  0.40000000  0.69940000  0.65130000  1
  C  C138  1  0.40130000  0.96590000  0.10350000  1
  C  C139  1  0.40480000  0.60400000  0.53240000  1
  C  C140  1  0.40700000  0.83210000  0.17030000  1
  C  C141  1  0.41210000  0.58380000  0.46280000  1
  C  C142  1  0.42200000  0.58640000  0.67730000  1
  C  C143  1  0.44200000  0.18090000  0.92810000  1
  C  C144  1  0.45950000  0.42230000  0.57600000  1
  C  C145  1  0.46580000  0.14040000  0.86090000  1
  C  C146  1  0.47930000  0.06510000  0.88210000  1
  C  C147  1  0.48140000  0.38150000  0.43790000  1
  C  C148  1  0.49800000  0.35860000  0.36210000  1
  C  C149  1  0.50000000  0.07330000  0.07890000  1
  C  C150  1  0.50000000  0.92670000  0.92110000  1
  C  C151  1  0.50200000  0.64140000  0.63790000  1
  C  C152  1  0.51860000  0.61850000  0.56210000  1
  C  C153  1  0.52070000  0.93490000  0.11790000  1
  C  C154  1  0.53420000  0.85960000  0.13910000  1
  C  C155  1  0.54050000  0.57770000  0.42400000  1
  C  C156  1  0.55800000  0.81910000  0.07190000  1
  C  C157  1  0.57800000  0.41360000  0.32270000  1
  C  C158  1  0.58790000  0.41620000  0.53720000  1
  C  C159  1  0.59300000  0.16790000  0.82970000  1
  C  C160  1  0.59520000  0.39600000  0.46760000  1
  C  C161  1  0.59870000  0.03410000  0.89650000  1
  C  C162  1  0.60000000  0.30060000  0.34870000  1
  C  C163  1  0.61280000  0.96520000  0.91510000  1
  C  C164  1  0.62610000  0.04480000  0.08940000  1
  C  C165  1  0.63300000  0.64460000  0.66840000  1
  C  C166  1  0.63750000  0.97490000  0.10820000  1
  C  C167  1  0.65110000  0.60800000  0.52140000  1
  C  C168  1  0.65710000  0.58910000  0.45340000  1
  C  C169  1  0.66800000  0.83330000  0.15830000  1
  C  C170  1  0.71980000  0.42880000  0.56450000  1
  C  C171  1  0.75120000  0.93720000  0.92640000  1
  C  C172  1  0.75240000  0.08470000  0.08370000  1
  C  C173  1  0.79480000  0.58270000  0.41200000  1
  C  C174  1  0.84600000  0.22740000  0.49700000  1
  C  C175  1  0.88100000  0.99980000  0.74070000  1
  C  C176  1  0.88900000  0.99350000  0.27790000  1
  C  C177  1  0.90800000  0.77790000  0.50840000  1
  C  C178  1  0.93320000  0.30660000  0.72600000  1
  C  C179  1  0.95140000  0.24050000  0.76190000  1
  C  C180  1  0.95750000  0.23580000  0.83200000  1
  C  C181  1  0.96590000  0.18040000  0.72430000  1
  C  C182  1  0.96660000  0.56560000  0.66740000  1
  C  C183  1  0.97070000  0.22040000  0.32370000  1
  C  C184  1  0.97440000  0.20760000  0.45240000  1
  C  C185  1  0.97580000  0.11490000  0.75360000  1
  C  C186  1  0.97590000  0.17300000  0.86120000  1
  C  C187  1  0.98070000  0.25080000  0.38740000  1
  C  C188  1  0.98390000  0.11410000  0.82500000  1
  C  C189  1  0.98390000  0.22230000  0.19600000  1
  C  C190  1  0.98400000  0.13210000  0.44260000  1
  C  C191  1  0.98570000  0.25870000  0.26380000  1
  C  C192  1  0.98800000  0.05570000  0.63990000  1
  C  C193  1  0.98890000  0.04990000  0.71160000  1
  C  C194  1  0.99060000  0.64010000  0.67010000  1
  C  C195  1  0.99240000  0.16770000  0.93750000  1
  C  C196  1  0.99450000  0.67070000  0.73370000  1
  C  C197  1  0.99710000  0.32010000  0.39020000  1
  O  O198  1  0.00300000  0.74360000  0.85890000  1
  O  O199  1  0.01740000  0.10930000  0.96230000  1
  O  O200  1  0.02170000  0.77900000  0.02570000  1
  O  O201  1  0.02790000  0.83980000  0.80350000  1
  O  O202  1  0.04550000  0.47130000  0.28120000  1
  O  O203  1  0.04800000  0.45840000  0.39230000  1
  O  O204  1  0.05990000  0.63700000  0.24090000  1
  O  O205  1  0.07390000  0.69350000  0.33680000  1
  O  O206  1  0.09930000  0.41360000  0.55640000  1
  O  O207  1  0.13090000  0.94560000  0.91150000  1
  O  O208  1  0.16160000  0.01940000  0.06490000  1
  O  O209  1  0.17980000  0.56550000  0.47850000  1
  O  O210  1  0.20150000  0.42270000  0.65020000  1
  O  O211  1  0.22470000  0.12720000  0.07280000  1
  O  O212  1  0.26090000  0.85060000  0.92530000  1
  O  O213  1  0.27610000  0.56960000  0.37040000  1
  O  O214  1  0.72390000  0.43040000  0.62960000  1
  O  O215  1  0.73910000  0.14940000  0.07470000  1
  O  O216  1  0.77530000  0.87280000  0.92720000  1
  O  O217  1  0.79850000  0.57730000  0.34980000  1
  O  O218  1  0.82020000  0.43450000  0.52150000  1
  O  O219  1  0.83840000  0.98060000  0.93510000  1
  O  O220  1  0.86910000  0.05440000  0.08850000  1
  O  O221  1  0.90070000  0.58640000  0.44360000  1
  O  O222  1  0.92610000  0.30650000  0.66320000  1
  O  O223  1  0.94010000  0.36300000  0.75910000  1
  O  O224  1  0.95200000  0.54160000  0.60770000  1
  O  O225  1  0.95450000  0.52870000  0.71880000  1
  O  O226  1  0.97210000  0.16020000  0.19650000  1
  O  O227  1  0.97830000  0.22100000  0.97430000  1
  O  O228  1  0.98260000  0.89070000  0.03770000  1
  O  O229  1  0.99700000  0.25640000  0.14110000  1
