# generated using pymatgen
data_ZnH9C16NO4F
_symmetry_space_group_name_H-M   'P 1'
_cell_length_a   10.88500000
_cell_length_b   10.93000000
_cell_length_c   18.51800000
_cell_angle_alpha   87.42000000
_cell_angle_beta   84.99000000
_cell_angle_gamma   70.57000000
_symmetry_Int_Tables_number   1
_chemical_formula_structural   ZnH9C16NO4F
_chemical_formula_sum   'Zn4 H36 C64 N4 O16 F4'
_cell_volume   2069.43424621
_cell_formula_units_Z   4
loop_
 _symmetry_equiv_pos_site_id
 _symmetry_equiv_pos_as_xyz
  1  'x, y, z'
loop_
 _atom_site_type_symbol
 _atom_site_label
 _atom_site_symmetry_multiplicity
 _atom_site_fract_x
 _atom_site_fract_y
 _atom_site_fract_z
 _atom_site_occupancy
  Zn  Zn0  1  0.31858000  0.23809000  0.73963000  1
  Zn  Zn1  1  0.34332000  0.24176000  0.57692000  1
  Zn  Zn2  1  0.65668000  0.75824000  0.42308000  1
  Zn  Zn3  1  0.68142000  0.76191000  0.26037000  1
  H  H4  1  0.04050000  0.75650000  0.44270000  1
  H  H5  1  0.09080000  0.75020000  0.22540000  1
  H  H6  1  0.12190000  0.36360000  0.98990000  1
  H  H7  1  0.12890000  0.34690000  0.86600000  1
  H  H8  1  0.23990000  0.78970000  0.44830000  1
  H  H9  1  0.28850000  0.78590000  0.23090000  1
  H  H10  1  0.30440000  0.45470000  0.33060000  1
  H  H11  1  0.30900000  0.62880000  0.76300000  1
  H  H12  1  0.31670000  0.43760000  0.45370000  1
  H  H13  1  0.32150000  0.83940000  0.76490000  1
  H  H14  1  0.33860000  0.07540000  0.33180000  1
  H  H15  1  0.35010000  0.06950000  0.45380000  1
  H  H16  1  0.36060000  0.63320000  0.54490000  1
  H  H17  1  0.36650000  0.84350000  0.54600000  1
  H  H18  1  0.44210000  0.08460000  0.09450000  1
  H  H19  1  0.44790000  0.08700000  0.21780000  1
  H  H20  1  0.49400000  0.83860000  0.01910000  1
  H  H21  1  0.49820000  0.84700000  0.14320000  1
  H  H22  1  0.50180000  0.15300000  0.85680000  1
  H  H23  1  0.50600000  0.16140000  0.98090000  1
  H  H24  1  0.55210000  0.91300000  0.78220000  1
  H  H25  1  0.55790000  0.91540000  0.90550000  1
  H  H26  1  0.63350000  0.15650000  0.45400000  1
  H  H27  1  0.63940000  0.36680000  0.45510000  1
  H  H28  1  0.64990000  0.93050000  0.54620000  1
  H  H29  1  0.66140000  0.92460000  0.66820000  1
  H  H30  1  0.67850000  0.16060000  0.23510000  1
  H  H31  1  0.68330000  0.56240000  0.54630000  1
  H  H32  1  0.69100000  0.37120000  0.23700000  1
  H  H33  1  0.69560000  0.54530000  0.66940000  1
  H  H34  1  0.71150000  0.21410000  0.76910000  1
  H  H35  1  0.76010000  0.21030000  0.55170000  1
  H  H36  1  0.87110000  0.65310000  0.13400000  1
  H  H37  1  0.87810000  0.63640000  0.01010000  1
  H  H38  1  0.90920000  0.24980000  0.77460000  1
  H  H39  1  0.95950000  0.24350000  0.55730000  1
  C  C40  1  0.04680000  0.74860000  0.33420000  1
  C  C41  1  0.08460000  0.27080000  0.66910000  1
  C  C42  1  0.09100000  0.76120000  0.40020000  1
  C  C43  1  0.12060000  0.75770000  0.27000000  1
  C  C44  1  0.20000000  0.31790000  0.96440000  1
  C  C45  1  0.20490000  0.30800000  0.88940000  1
  C  C46  1  0.21090000  0.78100000  0.40370000  1
  C  C47  1  0.23950000  0.77830000  0.27350000  1
  C  C48  1  0.24040000  0.37290000  0.12160000  1
  C  C49  1  0.24490000  0.37590000  0.19610000  1
  C  C50  1  0.28620000  0.78760000  0.34010000  1
  C  C51  1  0.31100000  0.25990000  0.00110000  1
  C  C52  1  0.31410000  0.26530000  0.08100000  1
  C  C53  1  0.31430000  0.37560000  0.35440000  1
  C  C54  1  0.32010000  0.26730000  0.23490000  1
  C  C55  1  0.32090000  0.47740000  0.65360000  1
  C  C56  1  0.32100000  0.36450000  0.42840000  1
  C  C57  1  0.32100000  0.67190000  0.71990000  1
  C  C58  1  0.32260000  0.26480000  0.31510000  1
  C  C59  1  0.32790000  0.79880000  0.72100000  1
  C  C60  1  0.33200000  0.61250000  0.65430000  1
  C  C61  1  0.33470000  0.15020000  0.35530000  1
  C  C62  1  0.34070000  0.14750000  0.42880000  1
  C  C63  1  0.34470000  0.86340000  0.65500000  1
  C  C64  1  0.34920000  0.00050000  0.65560000  1
  C  C65  1  0.35120000  0.67530000  0.58870000  1
  C  C66  1  0.35580000  0.80090000  0.58940000  1
  C  C67  1  0.39140000  0.15840000  0.11960000  1
  C  C68  1  0.39460000  0.15980000  0.19430000  1
  C  C69  1  0.41970000  0.80130000  0.34300000  1
  C  C70  1  0.42410000  0.19370000  0.88420000  1
  C  C71  1  0.42790000  0.19830000  0.95910000  1
  C  C72  1  0.57210000  0.80170000  0.04090000  1
  C  C73  1  0.57590000  0.80630000  0.11580000  1
  C  C74  1  0.58030000  0.19870000  0.65700000  1
  C  C75  1  0.60540000  0.84020000  0.80570000  1
  C  C76  1  0.60860000  0.84160000  0.88040000  1
  C  C77  1  0.64420000  0.19910000  0.41060000  1
  C  C78  1  0.64880000  0.32470000  0.41130000  1
  C  C79  1  0.65080000  0.99950000  0.34440000  1
  C  C80  1  0.65530000  0.13660000  0.34500000  1
  C  C81  1  0.65930000  0.85250000  0.57120000  1
  C  C82  1  0.66530000  0.84980000  0.64470000  1
  C  C83  1  0.66800000  0.38750000  0.34570000  1
  C  C84  1  0.67210000  0.20120000  0.27900000  1
  C  C85  1  0.67740000  0.73520000  0.68490000  1
  C  C86  1  0.67900000  0.32810000  0.28010000  1
  C  C87  1  0.67900000  0.63550000  0.57160000  1
  C  C88  1  0.67910000  0.52260000  0.34640000  1
  C  C89  1  0.67990000  0.73270000  0.76510000  1
  C  C90  1  0.68570000  0.62440000  0.64560000  1
  C  C91  1  0.68590000  0.73470000  0.91900000  1
  C  C92  1  0.68900000  0.74010000  0.99890000  1
  C  C93  1  0.71380000  0.21240000  0.65990000  1
  C  C94  1  0.75510000  0.62410000  0.80390000  1
  C  C95  1  0.75960000  0.62710000  0.87840000  1
  C  C96  1  0.76050000  0.22170000  0.72650000  1
  C  C97  1  0.78910000  0.21900000  0.59630000  1
  C  C98  1  0.79510000  0.69200000  0.11060000  1
  C  C99  1  0.80000000  0.68210000  0.03560000  1
  C  C100  1  0.87940000  0.24230000  0.73000000  1
  C  C101  1  0.90900000  0.23880000  0.59980000  1
  C  C102  1  0.91540000  0.72920000  0.33090000  1
  C  C103  1  0.95320000  0.25140000  0.66580000  1
  N  N104  1  0.31490000  0.24450000  0.84950000  1
  N  N105  1  0.33380000  0.25170000  0.46690000  1
  N  N106  1  0.66620000  0.74830000  0.53310000  1
  N  N107  1  0.68510000  0.75550000  0.15050000  1
  O  O108  1  0.12360000  0.27400000  0.73130000  1
  O  O109  1  0.14540000  0.28160000  0.60920000  1
  O  O110  1  0.30480000  0.42470000  0.71350000  1
  O  O111  1  0.33090000  0.42750000  0.59220000  1
  O  O112  1  0.34220000  0.05010000  0.71620000  1
  O  O113  1  0.35880000  0.05270000  0.59420000  1
  O  O114  1  0.46050000  0.80250000  0.40430000  1
  O  O115  1  0.48280000  0.80520000  0.28230000  1
  O  O116  1  0.51720000  0.19480000  0.71770000  1
  O  O117  1  0.53950000  0.19750000  0.59570000  1
  O  O118  1  0.64120000  0.94730000  0.40580000  1
  O  O119  1  0.65780000  0.94990000  0.28380000  1
  O  O120  1  0.66910000  0.57250000  0.40780000  1
  O  O121  1  0.69520000  0.57530000  0.28650000  1
  O  O122  1  0.85460000  0.71840000  0.39080000  1
  O  O123  1  0.87640000  0.72600000  0.26870000  1
  F  F124  1  0.16430000  0.48380000  0.08890000  1
  F  F125  1  0.16740000  0.48460000  0.23090000  1
  F  F126  1  0.83260000  0.51540000  0.76910000  1
  F  F127  1  0.83570000  0.51620000  0.91110000  1
