# generated using pymatgen
data_Ni3H6C6N9O
_symmetry_space_group_name_H-M   'P 1'
_cell_length_a   17.82630000
_cell_length_b   17.82630000
_cell_length_c   17.82630000
_cell_angle_alpha   60.00000000
_cell_angle_beta   60.00000000
_cell_angle_gamma   60.00000000
_symmetry_Int_Tables_number   1
_chemical_formula_structural   Ni3H6C6N9O
_chemical_formula_sum   'Ni24 H48 C48 N72 O8'
_cell_volume   4005.60974746
_cell_formula_units_Z   8
loop_
 _symmetry_equiv_pos_site_id
 _symmetry_equiv_pos_as_xyz
  1  'x, y, z'
loop_
 _atom_site_type_symbol
 _atom_site_label
 _atom_site_symmetry_multiplicity
 _atom_site_fract_x
 _atom_site_fract_y
 _atom_site_fract_z
 _atom_site_occupancy
  Ni  Ni0  1  0.13551000  0.25000000  0.86449000  1
  Ni  Ni1  1  0.75000000  0.13551000  0.86449000  1
  Ni  Ni2  1  0.25000000  0.75000000  0.86449000  1
  Ni  Ni3  1  0.63551000  0.75000000  0.75000000  1
  Ni  Ni4  1  0.86449000  0.63551000  0.75000000  1
  Ni  Ni5  1  0.36449000  0.13551000  0.75000000  1
  Ni  Ni6  1  0.75000000  0.86449000  0.75000000  1
  Ni  Ni7  1  0.13551000  0.75000000  0.75000000  1
  Ni  Ni8  1  0.75000000  0.36449000  0.75000000  1
  Ni  Ni9  1  0.25000000  0.36449000  0.63551000  1
  Ni  Ni10  1  0.75000000  0.25000000  0.63551000  1
  Ni  Ni11  1  0.36449000  0.75000000  0.63551000  1
  Ni  Ni12  1  0.63551000  0.25000000  0.36449000  1
  Ni  Ni13  1  0.25000000  0.75000000  0.36449000  1
  Ni  Ni14  1  0.75000000  0.63551000  0.36449000  1
  Ni  Ni15  1  0.25000000  0.63551000  0.25000000  1
  Ni  Ni16  1  0.86449000  0.25000000  0.25000000  1
  Ni  Ni17  1  0.25000000  0.13551000  0.25000000  1
  Ni  Ni18  1  0.63551000  0.86449000  0.25000000  1
  Ni  Ni19  1  0.13551000  0.36449000  0.25000000  1
  Ni  Ni20  1  0.36449000  0.25000000  0.25000000  1
  Ni  Ni21  1  0.75000000  0.25000000  0.13551000  1
  Ni  Ni22  1  0.25000000  0.86449000  0.13551000  1
  Ni  Ni23  1  0.86449000  0.75000000  0.13551000  1
  H  H24  1  0.24100000  0.87820000  0.94960000  1
  H  H25  1  0.93120000  0.24100000  0.94960000  1
  H  H26  1  0.87820000  0.93120000  0.94960000  1
  H  H27  1  0.74100000  0.37820000  0.93120000  1
  H  H28  1  0.37820000  0.94960000  0.93120000  1
  H  H29  1  0.94960000  0.74100000  0.93120000  1
  H  H30  1  0.43120000  0.74100000  0.87820000  1
  H  H31  1  0.94960000  0.43120000  0.87820000  1
  H  H32  1  0.74100000  0.94960000  0.87820000  1
  H  H33  1  0.56880000  0.05040000  0.75900000  1
  H  H34  1  0.05040000  0.62180000  0.75900000  1
  H  H35  1  0.62180000  0.56880000  0.75900000  1
  H  H36  1  0.87820000  0.44960000  0.74100000  1
  H  H37  1  0.44960000  0.93120000  0.74100000  1
  H  H38  1  0.93120000  0.87820000  0.74100000  1
  H  H39  1  0.06880000  0.55040000  0.62180000  1
  H  H40  1  0.75900000  0.06880000  0.62180000  1
  H  H41  1  0.55040000  0.75900000  0.62180000  1
  H  H42  1  0.55040000  0.12180000  0.56880000  1
  H  H43  1  0.12180000  0.75900000  0.56880000  1
  H  H44  1  0.75900000  0.55040000  0.56880000  1
  H  H45  1  0.25900000  0.56880000  0.55040000  1
  H  H46  1  0.62180000  0.25900000  0.55040000  1
  H  H47  1  0.56880000  0.62180000  0.55040000  1
  H  H48  1  0.43120000  0.37820000  0.44960000  1
  H  H49  1  0.37820000  0.74100000  0.44960000  1
  H  H50  1  0.74100000  0.43120000  0.44960000  1
  H  H51  1  0.24100000  0.44960000  0.43120000  1
  H  H52  1  0.87820000  0.24100000  0.43120000  1
  H  H53  1  0.44960000  0.87820000  0.43120000  1
  H  H54  1  0.44960000  0.24100000  0.37820000  1
  H  H55  1  0.24100000  0.93120000  0.37820000  1
  H  H56  1  0.93120000  0.44960000  0.37820000  1
  H  H57  1  0.06880000  0.12180000  0.25900000  1
  H  H58  1  0.55040000  0.06880000  0.25900000  1
  H  H59  1  0.12180000  0.55040000  0.25900000  1
  H  H60  1  0.37820000  0.43120000  0.24100000  1
  H  H61  1  0.94960000  0.37820000  0.24100000  1
  H  H62  1  0.43120000  0.94960000  0.24100000  1
  H  H63  1  0.25900000  0.05040000  0.12180000  1
  H  H64  1  0.05040000  0.56880000  0.12180000  1
  H  H65  1  0.56880000  0.25900000  0.12180000  1
  H  H66  1  0.05040000  0.25900000  0.06880000  1
  H  H67  1  0.62180000  0.05040000  0.06880000  1
  H  H68  1  0.25900000  0.62180000  0.06880000  1
  H  H69  1  0.12180000  0.06880000  0.05040000  1
  H  H70  1  0.06880000  0.75900000  0.05040000  1
  H  H71  1  0.75900000  0.12180000  0.05040000  1
  C  C72  1  0.24538000  0.81942000  0.99270000  1
  C  C73  1  0.94250000  0.24538000  0.99270000  1
  C  C74  1  0.81942000  0.94250000  0.99270000  1
  C  C75  1  0.74538000  0.31942000  0.94250000  1
  C  C76  1  0.31942000  0.99270000  0.94250000  1
  C  C77  1  0.99270000  0.74538000  0.94250000  1
  C  C78  1  0.44250000  0.74538000  0.81942000  1
  C  C79  1  0.99270000  0.44250000  0.81942000  1
  C  C80  1  0.74538000  0.99270000  0.81942000  1
  C  C81  1  0.55750000  0.00730000  0.75462000  1
  C  C82  1  0.00730000  0.68058000  0.75462000  1
  C  C83  1  0.68058000  0.55750000  0.75462000  1
  C  C84  1  0.81942000  0.49270000  0.74538000  1
  C  C85  1  0.49270000  0.94250000  0.74538000  1
  C  C86  1  0.94250000  0.81942000  0.74538000  1
  C  C87  1  0.05750000  0.50730000  0.68058000  1
  C  C88  1  0.75462000  0.05750000  0.68058000  1
  C  C89  1  0.50730000  0.75462000  0.68058000  1
  C  C90  1  0.50730000  0.18058000  0.55750000  1
  C  C91  1  0.18058000  0.75462000  0.55750000  1
  C  C92  1  0.75462000  0.50730000  0.55750000  1
  C  C93  1  0.25462000  0.55750000  0.50730000  1
  C  C94  1  0.68058000  0.25462000  0.50730000  1
  C  C95  1  0.55750000  0.68058000  0.50730000  1
  C  C96  1  0.44250000  0.31942000  0.49270000  1
  C  C97  1  0.31942000  0.74538000  0.49270000  1
  C  C98  1  0.74538000  0.44250000  0.49270000  1
  C  C99  1  0.24538000  0.49270000  0.44250000  1
  C  C100  1  0.81942000  0.24538000  0.44250000  1
  C  C101  1  0.49270000  0.81942000  0.44250000  1
  C  C102  1  0.49270000  0.24538000  0.31942000  1
  C  C103  1  0.24538000  0.94250000  0.31942000  1
  C  C104  1  0.94250000  0.49270000  0.31942000  1
  C  C105  1  0.05750000  0.18058000  0.25462000  1
  C  C106  1  0.50730000  0.05750000  0.25462000  1
  C  C107  1  0.18058000  0.50730000  0.25462000  1
  C  C108  1  0.31942000  0.44250000  0.24538000  1
  C  C109  1  0.99270000  0.31942000  0.24538000  1
  C  C110  1  0.44250000  0.99270000  0.24538000  1
  C  C111  1  0.25462000  0.00730000  0.18058000  1
  C  C112  1  0.00730000  0.55750000  0.18058000  1
  C  C113  1  0.55750000  0.25462000  0.18058000  1
  C  C114  1  0.00730000  0.25462000  0.05750000  1
  C  C115  1  0.68058000  0.00730000  0.05750000  1
  C  C116  1  0.25462000  0.68058000  0.05750000  1
  C  C117  1  0.18058000  0.05750000  0.00730000  1
  C  C118  1  0.05750000  0.75462000  0.00730000  1
  C  C119  1  0.75462000  0.18058000  0.00730000  1
  N  N120  1  0.02142000  0.25000000  0.97858000  1
  N  N121  1  0.75000000  0.02142000  0.97858000  1
  N  N122  1  0.25000000  0.75000000  0.97858000  1
  N  N123  1  0.20539000  0.11759000  0.92479000  1
  N  N124  1  0.11759000  0.75223000  0.92479000  1
  N  N125  1  0.75223000  0.20539000  0.92479000  1
  N  N126  1  0.29461000  0.07521000  0.88241000  1
  N  N127  1  0.07521000  0.74777000  0.88241000  1
  N  N128  1  0.74777000  0.29461000  0.88241000  1
  N  N129  1  0.07521000  0.38241000  0.79461000  1
  N  N130  1  0.74777000  0.07521000  0.79461000  1
  N  N131  1  0.38241000  0.74777000  0.79461000  1
  N  N132  1  0.70539000  0.61759000  0.75223000  1
  N  N133  1  0.61759000  0.92479000  0.75223000  1
  N  N134  1  0.92479000  0.70539000  0.75223000  1
  N  N135  1  0.52142000  0.75000000  0.75000000  1
  N  N136  1  0.97858000  0.52142000  0.75000000  1
  N  N137  1  0.47858000  0.02142000  0.75000000  1
  N  N138  1  0.75000000  0.97858000  0.75000000  1
  N  N139  1  0.02142000  0.75000000  0.75000000  1
  N  N140  1  0.75000000  0.47858000  0.75000000  1
  N  N141  1  0.79461000  0.57521000  0.74777000  1
  N  N142  1  0.57521000  0.88241000  0.74777000  1
  N  N143  1  0.88241000  0.79461000  0.74777000  1
  N  N144  1  0.11759000  0.42479000  0.70539000  1
  N  N145  1  0.75223000  0.11759000  0.70539000  1
  N  N146  1  0.42479000  0.75223000  0.70539000  1
  N  N147  1  0.42479000  0.20539000  0.61759000  1
  N  N148  1  0.20539000  0.75223000  0.61759000  1
  N  N149  1  0.75223000  0.42479000  0.61759000  1
  N  N150  1  0.38241000  0.29461000  0.57521000  1
  N  N151  1  0.29461000  0.74777000  0.57521000  1
  N  N152  1  0.74777000  0.38241000  0.57521000  1
  N  N153  1  0.25000000  0.47858000  0.52142000  1
  N  N154  1  0.75000000  0.25000000  0.52142000  1
  N  N155  1  0.47858000  0.75000000  0.52142000  1
  N  N156  1  0.52142000  0.25000000  0.47858000  1
  N  N157  1  0.25000000  0.75000000  0.47858000  1
  N  N158  1  0.75000000  0.52142000  0.47858000  1
  N  N159  1  0.25223000  0.61759000  0.42479000  1
  N  N160  1  0.70539000  0.25223000  0.42479000  1
  N  N161  1  0.61759000  0.70539000  0.42479000  1
  N  N162  1  0.24777000  0.57521000  0.38241000  1
  N  N163  1  0.79461000  0.24777000  0.38241000  1
  N  N164  1  0.57521000  0.79461000  0.38241000  1
  N  N165  1  0.57521000  0.24777000  0.29461000  1
  N  N166  1  0.24777000  0.88241000  0.29461000  1
  N  N167  1  0.88241000  0.57521000  0.29461000  1
  N  N168  1  0.11759000  0.20539000  0.25223000  1
  N  N169  1  0.42479000  0.11759000  0.25223000  1
  N  N170  1  0.20539000  0.42479000  0.25223000  1
  N  N171  1  0.25000000  0.52142000  0.25000000  1
  N  N172  1  0.97858000  0.25000000  0.25000000  1
  N  N173  1  0.25000000  0.02142000  0.25000000  1
  N  N174  1  0.52142000  0.97858000  0.25000000  1
  N  N175  1  0.02142000  0.47858000  0.25000000  1
  N  N176  1  0.47858000  0.25000000  0.25000000  1
  N  N177  1  0.07521000  0.29461000  0.24777000  1
  N  N178  1  0.38241000  0.07521000  0.24777000  1
  N  N179  1  0.29461000  0.38241000  0.24777000  1
  N  N180  1  0.61759000  0.25223000  0.20539000  1
  N  N181  1  0.25223000  0.92479000  0.20539000  1
  N  N182  1  0.92479000  0.61759000  0.20539000  1
  N  N183  1  0.25223000  0.70539000  0.11759000  1
  N  N184  1  0.92479000  0.25223000  0.11759000  1
  N  N185  1  0.70539000  0.92479000  0.11759000  1
  N  N186  1  0.24777000  0.79461000  0.07521000  1
  N  N187  1  0.88241000  0.24777000  0.07521000  1
  N  N188  1  0.79461000  0.88241000  0.07521000  1
  N  N189  1  0.75000000  0.25000000  0.02142000  1
  N  N190  1  0.25000000  0.97858000  0.02142000  1
  N  N191  1  0.97858000  0.75000000  0.02142000  1
  O  O192  1  0.75000000  0.75000000  0.75000000  1
  O  O193  1  0.25000000  0.25000000  0.75000000  1
  O  O194  1  0.25000000  0.75000000  0.75000000  1
  O  O195  1  0.75000000  0.25000000  0.75000000  1
  O  O196  1  0.25000000  0.75000000  0.25000000  1
  O  O197  1  0.75000000  0.25000000  0.25000000  1
  O  O198  1  0.75000000  0.75000000  0.25000000  1
  O  O199  1  0.25000000  0.25000000  0.25000000  1
