# generated using pymatgen
data_NiH6C9(NO)3
_symmetry_space_group_name_H-M   'P 1'
_cell_length_a   7.60200000
_cell_length_b   14.25100000
_cell_length_c   14.25100000
_cell_angle_alpha   97.95230000
_cell_angle_beta   101.47000000
_cell_angle_gamma   101.47000000
_symmetry_Int_Tables_number   1
_chemical_formula_structural   NiH6C9(NO)3
_chemical_formula_sum   'Ni4 H24 C36 N12 O12'
_cell_volume   1457.19062933
_cell_formula_units_Z   4
loop_
 _symmetry_equiv_pos_site_id
 _symmetry_equiv_pos_as_xyz
  1  'x, y, z'
loop_
 _atom_site_type_symbol
 _atom_site_label
 _atom_site_symmetry_multiplicity
 _atom_site_fract_x
 _atom_site_fract_y
 _atom_site_fract_z
 _atom_site_occupancy
  Ni  Ni0  1  0.00000000  0.00000000  0.00000000  1
  Ni  Ni1  1  0.25000000  0.41057000  0.58943000  1
  Ni  Ni2  1  0.50000000  0.00000000  0.00000000  1
  Ni  Ni3  1  0.75000000  0.58943000  0.41057000  1
  H  H4  1  0.04280000  0.21700000  0.06320000  1
  H  H5  1  0.08740000  0.02030000  0.22830000  1
  H  H6  1  0.09580000  0.33750000  0.19830000  1
  H  H7  1  0.12050000  0.27600000  0.88240000  1
  H  H8  1  0.12880000  0.38250000  0.77430000  1
  H  H9  1  0.13670000  0.13530000  0.36790000  1
  H  H10  1  0.36330000  0.63210000  0.86470000  1
  H  H11  1  0.37120000  0.22570000  0.61750000  1
  H  H12  1  0.37950000  0.11760000  0.72400000  1
  H  H13  1  0.40420000  0.80170000  0.66250000  1
  H  H14  1  0.41260000  0.77170000  0.97970000  1
  H  H15  1  0.45720000  0.93680000  0.78300000  1
  H  H16  1  0.54280000  0.06320000  0.21700000  1
  H  H17  1  0.58740000  0.22830000  0.02030000  1
  H  H18  1  0.59580000  0.19830000  0.33750000  1
  H  H19  1  0.62050000  0.88240000  0.27600000  1
  H  H20  1  0.62880000  0.77430000  0.38250000  1
  H  H21  1  0.63670000  0.36790000  0.13530000  1
  H  H22  1  0.86330000  0.86470000  0.63210000  1
  H  H23  1  0.87120000  0.61750000  0.22570000  1
  H  H24  1  0.87950000  0.72400000  0.11760000  1
  H  H25  1  0.90420000  0.66250000  0.80170000  1
  H  H26  1  0.91260000  0.97970000  0.77170000  1
  H  H27  1  0.95720000  0.78300000  0.93680000  1
  C  C28  1  0.06190000  0.20030000  0.12470000  1
  C  C29  1  0.08750000  0.08450000  0.22210000  1
  C  C30  1  0.09340000  0.27360000  0.20600000  1
  C  C31  1  0.11850000  0.15360000  0.30720000  1
  C  C32  1  0.12150000  0.25030000  0.29950000  1
  C  C33  1  0.15830000  0.33000000  0.39000000  1
  C  C34  1  0.17370000  0.26460000  0.82980000  1
  C  C35  1  0.17810000  0.32830000  0.76350000  1
  C  C36  1  0.25000000  0.11280000  0.88720000  1
  C  C37  1  0.25000000  0.18380000  0.81620000  1
  C  C38  1  0.32190000  0.23650000  0.67170000  1
  C  C39  1  0.32630000  0.17020000  0.73540000  1
  C  C40  1  0.34170000  0.61000000  0.67000000  1
  C  C41  1  0.37850000  0.70050000  0.74970000  1
  C  C42  1  0.38150000  0.69280000  0.84640000  1
  C  C43  1  0.40660000  0.79400000  0.72640000  1
  C  C44  1  0.41250000  0.77790000  0.91550000  1
  C  C45  1  0.43810000  0.87530000  0.79970000  1
  C  C46  1  0.56190000  0.12470000  0.20030000  1
  C  C47  1  0.58750000  0.22210000  0.08450000  1
  C  C48  1  0.59340000  0.20600000  0.27360000  1
  C  C49  1  0.61850000  0.30720000  0.15360000  1
  C  C50  1  0.62150000  0.29950000  0.25030000  1
  C  C51  1  0.65830000  0.39000000  0.33000000  1
  C  C52  1  0.67370000  0.82980000  0.26460000  1
  C  C53  1  0.67810000  0.76350000  0.32830000  1
  C  C54  1  0.75000000  0.81620000  0.18380000  1
  C  C55  1  0.75000000  0.88720000  0.11280000  1
  C  C56  1  0.82190000  0.67170000  0.23650000  1
  C  C57  1  0.82630000  0.73540000  0.17020000  1
  C  C58  1  0.84170000  0.67000000  0.61000000  1
  C  C59  1  0.87850000  0.74970000  0.70050000  1
  C  C60  1  0.88150000  0.84640000  0.69280000  1
  C  C61  1  0.90660000  0.72640000  0.79400000  1
  C  C62  1  0.91250000  0.91550000  0.77790000  1
  C  C63  1  0.93810000  0.79970000  0.87530000  1
  N  N64  1  0.05790000  0.10551000  0.13149000  1
  N  N65  1  0.25000000  0.31550000  0.68450000  1
  N  N66  1  0.25000000  0.84320000  0.15680000  1
  N  N67  1  0.25000000  0.89690000  0.10310000  1
  N  N68  1  0.25000000  0.95250000  0.04750000  1
  N  N69  1  0.44210000  0.86851000  0.89449000  1
  N  N70  1  0.55790000  0.13149000  0.10551000  1
  N  N71  1  0.75000000  0.04750000  0.95250000  1
  N  N72  1  0.75000000  0.10310000  0.89690000  1
  N  N73  1  0.75000000  0.15680000  0.84320000  1
  N  N74  1  0.75000000  0.68450000  0.31550000  1
  N  N75  1  0.94210000  0.89449000  0.86851000  1
  O  O76  1  0.12790000  0.10969000  0.93659000  1
  O  O77  1  0.17070000  0.41800000  0.37780000  1
  O  O78  1  0.17510000  0.30200000  0.47118000  1
  O  O79  1  0.32490000  0.52882000  0.69800000  1
  O  O80  1  0.32930000  0.62220000  0.58200000  1
  O  O81  1  0.37210000  0.06341000  0.89031000  1
  O  O82  1  0.62790000  0.93659000  0.10969000  1
  O  O83  1  0.67070000  0.37780000  0.41800000  1
  O  O84  1  0.67510000  0.47118000  0.30200000  1
  O  O85  1  0.82490000  0.69800000  0.52882000  1
  O  O86  1  0.82930000  0.58200000  0.62220000  1
  O  O87  1  0.87210000  0.89031000  0.06341000  1
