# generated using pymatgen
data_Mn9H80C128(N16O17)2
_symmetry_space_group_name_H-M   'P 1'
_cell_length_a   20.46040000
_cell_length_b   20.46040000
_cell_length_c   21.92310000
_cell_angle_alpha   97.48670000
_cell_angle_beta   117.77230000
_cell_angle_gamma   111.16900000
_symmetry_Int_Tables_number   1
_chemical_formula_structural   Mn9H80C128(N16O17)2
_chemical_formula_sum   'Mn18 H160 C256 N64 O68'
_cell_volume   7059.30684057
_cell_formula_units_Z   2
loop_
 _symmetry_equiv_pos_site_id
 _symmetry_equiv_pos_as_xyz
  1  'x, y, z'
loop_
 _atom_site_type_symbol
 _atom_site_label
 _atom_site_symmetry_multiplicity
 _atom_site_fract_x
 _atom_site_fract_y
 _atom_site_fract_z
 _atom_site_occupancy
  Mn  Mn0  1  0.84677000  0.72143000  0.58824000  1
  Mn  Mn1  1  0.82856000  0.60928000  0.44080000  1
  Mn  Mn2  1  0.74459000  0.24193000  0.07910000  1
  Mn  Mn3  1  0.73931000  0.98931000  0.75000000  1
  Mn  Mn4  1  0.71928000  0.79058000  0.60390000  1
  Mn  Mn5  1  0.68668000  0.11538000  0.89610000  1
  Mn  Mn6  1  0.66848000  0.38776000  0.05920000  1
  Mn  Mn7  1  0.66283000  0.66549000  0.42090000  1
  Mn  Mn8  1  0.63319000  0.25853000  0.91176000  1
  Mn  Mn9  1  0.36681000  0.74147000  0.08824000  1
  Mn  Mn10  1  0.33717000  0.33451000  0.57910000  1
  Mn  Mn11  1  0.33152000  0.61224000  0.94080000  1
  Mn  Mn12  1  0.31332000  0.88462000  0.10390000  1
  Mn  Mn13  1  0.28072000  0.20942000  0.39610000  1
  Mn  Mn14  1  0.26069000  0.01069000  0.25000000  1
  Mn  Mn15  1  0.25541000  0.75807000  0.92090000  1
  Mn  Mn16  1  0.17144000  0.39072000  0.55920000  1
  Mn  Mn17  1  0.15323000  0.27857000  0.41176000  1
  H  H18  1  0.99010000  0.01270000  0.20440000  1
  H  H19  1  0.98320000  0.28030000  0.07750000  1
  H  H20  1  0.98100000  0.10600000  0.79700000  1
  H  H21  1  0.97950000  0.11790000  0.52940000  1
  H  H22  1  0.97880000  0.20040000  0.98940000  1
  H  H23  1  0.96140000  0.08830000  0.26350000  1
  H  H24  1  0.95540000  0.67000000  0.02500000  1
  H  H25  1  0.94980000  0.71450000  0.80110000  1
  H  H26  1  0.94820000  0.76060000  0.09300000  1
  H  H27  1  0.94320000  0.67970000  0.33530000  1
  H  H28  1  0.93850000  0.88470000  0.54780000  1
  H  H29  1  0.93590000  0.46510000  0.83760000  1
  H  H30  1  0.93540000  0.02750000  0.68910000  1
  H  H31  1  0.93460000  0.01930000  0.42370000  1
  H  H32  1  0.92910000  0.11940000  0.73570000  1
  H  H33  1  0.91630000  0.28120000  0.46350000  1
  H  H34  1  0.91330000  0.37150000  0.57680000  1
  H  H35  1  0.91150000  0.54990000  0.02940000  1
  H  H36  1  0.90440000  0.48910000  0.92370000  1
  H  H37  1  0.88800000  0.38100000  0.50900000  1
  H  H38  1  0.88370000  0.19340000  0.76430000  1
  H  H39  1  0.88290000  0.10630000  0.32260000  1
  H  H40  1  0.88000000  0.86140000  0.85500000  1
  H  H41  1  0.87810000  0.13890000  0.19820000  1
  H  H42  1  0.87250000  0.90170000  0.33760000  1
  H  H43  1  0.85500000  0.06960000  0.52500000  1
  H  H44  1  0.84990000  0.03370000  0.01220000  1
  H  H45  1  0.84440000  0.60790000  0.16470000  1
  H  H46  1  0.83840000  0.24630000  0.81090000  1
  H  H47  1  0.83690000  0.39070000  0.95220000  1
  H  H48  1  0.83240000  0.14480000  0.59300000  1
  H  H49  1  0.83100000  0.94100000  0.92000000  1
  H  H50  1  0.81690000  0.89810000  0.13520000  1
  H  H51  1  0.80900000  0.18400000  0.70300000  1
  H  H52  1  0.80000000  0.88800000  0.94600000  1
  H  H53  1  0.79820000  0.42300000  0.51200000  1
  H  H54  1  0.78830000  0.53460000  0.66970000  1
  H  H55  1  0.78280000  0.65910000  0.86470000  1
  H  H56  1  0.77280000  0.55040000  0.80500000  1
  H  H57  1  0.77250000  0.94850000  0.19980000  1
  H  H58  1  0.75460000  0.03220000  0.30500000  1
  H  H59  1  0.75130000  0.42730000  0.69980000  1
  H  H60  1  0.73740000  0.75900000  0.82440000  1
  H  H61  1  0.73710000  0.31830000  0.63520000  1
  H  H62  1  0.71630000  0.43970000  0.82260000  1
  H  H63  1  0.71130000  0.11430000  0.17300000  1
  H  H64  1  0.71100000  0.98940000  0.51060000  1
  H  H65  1  0.70560000  0.08190000  0.36470000  1
  H  H66  1  0.70530000  0.66350000  0.07680000  1
  H  H67  1  0.70280000  0.90570000  0.42250000  1
  H  H68  1  0.69600000  0.75200000  0.75000000  1
  H  H69  1  0.69170000  0.21430000  0.70440000  1
  H  H70  1  0.68230000  0.54720000  0.96350000  1
  H  H71  1  0.67530000  0.01800000  0.07670000  1
  H  H72  1  0.67520000  0.30210000  0.76350000  1
  H  H73  1  0.67380000  0.35000000  0.37220000  1
  H  H74  1  0.66400000  0.82560000  0.80940000  1
  H  H75  1  0.64990000  0.65760000  0.64430000  1
  H  H76  1  0.63510000  0.88140000  0.16970000  1
  H  H77  1  0.62800000  0.62100000  0.00900000  1
  H  H78  1  0.62070000  0.40450000  0.42220000  1
  H  H79  1  0.59770000  0.46640000  0.51050000  1
  H  H80  1  0.58900000  0.71380000  0.01200000  1
  H  H81  1  0.58660000  0.85130000  0.30110000  1
  H  H82  1  0.58090000  0.91580000  0.91310000  1
  H  H83  1  0.56540000  0.08700000  0.32440000  1
  H  H84  1  0.55930000  0.32010000  0.69820000  1
  H  H85  1  0.55870000  0.46170000  0.67300000  1
  H  H86  1  0.55870000  0.40140000  0.57670000  1
  H  H87  1  0.55800000  0.14600000  0.44600000  1
  H  H88  1  0.54410000  0.91280000  0.01050000  1
  H  H89  1  0.52220000  0.69840000  0.87220000  1
  H  H90  1  0.52150000  0.83770000  0.48780000  1
  H  H91  1  0.52100000  0.91100000  0.58000000  1
  H  H92  1  0.51770000  0.80150000  0.92220000  1
  H  H93  1  0.51620000  0.85460000  0.69060000  1
  H  H94  1  0.51330000  0.00560000  0.85570000  1
  H  H95  1  0.50640000  0.02500000  0.64500000  1
  H  H96  1  0.50270000  0.66780000  0.58690000  1
  H  H97  1  0.50200000  0.94600000  0.75000000  1
  H  H98  1  0.49800000  0.05400000  0.25000000  1
  H  H99  1  0.49730000  0.33220000  0.41310000  1
  H  H100  1  0.49360000  0.97500000  0.35500000  1
  H  H101  1  0.48670000  0.99440000  0.14430000  1
  H  H102  1  0.48380000  0.14540000  0.30940000  1
  H  H103  1  0.48230000  0.19850000  0.07780000  1
  H  H104  1  0.47900000  0.08900000  0.42000000  1
  H  H105  1  0.47850000  0.16230000  0.51220000  1
  H  H106  1  0.47780000  0.30160000  0.12780000  1
  H  H107  1  0.45590000  0.08720000  0.98950000  1
  H  H108  1  0.44200000  0.85400000  0.55400000  1
  H  H109  1  0.44130000  0.59860000  0.42330000  1
  H  H110  1  0.44130000  0.53830000  0.32700000  1
  H  H111  1  0.44070000  0.67990000  0.30180000  1
  H  H112  1  0.43460000  0.91300000  0.67560000  1
  H  H113  1  0.41910000  0.08420000  0.08690000  1
  H  H114  1  0.41340000  0.14870000  0.69890000  1
  H  H115  1  0.41100000  0.28620000  0.98800000  1
  H  H116  1  0.40230000  0.53360000  0.48950000  1
  H  H117  1  0.37930000  0.59550000  0.57780000  1
  H  H118  1  0.37200000  0.37900000  0.99100000  1
  H  H119  1  0.36490000  0.11860000  0.83030000  1
  H  H120  1  0.35010000  0.34240000  0.35570000  1
  H  H121  1  0.33600000  0.17440000  0.19060000  1
  H  H122  1  0.32620000  0.65000000  0.62780000  1
  H  H123  1  0.32480000  0.69790000  0.23650000  1
  H  H124  1  0.32470000  0.98200000  0.92330000  1
  H  H125  1  0.31770000  0.45280000  0.03650000  1
  H  H126  1  0.30830000  0.78570000  0.29560000  1
  H  H127  1  0.30400000  0.24800000  0.25000000  1
  H  H128  1  0.29720000  0.09430000  0.57750000  1
  H  H129  1  0.29470000  0.33650000  0.92320000  1
  H  H130  1  0.29440000  0.91810000  0.63530000  1
  H  H131  1  0.28900000  0.01060000  0.48940000  1
  H  H132  1  0.28870000  0.88570000  0.82700000  1
  H  H133  1  0.28370000  0.56030000  0.17740000  1
  H  H134  1  0.26290000  0.68170000  0.36480000  1
  H  H135  1  0.26260000  0.24100000  0.17560000  1
  H  H136  1  0.24870000  0.57270000  0.30020000  1
  H  H137  1  0.24540000  0.96780000  0.69500000  1
  H  H138  1  0.22750000  0.05150000  0.80020000  1
  H  H139  1  0.22720000  0.44960000  0.19500000  1
  H  H140  1  0.21720000  0.34090000  0.13530000  1
  H  H141  1  0.21170000  0.46540000  0.33030000  1
  H  H142  1  0.20180000  0.57700000  0.48800000  1
  H  H143  1  0.20000000  0.11200000  0.05400000  1
  H  H144  1  0.19100000  0.81600000  0.29700000  1
  H  H145  1  0.18310000  0.10190000  0.86480000  1
  H  H146  1  0.16900000  0.05900000  0.08000000  1
  H  H147  1  0.16760000  0.85520000  0.40700000  1
  H  H148  1  0.16310000  0.60930000  0.04780000  1
  H  H149  1  0.16160000  0.75370000  0.18910000  1
  H  H150  1  0.15560000  0.39210000  0.83530000  1
  H  H151  1  0.15010000  0.96630000  0.98780000  1
  H  H152  1  0.14500000  0.93040000  0.47500000  1
  H  H153  1  0.12750000  0.09830000  0.66240000  1
  H  H154  1  0.12190000  0.86110000  0.80180000  1
  H  H155  1  0.12000000  0.13860000  0.14500000  1
  H  H156  1  0.11710000  0.89370000  0.67740000  1
  H  H157  1  0.11630000  0.80660000  0.23570000  1
  H  H158  1  0.11200000  0.61900000  0.49100000  1
  H  H159  1  0.09560000  0.51090000  0.07630000  1
  H  H160  1  0.08850000  0.45010000  0.97060000  1
  H  H161  1  0.08670000  0.62850000  0.42320000  1
  H  H162  1  0.08370000  0.71880000  0.53650000  1
  H  H163  1  0.07090000  0.88060000  0.26430000  1
  H  H164  1  0.06540000  0.98070000  0.57630000  1
  H  H165  1  0.06460000  0.97250000  0.31090000  1
  H  H166  1  0.06410000  0.53490000  0.16240000  1
  H  H167  1  0.06150000  0.11530000  0.45220000  1
  H  H168  1  0.05680000  0.32030000  0.66470000  1
  H  H169  1  0.05180000  0.23940000  0.90700000  1
  H  H170  1  0.05020000  0.28550000  0.19890000  1
  H  H171  1  0.04460000  0.33000000  0.97500000  1
  H  H172  1  0.03860000  0.91170000  0.73650000  1
  H  H173  1  0.02120000  0.79960000  0.01060000  1
  H  H174  1  0.02050000  0.88210000  0.47060000  1
  H  H175  1  0.01900000  0.89400000  0.20300000  1
  H  H176  1  0.01680000  0.71970000  0.92250000  1
  H  H177  1  0.00990000  0.98730000  0.79560000  1
  C  C178  1  0.99918000  0.75102000  0.58400000  1
  C  C179  1  0.99217000  0.79613000  0.96170000  1
  C  C180  1  0.99039000  0.74891000  0.90910000  1
  C  C181  1  0.98274000  0.73036000  0.36190000  1
  C  C182  1  0.97016000  0.14844000  0.55620000  1
  C  C183  1  0.96919000  0.77611000  0.40090000  1
  C  C184  1  0.96339000  0.93231000  0.58190000  1
  C  C185  1  0.96235000  0.01815000  0.66730000  1
  C  C186  1  0.96110000  0.89140000  0.00210000  1
  C  C187  1  0.96102000  0.92468000  0.31370000  1
  C  C188  1  0.96030000  0.01010000  0.40060000  1
  C  C189  1  0.95601000  0.03209000  0.17770000  1
  C  C190  1  0.95090000  0.83860000  0.94210000  1
  C  C191  1  0.94917000  0.74493000  0.83610000  1
  C  C192  1  0.94839000  0.96801000  0.07060000  1
  C  C193  1  0.94342000  0.23988000  0.63770000  1
  C  C194  1  0.93932000  0.07758000  0.21330000  1
  C  C195  1  0.93440000  0.65820000  0.05400000  1
  C  C196  1  0.93414000  0.29146000  0.68300000  1
  C  C197  1  0.93000000  0.71250000  0.09450000  1
  C  C198  1  0.92578000  0.94762000  0.61620000  1
  C  C199  1  0.92310000  0.93960000  0.34890000  1
  C  C200  1  0.92277000  0.01413000  0.10150000  1
  C  C201  1  0.92039000  0.84901000  0.26040000  1
  C  C202  1  0.91370000  0.20020000  0.39650000  1
  C  C203  1  0.91139000  0.34001000  0.76040000  1
  C  C204  1  0.90930000  0.42580000  0.84890000  1
  C  C205  1  0.90804000  0.83350000  0.86860000  1
  C  C206  1  0.90776000  0.58604000  0.05620000  1
  C  C207  1  0.90715000  0.78685000  0.81580000  1
  C  C208  1  0.89782000  0.69428000  0.13770000  1
  C  C209  1  0.89580000  0.11960000  0.55400000  1
  C  C210  1  0.89154000  0.74886000  0.18300000  1
  C  C211  1  0.89050000  0.44030000  0.90060000  1
  C  C212  1  0.88963000  0.74357000  0.39980000  1
  C  C213  1  0.88904000  0.10756000  0.17420000  1
  C  C214  1  0.88902000  0.35268000  0.81370000  1
  C  C215  1  0.88381000  0.23109000  0.43210000  1
  C  C216  1  0.88200000  0.16450000  0.59450000  1
  C  C217  1  0.87521000  0.56829000  0.09910000  1
  C  C218  1  0.87211000  0.04441000  0.06240000  1
  C  C219  1  0.86846000  0.62084000  0.13810000  1
  C  C220  1  0.86506000  0.78314000  0.73740000  1
  C  C221  1  0.86432000  0.12628000  0.34780000  1
  C  C222  1  0.85523000  0.09027000  0.09850000  1
  C  C223  1  0.85085000  0.29505000  0.83270000  1
  C  C224  1  0.85041000  0.38149000  0.91810000  1
  C  C225  1  0.84610000  0.88690000  0.60240000  1
  C  C226  1  0.84377000  0.48983000  0.10020000  1
  C  C227  1  0.83142000  0.30958000  0.88380000  1
  C  C228  1  0.81162000  0.55348000  0.56070000  1
  C  C229  1  0.80609000  0.18721000  0.42070000  1
  C  C230  1  0.80346000  0.12544000  0.05730000  1
  C  C231  1  0.79543000  0.48827000  0.58650000  1
  C  C232  1  0.78853000  0.42377000  0.54950000  1
  C  C233  1  0.78716000  0.08224000  0.33680000  1
  C  C234  1  0.78450000  0.24370000  0.89760000  1
  C  C235  1  0.78244000  0.49086000  0.64390000  1
  C  C236  1  0.77315000  0.21705000  0.45760000  1
  C  C237  1  0.76731000  0.35929000  0.56760000  1
  C  C238  1  0.76247000  0.87103000  0.12350000  1
  C  C239  1  0.76071000  0.61509000  0.87260000  1
  C  C240  1  0.76050000  0.42650000  0.66200000  1
  C  C241  1  0.75751000  0.11189000  0.37260000  1
  C  C242  1  0.75558000  0.29092000  0.52410000  1
  C  C243  1  0.75456000  0.54964000  0.83680000  1
  C  C244  1  0.75247000  0.36103000  0.62350000  1
  C  C245  1  0.74055000  0.68445000  0.95760000  1
  C  C246  1  0.73550000  0.90150000  0.16200000  1
  C  C247  1  0.73349000  0.61461000  0.92070000  1
  C  C248  1  0.73318000  0.76852000  0.02410000  1
  C  C249  1  0.72152000  0.48348000  0.84780000  1
  C  C250  1  0.70831000  0.80029000  0.06760000  1
  C  C251  1  0.70101000  0.54829000  0.93210000  1
  C  C252  1  0.69630000  0.48280000  0.89650000  1
  C  C253  1  0.66702000  0.41518000  0.91600000  1
  C  C254  1  0.66557000  0.96953000  0.46170000  1
  C  C255  1  0.66510000  0.95330000  0.84840000  1
  C  C256  1  0.66019000  0.91871000  0.40910000  1
  C  C257  1  0.65884000  0.07166000  0.14730000  1
  C  C258  1  0.65304000  0.86146000  0.14390000  1
  C  C259  1  0.65243000  0.60957000  0.52700000  1
  C  C260  1  0.64561000  0.22169000  0.67770000  1
  C  C261  1  0.63705000  0.01415000  0.08960000  1
  C  C262  1  0.63572000  0.27398000  0.71330000  1
  C  C263  1  0.63294000  0.82006000  0.83040000  1
  C  C264  1  0.62981000  0.60589000  0.62970000  1
  C  C265  1  0.62778000  0.56872000  0.57050000  1
  C  C266  1  0.62767000  0.88133000  0.85920000  1
  C  C267  1  0.62573000  0.76097000  0.04950000  1
  C  C268  1  0.62463000  0.32007000  0.36870000  1
  C  C269  1  0.62049000  0.13301000  0.22050000  1
  C  C270  1  0.61170000  0.20940000  0.29270000  1
  C  C271  1  0.61070000  0.04100000  0.50210000  1
  C  C272  1  0.60490000  0.81670000  0.65160000  1
  C  C273  1  0.60350000  0.99120000  0.44210000  1
  C  C274  1  0.60259000  0.12221000  0.57060000  1
  C  C275  1  0.60152000  0.56604000  0.66720000  1
  C  C276  1  0.60116000  0.06568000  0.16720000  1
  C  C277  1  0.59995000  0.49175000  0.55050000  1
  C  C278  1  0.59823000  0.79107000  0.08650000  1
  C  C279  1  0.59247000  0.35263000  0.39850000  1
  C  C280  1  0.59168000  0.75022000  0.83290000  1
  C  C281  1  0.59117000  0.88693000  0.33610000  1
  C  C282  1  0.58749000  0.60001000  0.72050000  1
  C  C283  1  0.58737000  0.17873000  0.60150000  1
  C  C284  1  0.58417000  0.87473000  0.89370000  1
  C  C285  1  0.58330000  0.68100000  0.79270000  1
  C  C286  1  0.58268000  0.24122000  0.33290000  1
  C  C287  1  0.58257000  0.12543000  0.97300000  1
  C  C288  1  0.57564000  0.48846000  0.64730000  1
  C  C289  1  0.57545000  0.45255000  0.58960000  1
  C  C290  1  0.56814000  0.74616000  0.44270000  1
  C  C291  1  0.56664000  0.28516000  0.67420000  1
  C  C292  1  0.55875000  0.95055000  0.05050000  1
  C  C293  1  0.54863000  0.74407000  0.86870000  1
  C  C294  1  0.54587000  0.80603000  0.89850000  1
  C  C295  1  0.54574000  0.12766000  0.76260000  1
  C  C296  1  0.53510000  0.96056000  0.36860000  1
  C  C297  1  0.52895000  0.90865000  0.31580000  1
  C  C298  1  0.52381000  0.99989000  0.12970000  1
  C  C299  1  0.52213000  0.76847000  0.64080000  1
  C  C300  1  0.51897000  0.30953000  0.39370000  1
  C  C301  1  0.51799000  0.19029000  0.56240000  1
  C  C302  1  0.51034000  0.19746000  0.33040000  1
  C  C303  1  0.50823000  0.24327000  0.59850000  1
  C  C304  1  0.50722000  0.74908000  0.06070000  1
  C  C305  1  0.50178000  0.94272000  0.07050000  1
  C  C306  1  0.49822000  0.05728000  0.92950000  1
  C  C307  1  0.49278000  0.25092000  0.93930000  1
  C  C308  1  0.49177000  0.75673000  0.40150000  1
  C  C309  1  0.48966000  0.80254000  0.66960000  1
  C  C310  1  0.48201000  0.80971000  0.43760000  1
  C  C311  1  0.48103000  0.69047000  0.60630000  1
  C  C312  1  0.47787000  0.23153000  0.35920000  1
  C  C313  1  0.47619000  0.00011000  0.87030000  1
  C  C314  1  0.47105000  0.09135000  0.68420000  1
  C  C315  1  0.46490000  0.03944000  0.63140000  1
  C  C316  1  0.45426000  0.87234000  0.23740000  1
  C  C317  1  0.45413000  0.19397000  0.10150000  1
  C  C318  1  0.45137000  0.25593000  0.13130000  1
  C  C319  1  0.44125000  0.04945000  0.94950000  1
  C  C320  1  0.43336000  0.71484000  0.32580000  1
  C  C321  1  0.43186000  0.25384000  0.55730000  1
  C  C322  1  0.42455000  0.54745000  0.41040000  1
  C  C323  1  0.42436000  0.51154000  0.35270000  1
  C  C324  1  0.41743000  0.87457000  0.02700000  1
  C  C325  1  0.41732000  0.75878000  0.66710000  1
  C  C326  1  0.41670000  0.31900000  0.20730000  1
  C  C327  1  0.41583000  0.12527000  0.10630000  1
  C  C328  1  0.41263000  0.82127000  0.39850000  1
  C  C329  1  0.41251000  0.39999000  0.27950000  1
  C  C330  1  0.40883000  0.11307000  0.66390000  1
  C  C331  1  0.40832000  0.24978000  0.16710000  1
  C  C332  1  0.40753000  0.64737000  0.60150000  1
  C  C333  1  0.40177000  0.20893000  0.91350000  1
  C  C334  1  0.40005000  0.50825000  0.44950000  1
  C  C335  1  0.39884000  0.93432000  0.83280000  1
  C  C336  1  0.39848000  0.43396000  0.33280000  1
  C  C337  1  0.39741000  0.87779000  0.42940000  1
  C  C338  1  0.39650000  0.00880000  0.55790000  1
  C  C339  1  0.39510000  0.18330000  0.34840000  1
  C  C340  1  0.38930000  0.95900000  0.49790000  1
  C  C341  1  0.38830000  0.79060000  0.70730000  1
  C  C342  1  0.37951000  0.86699000  0.77950000  1
  C  C343  1  0.37537000  0.67993000  0.63130000  1
  C  C344  1  0.37427000  0.23903000  0.95050000  1
  C  C345  1  0.37233000  0.11867000  0.14080000  1
  C  C346  1  0.37222000  0.43128000  0.42950000  1
  C  C347  1  0.37019000  0.39411000  0.37030000  1
  C  C348  1  0.36706000  0.17994000  0.16960000  1
  C  C349  1  0.36428000  0.72602000  0.28670000  1
  C  C350  1  0.36295000  0.98585000  0.91040000  1
  C  C351  1  0.35439000  0.77831000  0.32230000  1
  C  C352  1  0.34757000  0.39043000  0.47300000  1
  C  C353  1  0.34696000  0.13854000  0.85610000  1
  C  C354  1  0.34116000  0.92834000  0.85270000  1
  C  C355  1  0.33981000  0.08129000  0.59090000  1
  C  C356  1  0.33490000  0.04670000  0.15160000  1
  C  C357  1  0.33443000  0.03047000  0.53830000  1
  C  C358  1  0.33298000  0.58482000  0.08400000  1
  C  C359  1  0.30370000  0.51720000  0.10350000  1
  C  C360  1  0.29899000  0.45171000  0.06790000  1
  C  C361  1  0.29169000  0.19971000  0.93240000  1
  C  C362  1  0.27848000  0.51652000  0.15220000  1
  C  C363  1  0.26682000  0.23148000  0.97590000  1
  C  C364  1  0.26651000  0.38539000  0.07930000  1
  C  C365  1  0.26450000  0.09850000  0.83800000  1
  C  C366  1  0.25945000  0.31555000  0.04240000  1
  C  C367  1  0.24753000  0.63897000  0.37650000  1
  C  C368  1  0.24544000  0.45036000  0.16320000  1
  C  C369  1  0.24442000  0.70908000  0.47590000  1
  C  C370  1  0.24249000  0.88811000  0.62740000  1
  C  C371  1  0.23950000  0.57350000  0.33800000  1
  C  C372  1  0.23929000  0.38491000  0.12740000  1
  C  C373  1  0.23753000  0.12897000  0.87650000  1
  C  C374  1  0.23269000  0.64071000  0.43240000  1
  C  C375  1  0.22685000  0.78295000  0.54240000  1
  C  C376  1  0.21756000  0.50914000  0.35610000  1
  C  C377  1  0.21550000  0.75630000  0.10240000  1
  C  C378  1  0.21284000  0.91776000  0.66320000  1
  C  C379  1  0.21147000  0.57623000  0.45050000  1
  C  C380  1  0.20457000  0.51173000  0.41350000  1
  C  C381  1  0.19654000  0.87456000  0.94270000  1
  C  C382  1  0.19391000  0.81279000  0.57930000  1
  C  C383  1  0.18838000  0.44652000  0.43930000  1
  C  C384  1  0.16858000  0.69042000  0.11620000  1
  C  C385  1  0.15623000  0.51017000  0.89980000  1
  C  C386  1  0.15390000  0.11310000  0.39760000  1
  C  C387  1  0.14959000  0.61851000  0.08190000  1
  C  C388  1  0.14915000  0.70495000  0.16730000  1
  C  C389  1  0.14477000  0.90973000  0.90150000  1
  C  C390  1  0.13568000  0.87372000  0.65220000  1
  C  C391  1  0.13494000  0.21686000  0.26260000  1
  C  C392  1  0.13154000  0.37916000  0.86190000  1
  C  C393  1  0.12789000  0.95559000  0.93760000  1
  C  C394  1  0.12479000  0.43171000  0.90090000  1
  C  C395  1  0.11800000  0.83550000  0.40550000  1
  C  C396  1  0.11619000  0.76891000  0.56790000  1
  C  C397  1  0.11098000  0.64732000  0.18630000  1
  C  C398  1  0.11096000  0.89244000  0.82580000  1
  C  C399  1  0.11037000  0.25643000  0.60020000  1
  C  C400  1  0.10950000  0.55970000  0.09940000  1
  C  C401  1  0.10846000  0.25114000  0.81700000  1
  C  C402  1  0.10420000  0.88040000  0.44600000  1
  C  C403  1  0.10218000  0.30572000  0.86230000  1
  C  C404  1  0.09285000  0.21315000  0.18420000  1
  C  C405  1  0.09224000  0.41396000  0.94380000  1
  C  C406  1  0.09196000  0.16650000  0.13140000  1
  C  C407  1  0.09070000  0.57420000  0.15110000  1
  C  C408  1  0.08861000  0.65999000  0.23960000  1
  C  C409  1  0.08630000  0.79980000  0.60350000  1
  C  C410  1  0.07961000  0.15099000  0.73960000  1
  C  C411  1  0.07723000  0.98587000  0.89850000  1
  C  C412  1  0.07690000  0.06040000  0.65110000  1
  C  C413  1  0.07422000  0.05238000  0.38380000  1
  C  C414  1  0.07000000  0.28750000  0.90550000  1
  C  C415  1  0.06586000  0.70854000  0.31700000  1
  C  C416  1  0.06560000  0.34180000  0.94600000  1
  C  C417  1  0.06068000  0.92242000  0.78670000  1
  C  C418  1  0.05658000  0.76012000  0.36230000  1
  C  C419  1  0.05161000  0.03199000  0.92940000  1
  C  C420  1  0.05083000  0.25507000  0.16390000  1
  C  C421  1  0.04910000  0.16140000  0.05790000  1
  C  C422  1  0.04399000  0.96791000  0.82230000  1
  C  C423  1  0.03970000  0.98990000  0.59940000  1
  C  C424  1  0.03898000  0.07532000  0.68630000  1
  C  C425  1  0.03890000  0.10860000  0.99790000  1
  C  C426  1  0.03765000  0.98185000  0.33270000  1
  C  C427  1  0.03661000  0.06769000  0.41810000  1
  C  C428  1  0.03081000  0.22389000  0.59910000  1
  C  C429  1  0.02984000  0.85156000  0.44380000  1
  C  C430  1  0.01726000  0.26964000  0.63810000  1
  C  C431  1  0.00961000  0.25109000  0.09090000  1
  C  C432  1  0.00783000  0.20387000  0.03830000  1
  C  C433  1  0.00082000  0.24898000  0.41600000  1
  N  N434  1  0.98471000  0.03829000  0.88560000  1
  N  N435  1  0.97840000  0.14120000  0.77840000  1
  N  N436  1  0.97703000  0.08637000  0.92900000  1
  N  N437  1  0.96406000  0.36388000  0.69420000  1
  N  N438  1  0.95015000  0.39531000  0.74390000  1
  N  N439  1  0.94827000  0.82261000  0.22230000  1
  N  N440  1  0.91340000  0.92556000  0.99920000  1
  N  N441  1  0.89969000  0.27403000  0.72230000  1
  N  N442  1  0.89019000  0.34883000  0.53000000  1
  N  N443  1  0.86280000  0.20000000  0.72160000  1
  N  N444  1  0.84859000  0.79375000  0.24390000  1
  N  N445  1  0.83562000  0.90606000  0.93430000  1
  N  N446  1  0.83032000  0.73014000  0.19420000  1
  N  N447  1  0.80863000  0.28949000  0.50250000  1
  N  N448  1  0.77583000  0.74961000  0.95180000  1
  N  N449  1  0.77178000  0.80306000  0.99470000  1
  N  N450  1  0.71301000  0.69387000  0.00250000  1
  N  N451  1  0.70593000  0.72773000  0.77900000  1
  N  N452  1  0.70219000  0.17597000  0.45180000  1
  N  N453  1  0.69164000  0.22292000  0.49470000  1
  N  N454  1  0.68117000  0.63981000  0.03000000  1
  N  N455  1  0.66558000  0.20232000  0.22830000  1
  N  N456  1  0.66074000  0.25070000  0.27450000  1
  N  N457  1  0.65737000  0.04803000  0.57100000  1
  N  N458  1  0.65269000  0.09911000  0.61440000  1
  N  N459  1  0.62565000  0.67479000  0.76120000  1
  N  N460  1  0.58641000  0.13555000  0.26120000  1
  N  N461  1  0.57364000  0.08580000  0.49920000  1
  N  N462  1  0.55127000  0.07307000  0.27900000  1
  N  N463  1  0.52824000  0.09868000  0.43430000  1
  N  N464  1  0.52598000  0.56272000  0.72830000  1
  N  N465  1  0.52380000  0.61376000  0.77450000  1
  N  N466  1  0.47620000  0.38624000  0.22550000  1
  N  N467  1  0.47402000  0.43728000  0.27170000  1
  N  N468  1  0.47176000  0.90132000  0.56570000  1
  N  N469  1  0.44873000  0.92693000  0.72100000  1
  N  N470  1  0.42636000  0.91420000  0.50080000  1
  N  N471  1  0.41359000  0.86445000  0.73880000  1
  N  N472  1  0.37435000  0.32521000  0.23880000  1
  N  N473  1  0.34731000  0.90089000  0.38560000  1
  N  N474  1  0.34263000  0.95197000  0.42900000  1
  N  N475  1  0.33926000  0.74930000  0.72550000  1
  N  N476  1  0.33442000  0.79768000  0.77170000  1
  N  N477  1  0.31883000  0.36019000  0.97000000  1
  N  N478  1  0.30836000  0.77708000  0.50530000  1
  N  N479  1  0.29781000  0.82403000  0.54820000  1
  N  N480  1  0.29407000  0.27227000  0.22100000  1
  N  N481  1  0.28699000  0.30613000  0.99750000  1
  N  N482  1  0.22822000  0.19694000  0.00530000  1
  N  N483  1  0.22417000  0.25039000  0.04820000  1
  N  N484  1  0.19137000  0.71051000  0.49750000  1
  N  N485  1  0.16968000  0.26986000  0.80580000  1
  N  N486  1  0.16438000  0.09394000  0.06570000  1
  N  N487  1  0.15141000  0.20625000  0.75610000  1
  N  N488  1  0.13720000  0.80000000  0.27840000  1
  N  N489  1  0.10981000  0.65117000  0.47000000  1
  N  N490  1  0.10031000  0.72597000  0.27770000  1
  N  N491  1  0.08660000  0.07444000  0.00080000  1
  N  N492  1  0.05173000  0.17739000  0.77770000  1
  N  N493  1  0.04985000  0.60469000  0.25610000  1
  N  N494  1  0.03594000  0.63612000  0.30580000  1
  N  N495  1  0.02297000  0.91363000  0.07100000  1
  N  N496  1  0.02160000  0.85880000  0.22160000  1
  N  N497  1  0.01529000  0.96171000  0.11440000  1
  O  O498  1  0.97435000  0.77603000  0.61980000  1
  O  O499  1  0.95556000  0.68654000  0.53270000  1
  O  O500  1  0.88324000  0.75506000  0.69786000  1
  O  O501  1  0.87101000  0.78647000  0.42570000  1
  O  O502  1  0.86077000  0.44531000  0.07430000  1
  O  O503  1  0.84468000  0.67130000  0.37120000  1
  O  O504  1  0.82772000  0.61470000  0.59950000  1
  O  O505  1  0.82274000  0.81865000  0.57301000  1
  O  O506  1  0.81255000  0.80860000  0.71553000  1
  O  O507  1  0.80741000  0.54109000  0.50100000  1
  O  O508  1  0.80461000  0.90564000  0.62297000  1
  O  O509  1  0.80010000  0.47348000  0.12880000  1
  O  O510  1  0.78863000  0.16494000  0.09249000  1
  O  O511  1  0.78589000  0.68320000  0.47197000  1
  O  O512  1  0.78267000  0.18164000  0.87703000  1
  O  O513  1  0.77781000  0.11051000  0.99050000  1
  O  O514  1  0.74564000  0.24973000  0.92699000  1
  O  O515  1  0.72171000  0.96477000  0.83596000  1
  O  O516  1  0.71123000  0.31392000  0.02803000  1
  O  O517  1  0.70019000  0.68198000  0.55679000  1
  O  O518  1  0.65623000  0.35455000  0.88020000  1
  O  O519  1  0.65384000  0.42286000  0.96730000  1
  O  O520  1  0.64739000  0.78477000  0.65056000  1
  O  O521  1  0.63421000  0.99683000  0.84944000  1
  O  O522  1  0.62881000  0.88575000  0.66404000  1
  O  O523  1  0.62803000  0.57471000  0.46326000  1
  O  O524  1  0.62519000  0.14340000  0.94321000  1
  O  O525  1  0.62001000  0.78731000  0.50950000  1
  O  O526  1  0.61145000  0.16477000  0.03674000  1
  O  O527  1  0.59307000  0.09702000  0.78447000  1
  O  O528  1  0.57245000  0.69614000  0.40751000  1
  O  O529  1  0.55720000  0.18538000  0.80214000  1
  O  O530  1  0.54009000  0.30641000  0.99900000  1
  O  O531  1  0.51520000  0.22822000  0.90050000  1
  O  O532  1  0.48480000  0.77178000  0.09950000  1
  O  O533  1  0.45991000  0.69359000  0.00100000  1
  O  O534  1  0.44280000  0.81462000  0.19786000  1
  O  O535  1  0.42755000  0.30386000  0.59249000  1
  O  O536  1  0.40693000  0.90298000  0.21553000  1
  O  O537  1  0.38855000  0.83523000  0.96326000  1
  O  O538  1  0.37999000  0.21269000  0.49050000  1
  O  O539  1  0.37481000  0.85660000  0.05679000  1
  O  O540  1  0.37197000  0.42529000  0.53674000  1
  O  O541  1  0.37119000  0.11425000  0.33596000  1
  O  O542  1  0.36579000  0.00317000  0.15056000  1
  O  O543  1  0.35261000  0.21523000  0.34944000  1
  O  O544  1  0.34616000  0.57714000  0.03270000  1
  O  O545  1  0.34377000  0.64545000  0.11980000  1
  O  O546  1  0.29981000  0.31802000  0.44321000  1
  O  O547  1  0.28877000  0.68608000  0.97197000  1
  O  O548  1  0.27829000  0.03523000  0.16404000  1
  O  O549  1  0.25436000  0.75027000  0.07301000  1
  O  O550  1  0.22219000  0.88949000  0.00950000  1
  O  O551  1  0.21733000  0.81836000  0.12297000  1
  O  O552  1  0.21411000  0.31680000  0.52803000  1
  O  O553  1  0.21137000  0.83506000  0.90751000  1
  O  O554  1  0.19990000  0.52652000  0.87120000  1
  O  O555  1  0.19539000  0.09436000  0.37703000  1
  O  O556  1  0.19259000  0.45891000  0.49900000  1
  O  O557  1  0.18745000  0.19140000  0.28447000  1
  O  O558  1  0.17726000  0.18135000  0.42699000  1
  O  O559  1  0.17228000  0.38530000  0.40050000  1
  O  O560  1  0.15532000  0.32870000  0.62880000  1
  O  O561  1  0.13923000  0.55469000  0.92570000  1
  O  O562  1  0.12899000  0.21353000  0.57430000  1
  O  O563  1  0.11676000  0.24494000  0.30214000  1
  O  O564  1  0.04444000  0.31346000  0.46730000  1
  O  O565  1  0.02565000  0.22397000  0.38020000  1
