# generated using pymatgen
data_CdH5C10N3O4
_symmetry_space_group_name_H-M   'P 1'
_cell_length_a   10.77310000
_cell_length_b   12.41990000
_cell_length_c   13.53260000
_cell_angle_alpha   99.09890000
_cell_angle_beta   90.00000000
_cell_angle_gamma   115.70300000
_symmetry_Int_Tables_number   1
_chemical_formula_structural   CdH5C10N3O4
_chemical_formula_sum   'Cd4 H20 C40 N12 O16'
_cell_volume   1606.19139992
_cell_formula_units_Z   4
loop_
 _symmetry_equiv_pos_site_id
 _symmetry_equiv_pos_as_xyz
  1  'x, y, z'
loop_
 _atom_site_type_symbol
 _atom_site_label
 _atom_site_symmetry_multiplicity
 _atom_site_fract_x
 _atom_site_fract_y
 _atom_site_fract_z
 _atom_site_occupancy
  Cd  Cd0  1  0.06483000  0.59390000  0.14135000  1
  Cd  Cd1  1  0.47093000  0.40610000  0.35865000  1
  Cd  Cd2  1  0.52907000  0.59390000  0.64135000  1
  Cd  Cd3  1  0.93517000  0.40610000  0.85865000  1
  H  H4  1  0.19520000  0.88660000  0.16270000  1
  H  H5  1  0.27670000  0.57260000  0.33210000  1
  H  H6  1  0.29590000  0.57260000  0.83210000  1
  H  H7  1  0.30860000  0.11340000  0.33730000  1
  H  H8  1  0.31310000  0.66320000  0.01300000  1
  H  H9  1  0.32070000  0.95420000  0.39370000  1
  H  H10  1  0.33480000  0.81480000  0.44720000  1
  H  H11  1  0.35010000  0.66320000  0.51300000  1
  H  H12  1  0.36650000  0.04580000  0.10630000  1
  H  H13  1  0.48000000  0.81480000  0.94720000  1
  H  H14  1  0.52000000  0.18520000  0.05280000  1
  H  H15  1  0.63350000  0.95420000  0.89370000  1
  H  H16  1  0.64990000  0.33680000  0.48700000  1
  H  H17  1  0.66520000  0.18520000  0.55280000  1
  H  H18  1  0.67930000  0.04580000  0.60630000  1
  H  H19  1  0.68690000  0.33680000  0.98700000  1
  H  H20  1  0.69140000  0.88660000  0.66270000  1
  H  H21  1  0.70410000  0.42740000  0.16790000  1
  H  H22  1  0.72330000  0.42740000  0.66790000  1
  H  H23  1  0.80480000  0.11340000  0.83730000  1
  C  C24  1  0.05110000  0.70960000  0.36470000  1
  C  C25  1  0.08870000  0.38180000  0.66990000  1
  C  C26  1  0.13880000  0.38340000  0.02300000  1
  C  C27  1  0.20930000  0.42060000  0.12470000  1
  C  C28  1  0.21130000  0.42060000  0.62470000  1
  C  C29  1  0.24460000  0.38340000  0.52300000  1
  C  C30  1  0.24980000  0.51900000  0.77360000  1
  C  C31  1  0.25340000  0.87080000  0.11810000  1
  C  C32  1  0.26920000  0.51900000  0.27360000  1
  C  C33  1  0.29310000  0.38180000  0.16990000  1
  C  C34  1  0.32090000  0.74140000  0.03060000  1
  C  C35  1  0.34150000  0.29040000  0.13530000  1
  C  C36  1  0.35710000  0.96760000  0.08450000  1
  C  C37  1  0.38260000  0.12920000  0.38190000  1
  C  C38  1  0.38950000  0.03240000  0.41550000  1
  C  C39  1  0.40900000  0.83300000  0.49250000  1
  C  C40  1  0.42050000  0.74140000  0.53060000  1
  C  C41  1  0.42400000  0.83300000  0.99250000  1
  C  C42  1  0.44460000  0.94980000  0.02040000  1
  C  C43  1  0.49480000  0.05020000  0.47960000  1
  C  C44  1  0.50520000  0.94980000  0.52040000  1
  C  C45  1  0.55540000  0.05020000  0.97960000  1
  C  C46  1  0.57600000  0.16700000  0.00750000  1
  C  C47  1  0.57950000  0.25860000  0.46940000  1
  C  C48  1  0.59100000  0.16700000  0.50750000  1
  C  C49  1  0.61050000  0.96760000  0.58450000  1
  C  C50  1  0.61740000  0.87080000  0.61810000  1
  C  C51  1  0.64290000  0.03240000  0.91550000  1
  C  C52  1  0.65850000  0.70960000  0.86470000  1
  C  C53  1  0.67910000  0.25860000  0.96940000  1
  C  C54  1  0.70690000  0.61820000  0.83010000  1
  C  C55  1  0.73080000  0.48100000  0.72640000  1
  C  C56  1  0.74660000  0.12920000  0.88190000  1
  C  C57  1  0.75020000  0.48100000  0.22640000  1
  C  C58  1  0.75540000  0.61660000  0.47700000  1
  C  C59  1  0.78870000  0.57940000  0.37530000  1
  C  C60  1  0.79070000  0.57940000  0.87530000  1
  C  C61  1  0.86120000  0.61660000  0.97700000  1
  C  C62  1  0.91130000  0.61820000  0.33010000  1
  C  C63  1  0.94890000  0.29040000  0.63530000  1
  N  N64  1  0.11450000  0.44660000  0.76520000  1
  N  N65  1  0.19450000  0.50720000  0.19090000  1
  N  N66  1  0.23270000  0.75840000  0.09050000  1
  N  N67  1  0.31270000  0.50720000  0.69090000  1
  N  N68  1  0.33210000  0.44660000  0.26520000  1
  N  N69  1  0.47430000  0.24160000  0.40950000  1
  N  N70  1  0.52570000  0.75840000  0.59050000  1
  N  N71  1  0.66790000  0.55340000  0.73480000  1
  N  N72  1  0.68730000  0.49280000  0.30910000  1
  N  N73  1  0.76730000  0.24160000  0.90950000  1
  N  N74  1  0.80550000  0.49280000  0.80910000  1
  N  N75  1  0.88550000  0.55340000  0.23480000  1
  O  O76  1  0.06940000  0.77060000  0.45340000  1
  O  O77  1  0.07150000  0.43940000  0.00330000  1
  O  O78  1  0.14510000  0.29800000  0.96550000  1
  O  O79  1  0.14530000  0.72860000  0.30820000  1
  O  O80  1  0.15290000  0.29800000  0.46550000  1
  O  O81  1  0.29880000  0.22940000  0.04660000  1
  O  O82  1  0.36790000  0.43940000  0.50330000  1
  O  O83  1  0.41670000  0.27140000  0.19180000  1
  O  O84  1  0.58330000  0.72860000  0.80820000  1
  O  O85  1  0.63210000  0.56060000  0.49670000  1
  O  O86  1  0.70120000  0.77060000  0.95340000  1
  O  O87  1  0.84710000  0.70200000  0.53450000  1
  O  O88  1  0.85470000  0.27140000  0.69180000  1
  O  O89  1  0.85490000  0.70200000  0.03450000  1
  O  O90  1  0.92850000  0.56060000  0.99670000  1
  O  O91  1  0.93060000  0.22940000  0.54660000  1
