# generated using pymatgen
data_MgIn2H16C20(N4O11)2
_symmetry_space_group_name_H-M   'P 1'
_cell_length_a   26.83293111
_cell_length_b   26.83293111
_cell_length_c   26.83293111
_cell_angle_alpha   109.47122063
_cell_angle_beta   109.47122063
_cell_angle_gamma   109.47122063
_symmetry_Int_Tables_number   1
_chemical_formula_structural   MgIn2H16C20(N4O11)2
_chemical_formula_sum   'Mg12 In24 H192 C240 N96 O264'
_cell_volume   14872.44790195
_cell_formula_units_Z   12
loop_
 _symmetry_equiv_pos_site_id
 _symmetry_equiv_pos_as_xyz
  1  'x, y, z'
loop_
 _atom_site_type_symbol
 _atom_site_label
 _atom_site_symmetry_multiplicity
 _atom_site_fract_x
 _atom_site_fract_y
 _atom_site_fract_z
 _atom_site_occupancy
  C  C0  1  0.24696000  0.61507000  0.86203000  1
  C  C1  1  0.24696000  0.38493000  0.63189000  1
  C  C2  1  0.38493000  0.75304000  0.13797000  1
  C  C3  1  0.38493000  0.24696000  0.63189000  1
  C  C4  1  0.61507000  0.75304000  0.36811000  1
  C  C5  1  0.61507000  0.24696000  0.86203000  1
  C  C6  1  0.75304000  0.61507000  0.36811000  1
  C  C7  1  0.75304000  0.38493000  0.13797000  1
  C  C8  1  0.32932000  0.60926000  0.89292000  1
  C  C9  1  0.32932000  0.43640000  0.72006000  1
  C  C10  1  0.43640000  0.71634000  0.10708000  1
  C  C11  1  0.43640000  0.32932000  0.72006000  1
  C  C12  1  0.60926000  0.71634000  0.27994000  1
  C  C13  1  0.60926000  0.32932000  0.89292000  1
  C  C14  1  0.71634000  0.60926000  0.27994000  1
  C  C15  1  0.71634000  0.43640000  0.10708000  1
  C  C16  1  0.38909000  0.61864000  0.90627000  1
  C  C17  1  0.38909000  0.48282000  0.77045000  1
  C  C18  1  0.48282000  0.71237000  0.09373000  1
  C  C19  1  0.48282000  0.38909000  0.77045000  1
  C  C20  1  0.61864000  0.71237000  0.22955000  1
  C  C21  1  0.61864000  0.38909000  0.90627000  1
  C  C22  1  0.71237000  0.61864000  0.22955000  1
  C  C23  1  0.71237000  0.48282000  0.09373000  1
  C  C24  1  0.22955000  0.61864000  0.71237000  1
  C  C25  1  0.22955000  0.51718000  0.61091000  1
  C  C26  1  0.51718000  0.90627000  0.28763000  1
  C  C27  1  0.51718000  0.22955000  0.61091000  1
  C  C28  1  0.61864000  0.90627000  0.38909000  1
  C  C29  1  0.61864000  0.22955000  0.71237000  1
  C  C30  1  0.90627000  0.61864000  0.38909000  1
  C  C31  1  0.90627000  0.51718000  0.28763000  1
  C  C32  1  0.27994000  0.60926000  0.71634000  1
  C  C33  1  0.27994000  0.56360000  0.67068000  1
  C  C34  1  0.56360000  0.89292000  0.28366000  1
  C  C35  1  0.56360000  0.27994000  0.67068000  1
  C  C36  1  0.60926000  0.89292000  0.32932000  1
  C  C37  1  0.60926000  0.27994000  0.71634000  1
  C  C38  1  0.89292000  0.60926000  0.32932000  1
  C  C39  1  0.89292000  0.56360000  0.28366000  1
  C  C40  1  0.43118000  0.77116000  1.00000000  1
  C  C41  1  0.43118000  0.43118000  0.66002000  1
  C  C42  1  0.77116000  0.77116000  0.33998000  1
  C  C43  1  0.77116000  0.43118000  0.00000000  1
  C  C44  1  0.36811000  0.61507000  0.75304000  1
  C  C45  1  0.61507000  0.86203000  0.24696000  1
  C  C46  1  0.61507000  0.36811000  0.75304000  1
  C  C47  1  0.86203000  0.61507000  0.24696000  1
  C  C48  1  0.30885000  0.82590000  0.89869000  1
  C  C49  1  0.30885000  0.41016000  0.48295000  1
  C  C50  1  0.41016000  0.92721000  0.10131000  1
  C  C51  1  0.41016000  0.30885000  0.48295000  1
  C  C52  1  0.82590000  0.92721000  0.51705000  1
  C  C53  1  0.82590000  0.30885000  0.89869000  1
  C  C54  1  0.92721000  0.82590000  0.51705000  1
  C  C55  1  0.92721000  0.41016000  0.10131000  1
  C  C56  1  0.32161000  0.81678000  0.84775000  1
  C  C57  1  0.32161000  0.47386000  0.50483000  1
  C  C58  1  0.47386000  0.96903000  0.15225000  1
  C  C59  1  0.47386000  0.32161000  0.50483000  1
  C  C60  1  0.81678000  0.96903000  0.49517000  1
  C  C61  1  0.81678000  0.32161000  0.84775000  1
  C  C62  1  0.96903000  0.81678000  0.49517000  1
  C  C63  1  0.96903000  0.47386000  0.15225000  1
  C  C64  1  0.22955000  0.71237000  0.61864000  1
  C  C65  1  0.22955000  0.61091000  0.51718000  1
  C  C66  1  0.61091000  0.09373000  0.38136000  1
  C  C67  1  0.61091000  0.22955000  0.51718000  1
  C  C68  1  0.71237000  0.09373000  0.48282000  1
  C  C69  1  0.71237000  0.22955000  0.61864000  1
  C  C70  1  0.09373000  0.71237000  0.48282000  1
  C  C71  1  0.09373000  0.61091000  0.38136000  1
  C  C72  1  0.33998000  0.77116000  0.77116000  1
  C  C73  1  0.33998000  0.56882000  0.56882000  1
  C  C74  1  0.56882000  1.00000000  0.22884000  1
  C  C75  1  0.56882000  0.33998000  0.56882000  1
  C  C76  1  0.77116000  1.00000000  0.43118000  1
  C  C77  1  0.77116000  0.33998000  0.77116000  1
  C  C78  1  0.00000000  0.77116000  0.43118000  1
  C  C79  1  0.00000000  0.56882000  0.22884000  1
  C  C80  1  0.49517000  0.81678000  0.96903000  1
  C  C81  1  0.49517000  0.52614000  0.67839000  1
  C  C82  1  0.52614000  0.84775000  0.03097000  1
  C  C83  1  0.52614000  0.49517000  0.67839000  1
  C  C84  1  0.81678000  0.84775000  0.32161000  1
  C  C85  1  0.81678000  0.49517000  0.96903000  1
  C  C86  1  0.84775000  0.81678000  0.32161000  1
  C  C87  1  0.84775000  0.52614000  0.03097000  1
  C  C88  1  0.32161000  0.84775000  0.81678000  1
  C  C89  1  0.32161000  0.50483000  0.47386000  1
  C  C90  1  0.50483000  0.03097000  0.18322000  1
  C  C91  1  0.50483000  0.32161000  0.47386000  1
  C  C92  1  0.84775000  0.03097000  0.52614000  1
  C  C93  1  0.84775000  0.32161000  0.81678000  1
  C  C94  1  0.03097000  0.84775000  0.52614000  1
  C  C95  1  0.03097000  0.50483000  0.18322000  1
  C  C96  1  0.30885000  0.89869000  0.82590000  1
  C  C97  1  0.30885000  0.48295000  0.41016000  1
  C  C98  1  0.48295000  0.07279000  0.17410000  1
  C  C99  1  0.48295000  0.30885000  0.41016000  1
  C  C100  1  0.89869000  0.07279000  0.58984000  1
  C  C101  1  0.89869000  0.30885000  0.82590000  1
  C  C102  1  0.07279000  0.89869000  0.58984000  1
  C  C103  1  0.07279000  0.48295000  0.17410000  1
  C  C104  1  0.27994000  0.71634000  0.60926000  1
  C  C105  1  0.27994000  0.67068000  0.56360000  1
  C  C106  1  0.67068000  0.10708000  0.39074000  1
  C  C107  1  0.67068000  0.27994000  0.56360000  1
  C  C108  1  0.71634000  0.10708000  0.43640000  1
  C  C109  1  0.71634000  0.27994000  0.60926000  1
  C  C110  1  0.10708000  0.71634000  0.43640000  1
  C  C111  1  0.10708000  0.67068000  0.39074000  1
  C  C112  1  0.51705000  0.82590000  0.92721000  1
  C  C113  1  0.51705000  0.58984000  0.69115000  1
  C  C114  1  0.58984000  0.89869000  0.07279000  1
  C  C115  1  0.58984000  0.51705000  0.69115000  1
  C  C116  1  0.82590000  0.89869000  0.30885000  1
  C  C117  1  0.82590000  0.51705000  0.92721000  1
  C  C118  1  0.89869000  0.82590000  0.30885000  1
  C  C119  1  0.89869000  0.58984000  0.07279000  1
  C  C120  1  0.24696000  0.86203000  0.61507000  1
  C  C121  1  0.24696000  0.63189000  0.38493000  1
  C  C122  1  0.63189000  0.24696000  0.38493000  1
  C  C123  1  0.86203000  0.24696000  0.61507000  1
  C  C124  1  0.36811000  0.75304000  0.61507000  1
  C  C125  1  0.75304000  0.13797000  0.38493000  1
  C  C126  1  0.75304000  0.36811000  0.61507000  1
  C  C127  1  0.13797000  0.75304000  0.38493000  1
  C  C128  1  0.41016000  0.10131000  0.92721000  1
  C  C129  1  0.41016000  0.48295000  0.30885000  1
  C  C130  1  0.48295000  0.17410000  0.07279000  1
  C  C131  1  0.48295000  0.41016000  0.30885000  1
  C  C132  1  0.10131000  0.17410000  0.69115000  1
  C  C133  1  0.10131000  0.41016000  0.92721000  1
  C  C134  1  0.17410000  0.10131000  0.69115000  1
  C  C135  1  0.17410000  0.48295000  0.07279000  1
  C  C136  1  0.32932000  0.89292000  0.60926000  1
  C  C137  1  0.32932000  0.72006000  0.43640000  1
  C  C138  1  0.72006000  0.28366000  0.39074000  1
  C  C139  1  0.72006000  0.32932000  0.43640000  1
  C  C140  1  0.89292000  0.28366000  0.56360000  1
  C  C141  1  0.89292000  0.32932000  0.60926000  1
  C  C142  1  0.28366000  0.89292000  0.56360000  1
  C  C143  1  0.28366000  0.72006000  0.39074000  1
  C  C144  1  0.51705000  0.92721000  0.82590000  1
  C  C145  1  0.51705000  0.69115000  0.58984000  1
  C  C146  1  0.69115000  0.10131000  0.17410000  1
  C  C147  1  0.69115000  0.51705000  0.58984000  1
  C  C148  1  0.92721000  0.10131000  0.41016000  1
  C  C149  1  0.92721000  0.51705000  0.82590000  1
  C  C150  1  0.10131000  0.92721000  0.41016000  1
  C  C151  1  0.10131000  0.69115000  0.17410000  1
  C  C152  1  0.49517000  0.96903000  0.81678000  1
  C  C153  1  0.49517000  0.67839000  0.52614000  1
  C  C154  1  0.67839000  0.15225000  0.18322000  1
  C  C155  1  0.67839000  0.49517000  0.52614000  1
  C  C156  1  0.96903000  0.15225000  0.47386000  1
  C  C157  1  0.96903000  0.49517000  0.81678000  1
  C  C158  1  0.15225000  0.96903000  0.47386000  1
  C  C159  1  0.15225000  0.67839000  0.18322000  1
  C  C160  1  0.47386000  0.15225000  0.96903000  1
  C  C161  1  0.47386000  0.50483000  0.32161000  1
  C  C162  1  0.50483000  0.18322000  0.03097000  1
  C  C163  1  0.50483000  0.47386000  0.32161000  1
  C  C164  1  0.15225000  0.18322000  0.67839000  1
  C  C165  1  0.15225000  0.47386000  0.96903000  1
  C  C166  1  0.18322000  0.15225000  0.67839000  1
  C  C167  1  0.18322000  0.50483000  0.03097000  1
  C  C168  1  0.43118000  0.00000000  0.77116000  1
  C  C169  1  0.43118000  0.66002000  0.43118000  1
  C  C170  1  0.66002000  0.22884000  0.22884000  1
  C  C171  1  0.66002000  0.43118000  0.43118000  1
  C  C172  1  0.00000000  0.22884000  0.56882000  1
  C  C173  1  0.00000000  0.43118000  0.77116000  1
  C  C174  1  0.22884000  0.00000000  0.56882000  1
  C  C175  1  0.22884000  0.66002000  0.22884000  1
  C  C176  1  0.38909000  0.90627000  0.61864000  1
  C  C177  1  0.38909000  0.77045000  0.48282000  1
  C  C178  1  0.77045000  0.28763000  0.38136000  1
  C  C179  1  0.77045000  0.38909000  0.48282000  1
  C  C180  1  0.90627000  0.28763000  0.51718000  1
  C  C181  1  0.90627000  0.38909000  0.61864000  1
  C  C182  1  0.28763000  0.90627000  0.51718000  1
  C  C183  1  0.28763000  0.77045000  0.38136000  1
  C  C184  1  0.52614000  0.03097000  0.84775000  1
  C  C185  1  0.52614000  0.67839000  0.49517000  1
  C  C186  1  0.67839000  0.18322000  0.15225000  1
  C  C187  1  0.67839000  0.52614000  0.49517000  1
  C  C188  1  0.03097000  0.18322000  0.50483000  1
  C  C189  1  0.03097000  0.52614000  0.84775000  1
  C  C190  1  0.18322000  0.03097000  0.50483000  1
  C  C191  1  0.18322000  0.67839000  0.15225000  1
  C  C192  1  0.58984000  0.07279000  0.89869000  1
  C  C193  1  0.58984000  0.69115000  0.51705000  1
  C  C194  1  0.69115000  0.17410000  0.10131000  1
  C  C195  1  0.69115000  0.58984000  0.51705000  1
  C  C196  1  0.07279000  0.17410000  0.48295000  1
  C  C197  1  0.07279000  0.58984000  0.89869000  1
  C  C198  1  0.17410000  0.07279000  0.48295000  1
  C  C199  1  0.17410000  0.69115000  0.10131000  1
  C  C200  1  0.38493000  0.13797000  0.75304000  1
  C  C201  1  0.38493000  0.63189000  0.24696000  1
  C  C202  1  0.63189000  0.38493000  0.24696000  1
  C  C203  1  0.13797000  0.38493000  0.75304000  1
  C  C204  1  0.56882000  0.22884000  1.00000000  1
  C  C205  1  0.56882000  0.56882000  0.33998000  1
  C  C206  1  0.22884000  0.22884000  0.66002000  1
  C  C207  1  0.22884000  0.56882000  1.00000000  1
  C  C208  1  0.43640000  0.10708000  0.71634000  1
  C  C209  1  0.43640000  0.72006000  0.32932000  1
  C  C210  1  0.72006000  0.39074000  0.28366000  1
  C  C211  1  0.72006000  0.43640000  0.32932000  1
  C  C212  1  0.10708000  0.39074000  0.67068000  1
  C  C213  1  0.10708000  0.43640000  0.71634000  1
  C  C214  1  0.39074000  0.10708000  0.67068000  1
  C  C215  1  0.39074000  0.72006000  0.28366000  1
  C  C216  1  0.48282000  0.09373000  0.71237000  1
  C  C217  1  0.48282000  0.77045000  0.38909000  1
  C  C218  1  0.77045000  0.38136000  0.28763000  1
  C  C219  1  0.77045000  0.48282000  0.38909000  1
  C  C220  1  0.09373000  0.38136000  0.61091000  1
  C  C221  1  0.09373000  0.48282000  0.71237000  1
  C  C222  1  0.38136000  0.09373000  0.61091000  1
  C  C223  1  0.38136000  0.77045000  0.28763000  1
  C  C224  1  0.51718000  0.28763000  0.90627000  1
  C  C225  1  0.51718000  0.61091000  0.22955000  1
  C  C226  1  0.61091000  0.38136000  0.09373000  1
  C  C227  1  0.61091000  0.51718000  0.22955000  1
  C  C228  1  0.28763000  0.38136000  0.77045000  1
  C  C229  1  0.28763000  0.51718000  0.90627000  1
  C  C230  1  0.38136000  0.28763000  0.77045000  1
  C  C231  1  0.38136000  0.61091000  0.09373000  1
  C  C232  1  0.56360000  0.28366000  0.89292000  1
  C  C233  1  0.56360000  0.67068000  0.27994000  1
  C  C234  1  0.67068000  0.39074000  0.10708000  1
  C  C235  1  0.67068000  0.56360000  0.27994000  1
  C  C236  1  0.28366000  0.39074000  0.72006000  1
  C  C237  1  0.28366000  0.56360000  0.89292000  1
  C  C238  1  0.39074000  0.28366000  0.72006000  1
  C  C239  1  0.39074000  0.67068000  0.10708000  1
  H  H240  1  0.21516000  0.62936000  0.84452000  1
  H  H241  1  0.21516000  0.37064000  0.58580000  1
  H  H242  1  0.37064000  0.78484000  0.15548000  1
  H  H243  1  0.37064000  0.21516000  0.58580000  1
  H  H244  1  0.62936000  0.78484000  0.41420000  1
  H  H245  1  0.62936000  0.21516000  0.84452000  1
  H  H246  1  0.78484000  0.62936000  0.41420000  1
  H  H247  1  0.78484000  0.37064000  0.15548000  1
  H  H248  1  0.12395000  0.84070000  0.91429000  1
  H  H249  1  0.12395000  0.20966000  0.28325000  1
  H  H250  1  0.17605000  0.77773000  0.90342000  1
  H  H251  1  0.17605000  0.27263000  0.39832000  1
  H  H252  1  0.20966000  0.92641000  0.08571000  1
  H  H253  1  0.20966000  0.12395000  0.28325000  1
  H  H254  1  0.27263000  0.87431000  0.09658000  1
  H  H255  1  0.27263000  0.17605000  0.39832000  1
  H  H256  1  0.77773000  0.87431000  0.60168000  1
  H  H257  1  0.77773000  0.17605000  0.90342000  1
  H  H258  1  0.84070000  0.92641000  0.71675000  1
  H  H259  1  0.84070000  0.12395000  0.91429000  1
  H  H260  1  0.87431000  0.77773000  0.60168000  1
  H  H261  1  0.87431000  0.27263000  0.09658000  1
  H  H262  1  0.92641000  0.84070000  0.71675000  1
  H  H263  1  0.92641000  0.20966000  0.08571000  1
  H  H264  1  0.22854000  0.88882000  0.96440000  1
  H  H265  1  0.22854000  0.26414000  0.33972000  1
  H  H266  1  0.26414000  0.92442000  0.03560000  1
  H  H267  1  0.26414000  0.22854000  0.33972000  1
  H  H268  1  0.88882000  0.92442000  0.66028000  1
  H  H269  1  0.88882000  0.22854000  0.96440000  1
  H  H270  1  0.92442000  0.88882000  0.66028000  1
  H  H271  1  0.92442000  0.26414000  0.03560000  1
  H  H272  1  0.39376000  0.78032000  1.00000000  1
  H  H273  1  0.39376000  0.39376000  0.61344000  1
  H  H274  1  0.78032000  0.78032000  0.38656000  1
  H  H275  1  0.78032000  0.39376000  1.00000000  1
  H  H276  1  0.12395000  0.91429000  0.84070000  1
  H  H277  1  0.12395000  0.28325000  0.20966000  1
  H  H278  1  0.28325000  0.07359000  0.15930000  1
  H  H279  1  0.28325000  0.12395000  0.20966000  1
  H  H280  1  0.91429000  0.07359000  0.79034000  1
  H  H281  1  0.91429000  0.12395000  0.84070000  1
  H  H282  1  0.07359000  0.91429000  0.79034000  1
  H  H283  1  0.07359000  0.28325000  0.15930000  1
  H  H284  1  0.41420000  0.62936000  0.78484000  1
  H  H285  1  0.62936000  0.84452000  0.21516000  1
  H  H286  1  0.62936000  0.41420000  0.78484000  1
  H  H287  1  0.84452000  0.62936000  0.21516000  1
  H  H288  1  0.17605000  0.90342000  0.77773000  1
  H  H289  1  0.17605000  0.39832000  0.27263000  1
  H  H290  1  0.39832000  0.12569000  0.22227000  1
  H  H291  1  0.39832000  0.17605000  0.27263000  1
  H  H292  1  0.90342000  0.12569000  0.72737000  1
  H  H293  1  0.90342000  0.17605000  0.77773000  1
  H  H294  1  0.12569000  0.90342000  0.72737000  1
  H  H295  1  0.12569000  0.39832000  0.22227000  1
  H  H296  1  0.22854000  0.96440000  0.88882000  1
  H  H297  1  0.22854000  0.33972000  0.26414000  1
  H  H298  1  0.33972000  0.07558000  0.11118000  1
  H  H299  1  0.33972000  0.22854000  0.26414000  1
  H  H300  1  0.96440000  0.07558000  0.73586000  1
  H  H301  1  0.96440000  0.22854000  0.88882000  1
  H  H302  1  0.07558000  0.96440000  0.73586000  1
  H  H303  1  0.07558000  0.33972000  0.11118000  1
  H  H304  1  0.20966000  0.08571000  0.92641000  1
  H  H305  1  0.20966000  0.28325000  0.12395000  1
  H  H306  1  0.28325000  0.15930000  0.07359000  1
  H  H307  1  0.28325000  0.20966000  0.12395000  1
  H  H308  1  0.08571000  0.15930000  0.87605000  1
  H  H309  1  0.08571000  0.20966000  0.92641000  1
  H  H310  1  0.15930000  0.08571000  0.87605000  1
  H  H311  1  0.15930000  0.28325000  0.07359000  1
  H  H312  1  0.26414000  0.03560000  0.92442000  1
  H  H313  1  0.26414000  0.33972000  0.22854000  1
  H  H314  1  0.33972000  0.11118000  0.07558000  1
  H  H315  1  0.33972000  0.26414000  0.22854000  1
  H  H316  1  0.03560000  0.11118000  0.77146000  1
  H  H317  1  0.03560000  0.26414000  0.92442000  1
  H  H318  1  0.11118000  0.03560000  0.77146000  1
  H  H319  1  0.11118000  0.33972000  0.07558000  1
  H  H320  1  0.38656000  0.78032000  0.78032000  1
  H  H321  1  0.38656000  0.60624000  0.60624000  1
  H  H322  1  0.60624000  1.00000000  0.21968000  1
  H  H323  1  0.60624000  0.38656000  0.60624000  1
  H  H324  1  0.78032000  1.00000000  0.39376000  1
  H  H325  1  0.78032000  0.38656000  0.78032000  1
  H  H326  1  0.00000000  0.78032000  0.39376000  1
  H  H327  1  0.00000000  0.60624000  0.21968000  1
  H  H328  1  0.21516000  0.84452000  0.62936000  1
  H  H329  1  0.21516000  0.58580000  0.37064000  1
  H  H330  1  0.58580000  0.21516000  0.37064000  1
  H  H331  1  0.84452000  0.21516000  0.62936000  1
  H  H332  1  0.27263000  0.09658000  0.87431000  1
  H  H333  1  0.27263000  0.39832000  0.17605000  1
  H  H334  1  0.39832000  0.22227000  0.12569000  1
  H  H335  1  0.39832000  0.27263000  0.17605000  1
  H  H336  1  0.09658000  0.22227000  0.82395000  1
  H  H337  1  0.09658000  0.27263000  0.87431000  1
  H  H338  1  0.22227000  0.09658000  0.82395000  1
  H  H339  1  0.22227000  0.39832000  0.12569000  1
  H  H340  1  0.60168000  0.77773000  0.87431000  1
  H  H341  1  0.60168000  0.72737000  0.82395000  1
  H  H342  1  0.72737000  0.90342000  0.12569000  1
  H  H343  1  0.72737000  0.60168000  0.82395000  1
  H  H344  1  0.77773000  0.90342000  0.17605000  1
  H  H345  1  0.77773000  0.60168000  0.87431000  1
  H  H346  1  0.90342000  0.77773000  0.17605000  1
  H  H347  1  0.90342000  0.72737000  0.12569000  1
  H  H348  1  0.41420000  0.78484000  0.62936000  1
  H  H349  1  0.78484000  0.15548000  0.37064000  1
  H  H350  1  0.78484000  0.41420000  0.62936000  1
  H  H351  1  0.15548000  0.78484000  0.37064000  1
  H  H352  1  0.39376000  1.00000000  0.78032000  1
  H  H353  1  0.39376000  0.61344000  0.39376000  1
  H  H354  1  0.61344000  0.21968000  0.21968000  1
  H  H355  1  0.61344000  0.39376000  0.39376000  1
  H  H356  1  0.00000000  0.21968000  0.60624000  1
  H  H357  1  0.00000000  0.39376000  0.78032000  1
  H  H358  1  0.21968000  1.00000000  0.60624000  1
  H  H359  1  0.21968000  0.61344000  0.21968000  1
  H  H360  1  0.66028000  0.88882000  0.92442000  1
  H  H361  1  0.66028000  0.73586000  0.77146000  1
  H  H362  1  0.73586000  0.96440000  0.07558000  1
  H  H363  1  0.73586000  0.66028000  0.77146000  1
  H  H364  1  0.88882000  0.96440000  0.22854000  1
  H  H365  1  0.88882000  0.66028000  0.92442000  1
  H  H366  1  0.96440000  0.88882000  0.22854000  1
  H  H367  1  0.96440000  0.73586000  0.07558000  1
  H  H368  1  0.71675000  0.84070000  0.92641000  1
  H  H369  1  0.71675000  0.79034000  0.87605000  1
  H  H370  1  0.79034000  0.91429000  0.07359000  1
  H  H371  1  0.79034000  0.71675000  0.87605000  1
  H  H372  1  0.84070000  0.91429000  0.12395000  1
  H  H373  1  0.84070000  0.71675000  0.92641000  1
  H  H374  1  0.91429000  0.84070000  0.12395000  1
  H  H375  1  0.91429000  0.79034000  0.07359000  1
  H  H376  1  0.66028000  0.92442000  0.88882000  1
  H  H377  1  0.66028000  0.77146000  0.73586000  1
  H  H378  1  0.77146000  0.03560000  0.11118000  1
  H  H379  1  0.77146000  0.66028000  0.73586000  1
  H  H380  1  0.92442000  0.03560000  0.26414000  1
  H  H381  1  0.92442000  0.66028000  0.88882000  1
  H  H382  1  0.03560000  0.92442000  0.26414000  1
  H  H383  1  0.03560000  0.77146000  0.11118000  1
  H  H384  1  0.60168000  0.87431000  0.77773000  1
  H  H385  1  0.60168000  0.82395000  0.72737000  1
  H  H386  1  0.82395000  0.09658000  0.22227000  1
  H  H387  1  0.82395000  0.60168000  0.72737000  1
  H  H388  1  0.87431000  0.09658000  0.27263000  1
  H  H389  1  0.87431000  0.60168000  0.77773000  1
  H  H390  1  0.09658000  0.87431000  0.27263000  1
  H  H391  1  0.09658000  0.82395000  0.22227000  1
  H  H392  1  0.37064000  0.15548000  0.78484000  1
  H  H393  1  0.37064000  0.58580000  0.21516000  1
  H  H394  1  0.58580000  0.37064000  0.21516000  1
  H  H395  1  0.15548000  0.37064000  0.78484000  1
  H  H396  1  0.71675000  0.92641000  0.84070000  1
  H  H397  1  0.71675000  0.87605000  0.79034000  1
  H  H398  1  0.87605000  0.08571000  0.15930000  1
  H  H399  1  0.87605000  0.71675000  0.79034000  1
  H  H400  1  0.92641000  0.08571000  0.20966000  1
  H  H401  1  0.92641000  0.71675000  0.84070000  1
  H  H402  1  0.08571000  0.92641000  0.20966000  1
  H  H403  1  0.08571000  0.87605000  0.15930000  1
  H  H404  1  0.60624000  0.21968000  1.00000000  1
  H  H405  1  0.60624000  0.60624000  0.38656000  1
  H  H406  1  0.21968000  0.21968000  0.61344000  1
  H  H407  1  0.21968000  0.60624000  1.00000000  1
  H  H408  1  0.73586000  0.07558000  0.96440000  1
  H  H409  1  0.73586000  0.77146000  0.66028000  1
  H  H410  1  0.77146000  0.11118000  0.03560000  1
  H  H411  1  0.77146000  0.73586000  0.66028000  1
  H  H412  1  0.07558000  0.11118000  0.33972000  1
  H  H413  1  0.07558000  0.73586000  0.96440000  1
  H  H414  1  0.11118000  0.07558000  0.33972000  1
  H  H415  1  0.11118000  0.77146000  0.03560000  1
  H  H416  1  0.72737000  0.12569000  0.90342000  1
  H  H417  1  0.72737000  0.82395000  0.60168000  1
  H  H418  1  0.79034000  0.07359000  0.91429000  1
  H  H419  1  0.79034000  0.87605000  0.71675000  1
  H  H420  1  0.82395000  0.22227000  0.09658000  1
  H  H421  1  0.82395000  0.72737000  0.60168000  1
  H  H422  1  0.87605000  0.15930000  0.08571000  1
  H  H423  1  0.87605000  0.79034000  0.71675000  1
  H  H424  1  0.07359000  0.15930000  0.28325000  1
  H  H425  1  0.07359000  0.79034000  0.91429000  1
  H  H426  1  0.12569000  0.22227000  0.39832000  1
  H  H427  1  0.12569000  0.72737000  0.90342000  1
  H  H428  1  0.15930000  0.07359000  0.28325000  1
  H  H429  1  0.15930000  0.87605000  0.08571000  1
  H  H430  1  0.22227000  0.12569000  0.39832000  1
  H  H431  1  0.22227000  0.82395000  0.09658000  1
  In  In432  1  0.35506000  0.71012000  0.85506000  1
  In  In433  1  0.35506000  0.50000000  0.64494000  1
  In  In434  1  0.50000000  0.85506000  0.14494000  1
  In  In435  1  0.50000000  0.35506000  0.64494000  1
  In  In436  1  0.71012000  0.85506000  0.35506000  1
  In  In437  1  0.71012000  0.35506000  0.85506000  1
  In  In438  1  0.85506000  0.71012000  0.35506000  1
  In  In439  1  0.85506000  0.50000000  0.14494000  1
  In  In440  1  0.35506000  0.85506000  0.71012000  1
  In  In441  1  0.35506000  0.64494000  0.50000000  1
  In  In442  1  0.64494000  0.14494000  0.28988000  1
  In  In443  1  0.64494000  0.35506000  0.50000000  1
  In  In444  1  0.85506000  0.14494000  0.50000000  1
  In  In445  1  0.85506000  0.35506000  0.71012000  1
  In  In446  1  0.14494000  0.85506000  0.50000000  1
  In  In447  1  0.14494000  0.64494000  0.28988000  1
  In  In448  1  0.50000000  0.14494000  0.85506000  1
  In  In449  1  0.50000000  0.64494000  0.35506000  1
  In  In450  1  0.64494000  0.28988000  0.14494000  1
  In  In451  1  0.64494000  0.50000000  0.35506000  1
  In  In452  1  0.14494000  0.28988000  0.64494000  1
  In  In453  1  0.14494000  0.50000000  0.85506000  1
  In  In454  1  0.28988000  0.14494000  0.64494000  1
  In  In455  1  0.28988000  0.64494000  0.14494000  1
  Mg  Mg456  1  0.17470000  0.82530000  1.00000000  1
  Mg  Mg457  1  0.17470000  0.17470000  0.34940000  1
  Mg  Mg458  1  0.82530000  0.82530000  0.65060000  1
  Mg  Mg459  1  0.82530000  0.17470000  1.00000000  1
  Mg  Mg460  1  0.17470000  1.00000000  0.82530000  1
  Mg  Mg461  1  0.17470000  0.34940000  0.17470000  1
  Mg  Mg462  1  0.34940000  0.17470000  0.17470000  1
  Mg  Mg463  1  0.00000000  0.17470000  0.82530000  1
  Mg  Mg464  1  0.65060000  0.82530000  0.82530000  1
  Mg  Mg465  1  0.82530000  1.00000000  0.17470000  1
  Mg  Mg466  1  0.82530000  0.65060000  0.82530000  1
  Mg  Mg467  1  0.00000000  0.82530000  0.17470000  1
  N  N468  1  0.30548000  0.64114000  0.87268000  1
  N  N469  1  0.30548000  0.43280000  0.66434000  1
  N  N470  1  0.43280000  0.76846000  0.12732000  1
  N  N471  1  0.43280000  0.30548000  0.66434000  1
  N  N472  1  0.64114000  0.76846000  0.33566000  1
  N  N473  1  0.64114000  0.30548000  0.87268000  1
  N  N474  1  0.76846000  0.64114000  0.33566000  1
  N  N475  1  0.76846000  0.43280000  0.12732000  1
  N  N476  1  0.33566000  0.64114000  0.76846000  1
  N  N477  1  0.33566000  0.56720000  0.69452000  1
  N  N478  1  0.56720000  0.87268000  0.23154000  1
  N  N479  1  0.56720000  0.33566000  0.69452000  1
  N  N480  1  0.64114000  0.87268000  0.30548000  1
  N  N481  1  0.64114000  0.33566000  0.76846000  1
  N  N482  1  0.87268000  0.64114000  0.30548000  1
  N  N483  1  0.87268000  0.56720000  0.23154000  1
  N  N484  1  0.43580000  0.76799000  0.94593000  1
  N  N485  1  0.43580000  0.48987000  0.66781000  1
  N  N486  1  0.48987000  0.82206000  0.05407000  1
  N  N487  1  0.48987000  0.43580000  0.66781000  1
  N  N488  1  0.76799000  0.82206000  0.33219000  1
  N  N489  1  0.76799000  0.43580000  0.94593000  1
  N  N490  1  0.82206000  0.76799000  0.33219000  1
  N  N491  1  0.82206000  0.48987000  0.05407000  1
  N  N492  1  0.33219000  0.76799000  0.82206000  1
  N  N493  1  0.33219000  0.51013000  0.56420000  1
  N  N494  1  0.51013000  0.94593000  0.17794000  1
  N  N495  1  0.51013000  0.33219000  0.56420000  1
  N  N496  1  0.76799000  0.94593000  0.43580000  1
  N  N497  1  0.76799000  0.33219000  0.82206000  1
  N  N498  1  0.94593000  0.76799000  0.43580000  1
  N  N499  1  0.94593000  0.51013000  0.17794000  1
  N  N500  1  0.33219000  0.82206000  0.76799000  1
  N  N501  1  0.33219000  0.56420000  0.51013000  1
  N  N502  1  0.56420000  0.05407000  0.23201000  1
  N  N503  1  0.56420000  0.33219000  0.51013000  1
  N  N504  1  0.82206000  0.05407000  0.48987000  1
  N  N505  1  0.82206000  0.33219000  0.76799000  1
  N  N506  1  0.05407000  0.82206000  0.48987000  1
  N  N507  1  0.05407000  0.56420000  0.23201000  1
  N  N508  1  0.33566000  0.76846000  0.64114000  1
  N  N509  1  0.33566000  0.69452000  0.56720000  1
  N  N510  1  0.69452000  0.12732000  0.35886000  1
  N  N511  1  0.69452000  0.33566000  0.56720000  1
  N  N512  1  0.76846000  0.12732000  0.43280000  1
  N  N513  1  0.76846000  0.33566000  0.64114000  1
  N  N514  1  0.12732000  0.76846000  0.43280000  1
  N  N515  1  0.12732000  0.69452000  0.35886000  1
  N  N516  1  0.30548000  0.87268000  0.64114000  1
  N  N517  1  0.30548000  0.66434000  0.43280000  1
  N  N518  1  0.66434000  0.23154000  0.35886000  1
  N  N519  1  0.66434000  0.30548000  0.43280000  1
  N  N520  1  0.87268000  0.23154000  0.56720000  1
  N  N521  1  0.87268000  0.30548000  0.64114000  1
  N  N522  1  0.23154000  0.87268000  0.56720000  1
  N  N523  1  0.23154000  0.66434000  0.35886000  1
  N  N524  1  0.43580000  0.94593000  0.76799000  1
  N  N525  1  0.43580000  0.66781000  0.48987000  1
  N  N526  1  0.66781000  0.17794000  0.23201000  1
  N  N527  1  0.66781000  0.43580000  0.48987000  1
  N  N528  1  0.94593000  0.17794000  0.51013000  1
  N  N529  1  0.94593000  0.43580000  0.76799000  1
  N  N530  1  0.17794000  0.94593000  0.51013000  1
  N  N531  1  0.17794000  0.66781000  0.23201000  1
  N  N532  1  0.48987000  0.05407000  0.82206000  1
  N  N533  1  0.48987000  0.66781000  0.43580000  1
  N  N534  1  0.66781000  0.23201000  0.17794000  1
  N  N535  1  0.66781000  0.48987000  0.43580000  1
  N  N536  1  0.05407000  0.23201000  0.56420000  1
  N  N537  1  0.05407000  0.48987000  0.82206000  1
  N  N538  1  0.23201000  0.05407000  0.56420000  1
  N  N539  1  0.23201000  0.66781000  0.17794000  1
  N  N540  1  0.51013000  0.17794000  0.94593000  1
  N  N541  1  0.51013000  0.56420000  0.33219000  1
  N  N542  1  0.56420000  0.23201000  0.05407000  1
  N  N543  1  0.56420000  0.51013000  0.33219000  1
  N  N544  1  0.17794000  0.23201000  0.66781000  1
  N  N545  1  0.17794000  0.51013000  0.94593000  1
  N  N546  1  0.23201000  0.17794000  0.66781000  1
  N  N547  1  0.23201000  0.56420000  0.05407000  1
  N  N548  1  0.43280000  0.12732000  0.76846000  1
  N  N549  1  0.43280000  0.66434000  0.30548000  1
  N  N550  1  0.66434000  0.35886000  0.23154000  1
  N  N551  1  0.66434000  0.43280000  0.30548000  1
  N  N552  1  0.12732000  0.35886000  0.69452000  1
  N  N553  1  0.12732000  0.43280000  0.76846000  1
  N  N554  1  0.35886000  0.12732000  0.69452000  1
  N  N555  1  0.35886000  0.66434000  0.23154000  1
  N  N556  1  0.56720000  0.23154000  0.87268000  1
  N  N557  1  0.56720000  0.69452000  0.33566000  1
  N  N558  1  0.69452000  0.35886000  0.12732000  1
  N  N559  1  0.69452000  0.56720000  0.33566000  1
  N  N560  1  0.23154000  0.35886000  0.66434000  1
  N  N561  1  0.23154000  0.56720000  0.87268000  1
  N  N562  1  0.35886000  0.23154000  0.66434000  1
  N  N563  1  0.35886000  0.69452000  0.12732000  1
  O  O564  1  0.10976000  0.83180000  0.94156000  1
  O  O565  1  0.10976000  0.16820000  0.27796000  1
  O  O566  1  0.16820000  0.89024000  0.05844000  1
  O  O567  1  0.16820000  0.10976000  0.27796000  1
  O  O568  1  0.16891000  0.76033000  0.92924000  1
  O  O569  1  0.16891000  0.23967000  0.40858000  1
  O  O570  1  0.23967000  0.83109000  0.07076000  1
  O  O571  1  0.23967000  0.16891000  0.40858000  1
  O  O572  1  0.76033000  0.83109000  0.59142000  1
  O  O573  1  0.76033000  0.16891000  0.92924000  1
  O  O574  1  0.83109000  0.76033000  0.59142000  1
  O  O575  1  0.83109000  0.23967000  0.07076000  1
  O  O576  1  0.83180000  0.89024000  0.72204000  1
  O  O577  1  0.83180000  0.10976000  0.94156000  1
  O  O578  1  0.89024000  0.83180000  0.72204000  1
  O  O579  1  0.89024000  0.16820000  0.05844000  1
  O  O580  1  0.41441000  0.59796000  0.93607000  1
  O  O581  1  0.41441000  0.47834000  0.81645000  1
  O  O582  1  0.47834000  0.66189000  0.06393000  1
  O  O583  1  0.47834000  0.41441000  0.81645000  1
  O  O584  1  0.59796000  0.66189000  0.18355000  1
  O  O585  1  0.59796000  0.41441000  0.93607000  1
  O  O586  1  0.66189000  0.59796000  0.18355000  1
  O  O587  1  0.66189000  0.47834000  0.06393000  1
  O  O588  1  0.22862000  0.64829000  0.75953000  1
  O  O589  1  0.22862000  0.46909000  0.58033000  1
  O  O590  1  0.46909000  0.88876000  0.24047000  1
  O  O591  1  0.46909000  0.22862000  0.58033000  1
  O  O592  1  0.64829000  0.88876000  0.41967000  1
  O  O593  1  0.64829000  0.22862000  0.75953000  1
  O  O594  1  0.88876000  0.64829000  0.41967000  1
  O  O595  1  0.88876000  0.46909000  0.24047000  1
  O  O596  1  0.18355000  0.59796000  0.66189000  1
  O  O597  1  0.18355000  0.52166000  0.58559000  1
  O  O598  1  0.52166000  0.93607000  0.33811000  1
  O  O599  1  0.52166000  0.18355000  0.58559000  1
  O  O600  1  0.59796000  0.93607000  0.41441000  1
  O  O601  1  0.59796000  0.18355000  0.66189000  1
  O  O602  1  0.93607000  0.59796000  0.41441000  1
  O  O603  1  0.93607000  0.52166000  0.33811000  1
  O  O604  1  0.24570000  0.88376000  0.00000000  1
  O  O605  1  0.24570000  0.24570000  0.36194000  1
  O  O606  1  0.88376000  0.88376000  0.63806000  1
  O  O607  1  0.88376000  0.24570000  1.00000000  1
  O  O608  1  0.28894000  0.78167000  0.90781000  1
  O  O609  1  0.28894000  0.38113000  0.50727000  1
  O  O610  1  0.38113000  0.87386000  0.09219000  1
  O  O611  1  0.38113000  0.28894000  0.50727000  1
  O  O612  1  0.78167000  0.87386000  0.49273000  1
  O  O613  1  0.78167000  0.28894000  0.90781000  1
  O  O614  1  0.87386000  0.78167000  0.49273000  1
  O  O615  1  0.87386000  0.38113000  0.09219000  1
  O  O616  1  0.41967000  0.64829000  0.88876000  1
  O  O617  1  0.41967000  0.53091000  0.77138000  1
  O  O618  1  0.53091000  0.75953000  0.11124000  1
  O  O619  1  0.53091000  0.41967000  0.77138000  1
  O  O620  1  0.64829000  0.75953000  0.22862000  1
  O  O621  1  0.64829000  0.41967000  0.88876000  1
  O  O622  1  0.75953000  0.64829000  0.22862000  1
  O  O623  1  0.75953000  0.53091000  0.11124000  1
  O  O624  1  0.10976000  0.94156000  0.83180000  1
  O  O625  1  0.10976000  0.27796000  0.16820000  1
  O  O626  1  0.27796000  0.10976000  0.16820000  1
  O  O627  1  0.94156000  0.10976000  0.83180000  1
  O  O628  1  0.18355000  0.66189000  0.59796000  1
  O  O629  1  0.18355000  0.58559000  0.52166000  1
  O  O630  1  0.58559000  0.06393000  0.40204000  1
  O  O631  1  0.58559000  0.18355000  0.52166000  1
  O  O632  1  0.66189000  0.06393000  0.47834000  1
  O  O633  1  0.66189000  0.18355000  0.59796000  1
  O  O634  1  0.06393000  0.66189000  0.47834000  1
  O  O635  1  0.06393000  0.58559000  0.40204000  1
  O  O636  1  0.31896000  0.87741000  0.93477000  1
  O  O637  1  0.31896000  0.38419000  0.44155000  1
  O  O638  1  0.38419000  0.94264000  0.06523000  1
  O  O639  1  0.38419000  0.31896000  0.44155000  1
  O  O640  1  0.87741000  0.94264000  0.55845000  1
  O  O641  1  0.87741000  0.31896000  0.93477000  1
  O  O642  1  0.94264000  0.87741000  0.55845000  1
  O  O643  1  0.94264000  0.38419000  0.06523000  1
  O  O644  1  0.16820000  0.05844000  0.89024000  1
  O  O645  1  0.16820000  0.27796000  0.10976000  1
  O  O646  1  0.27796000  0.16820000  0.10976000  1
  O  O647  1  0.05844000  0.16820000  0.89024000  1
  O  O648  1  0.16891000  0.92924000  0.76033000  1
  O  O649  1  0.16891000  0.40858000  0.23967000  1
  O  O650  1  0.40858000  0.16891000  0.23967000  1
  O  O651  1  0.92924000  0.16891000  0.76033000  1
  O  O652  1  0.22862000  0.75953000  0.64829000  1
  O  O653  1  0.22862000  0.58033000  0.46909000  1
  O  O654  1  0.58033000  0.11124000  0.35171000  1
  O  O655  1  0.58033000  0.22862000  0.46909000  1
  O  O656  1  0.75953000  0.11124000  0.53091000  1
  O  O657  1  0.75953000  0.22862000  0.64829000  1
  O  O658  1  0.11124000  0.75953000  0.53091000  1
  O  O659  1  0.11124000  0.58033000  0.35171000  1
  O  O660  1  0.24570000  1.00000000  0.88376000  1
  O  O661  1  0.24570000  0.36194000  0.24570000  1
  O  O662  1  0.36194000  0.11624000  0.11624000  1
  O  O663  1  0.36194000  0.24570000  0.24570000  1
  O  O664  1  0.00000000  0.11624000  0.75430000  1
  O  O665  1  0.00000000  0.24570000  0.88376000  1
  O  O666  1  0.11624000  0.00000000  0.75430000  1
  O  O667  1  0.11624000  0.36194000  0.11624000  1
  O  O668  1  0.31896000  0.93477000  0.87741000  1
  O  O669  1  0.31896000  0.44155000  0.38419000  1
  O  O670  1  0.44155000  0.05736000  0.12259000  1
  O  O671  1  0.44155000  0.31896000  0.38419000  1
  O  O672  1  0.93477000  0.05736000  0.61581000  1
  O  O673  1  0.93477000  0.31896000  0.87741000  1
  O  O674  1  0.05736000  0.93477000  0.61581000  1
  O  O675  1  0.05736000  0.44155000  0.12259000  1
  O  O676  1  0.49273000  0.78167000  0.87386000  1
  O  O677  1  0.49273000  0.61887000  0.71106000  1
  O  O678  1  0.61887000  0.90781000  0.12614000  1
  O  O679  1  0.61887000  0.49273000  0.71106000  1
  O  O680  1  0.78167000  0.90781000  0.28894000  1
  O  O681  1  0.78167000  0.49273000  0.87386000  1
  O  O682  1  0.90781000  0.78167000  0.28894000  1
  O  O683  1  0.90781000  0.61887000  0.12614000  1
  O  O684  1  0.28894000  0.90781000  0.78167000  1
  O  O685  1  0.28894000  0.50727000  0.38113000  1
  O  O686  1  0.50727000  0.12614000  0.21833000  1
  O  O687  1  0.50727000  0.28894000  0.38113000  1
  O  O688  1  0.90781000  0.12614000  0.61887000  1
  O  O689  1  0.90781000  0.28894000  0.78167000  1
  O  O690  1  0.12614000  0.90781000  0.61887000  1
  O  O691  1  0.12614000  0.50727000  0.21833000  1
  O  O692  1  0.23967000  0.07076000  0.83109000  1
  O  O693  1  0.23967000  0.40858000  0.16891000  1
  O  O694  1  0.40858000  0.23967000  0.16891000  1
  O  O695  1  0.07076000  0.23967000  0.83109000  1
  O  O696  1  0.55845000  0.87741000  0.94264000  1
  O  O697  1  0.55845000  0.61581000  0.68104000  1
  O  O698  1  0.61581000  0.93477000  0.05736000  1
  O  O699  1  0.61581000  0.55845000  0.68104000  1
  O  O700  1  0.87741000  0.93477000  0.31896000  1
  O  O701  1  0.87741000  0.55845000  0.94264000  1
  O  O702  1  0.93477000  0.87741000  0.31896000  1
  O  O703  1  0.93477000  0.61581000  0.05736000  1
  O  O704  1  0.38419000  0.06523000  0.94264000  1
  O  O705  1  0.38419000  0.44155000  0.31896000  1
  O  O706  1  0.44155000  0.12259000  0.05736000  1
  O  O707  1  0.44155000  0.38419000  0.31896000  1
  O  O708  1  0.06523000  0.12259000  0.68104000  1
  O  O709  1  0.06523000  0.38419000  0.94264000  1
  O  O710  1  0.12259000  0.06523000  0.68104000  1
  O  O711  1  0.12259000  0.44155000  0.05736000  1
  O  O712  1  0.59142000  0.76033000  0.83109000  1
  O  O713  1  0.76033000  0.92924000  0.16891000  1
  O  O714  1  0.76033000  0.59142000  0.83109000  1
  O  O715  1  0.92924000  0.76033000  0.16891000  1
  O  O716  1  0.49273000  0.87386000  0.78167000  1
  O  O717  1  0.49273000  0.71106000  0.61887000  1
  O  O718  1  0.71106000  0.09219000  0.21833000  1
  O  O719  1  0.71106000  0.49273000  0.61887000  1
  O  O720  1  0.87386000  0.09219000  0.38113000  1
  O  O721  1  0.87386000  0.49273000  0.78167000  1
  O  O722  1  0.09219000  0.87386000  0.38113000  1
  O  O723  1  0.09219000  0.71106000  0.21833000  1
  O  O724  1  0.38113000  0.09219000  0.87386000  1
  O  O725  1  0.38113000  0.50727000  0.28894000  1
  O  O726  1  0.50727000  0.21833000  0.12614000  1
  O  O727  1  0.50727000  0.38113000  0.28894000  1
  O  O728  1  0.09219000  0.21833000  0.71106000  1
  O  O729  1  0.09219000  0.38113000  0.87386000  1
  O  O730  1  0.21833000  0.09219000  0.71106000  1
  O  O731  1  0.21833000  0.50727000  0.12614000  1
  O  O732  1  0.55845000  0.94264000  0.87741000  1
  O  O733  1  0.55845000  0.68104000  0.61581000  1
  O  O734  1  0.68104000  0.06523000  0.12259000  1
  O  O735  1  0.68104000  0.55845000  0.61581000  1
  O  O736  1  0.94264000  0.06523000  0.38419000  1
  O  O737  1  0.94264000  0.55845000  0.87741000  1
  O  O738  1  0.06523000  0.94264000  0.38419000  1
  O  O739  1  0.06523000  0.68104000  0.12259000  1
  O  O740  1  0.63806000  0.88376000  0.88376000  1
  O  O741  1  0.63806000  0.75430000  0.75430000  1
  O  O742  1  0.75430000  1.00000000  0.11624000  1
  O  O743  1  0.75430000  0.63806000  0.75430000  1
  O  O744  1  0.88376000  1.00000000  0.24570000  1
  O  O745  1  0.88376000  0.63806000  0.88376000  1
  O  O746  1  0.00000000  0.88376000  0.24570000  1
  O  O747  1  0.00000000  0.75430000  0.11624000  1
  O  O748  1  0.41967000  0.88876000  0.64829000  1
  O  O749  1  0.41967000  0.77138000  0.53091000  1
  O  O750  1  0.77138000  0.24047000  0.35171000  1
  O  O751  1  0.77138000  0.41967000  0.53091000  1
  O  O752  1  0.88876000  0.24047000  0.46909000  1
  O  O753  1  0.88876000  0.41967000  0.64829000  1
  O  O754  1  0.24047000  0.88876000  0.46909000  1
  O  O755  1  0.24047000  0.77138000  0.35171000  1
  O  O756  1  0.59142000  0.83109000  0.76033000  1
  O  O757  1  0.83109000  0.07076000  0.23967000  1
  O  O758  1  0.83109000  0.59142000  0.76033000  1
  O  O759  1  0.07076000  0.83109000  0.23967000  1
  O  O760  1  0.72204000  0.83180000  0.89024000  1
  O  O761  1  0.83180000  0.94156000  0.10976000  1
  O  O762  1  0.83180000  0.72204000  0.89024000  1
  O  O763  1  0.94156000  0.83180000  0.10976000  1
  O  O764  1  0.61581000  0.05736000  0.93477000  1
  O  O765  1  0.61581000  0.68104000  0.55845000  1
  O  O766  1  0.68104000  0.12259000  0.06523000  1
  O  O767  1  0.68104000  0.61581000  0.55845000  1
  O  O768  1  0.05736000  0.12259000  0.44155000  1
  O  O769  1  0.05736000  0.61581000  0.93477000  1
  O  O770  1  0.12259000  0.05736000  0.44155000  1
  O  O771  1  0.12259000  0.68104000  0.06523000  1
  O  O772  1  0.41441000  0.93607000  0.59796000  1
  O  O773  1  0.41441000  0.81645000  0.47834000  1
  O  O774  1  0.81645000  0.33811000  0.40204000  1
  O  O775  1  0.81645000  0.41441000  0.47834000  1
  O  O776  1  0.93607000  0.33811000  0.52166000  1
  O  O777  1  0.93607000  0.41441000  0.59796000  1
  O  O778  1  0.33811000  0.93607000  0.52166000  1
  O  O779  1  0.33811000  0.81645000  0.40204000  1
  O  O780  1  0.72204000  0.89024000  0.83180000  1
  O  O781  1  0.89024000  0.05844000  0.16820000  1
  O  O782  1  0.89024000  0.72204000  0.83180000  1
  O  O783  1  0.05844000  0.89024000  0.16820000  1
  O  O784  1  0.46909000  0.24047000  0.88876000  1
  O  O785  1  0.46909000  0.58033000  0.22862000  1
  O  O786  1  0.58033000  0.35171000  0.11124000  1
  O  O787  1  0.58033000  0.46909000  0.22862000  1
  O  O788  1  0.24047000  0.35171000  0.77138000  1
  O  O789  1  0.24047000  0.46909000  0.88876000  1
  O  O790  1  0.35171000  0.24047000  0.77138000  1
  O  O791  1  0.35171000  0.58033000  0.11124000  1
  O  O792  1  0.61887000  0.12614000  0.90781000  1
  O  O793  1  0.61887000  0.71106000  0.49273000  1
  O  O794  1  0.71106000  0.21833000  0.09219000  1
  O  O795  1  0.71106000  0.61887000  0.49273000  1
  O  O796  1  0.12614000  0.21833000  0.50727000  1
  O  O797  1  0.12614000  0.61887000  0.90781000  1
  O  O798  1  0.21833000  0.12614000  0.50727000  1
  O  O799  1  0.21833000  0.71106000  0.09219000  1
  O  O800  1  0.75430000  0.11624000  1.00000000  1
  O  O801  1  0.75430000  0.75430000  0.63806000  1
  O  O802  1  0.11624000  0.11624000  0.36194000  1
  O  O803  1  0.11624000  0.75430000  1.00000000  1
  O  O804  1  0.47834000  0.06393000  0.66189000  1
  O  O805  1  0.47834000  0.81645000  0.41441000  1
  O  O806  1  0.81645000  0.40204000  0.33811000  1
  O  O807  1  0.81645000  0.47834000  0.41441000  1
  O  O808  1  0.06393000  0.40204000  0.58559000  1
  O  O809  1  0.06393000  0.47834000  0.66189000  1
  O  O810  1  0.40204000  0.06393000  0.58559000  1
  O  O811  1  0.40204000  0.81645000  0.33811000  1
  O  O812  1  0.53091000  0.11124000  0.75953000  1
  O  O813  1  0.53091000  0.77138000  0.41967000  1
  O  O814  1  0.77138000  0.35171000  0.24047000  1
  O  O815  1  0.77138000  0.53091000  0.41967000  1
  O  O816  1  0.11124000  0.35171000  0.58033000  1
  O  O817  1  0.11124000  0.53091000  0.75953000  1
  O  O818  1  0.35171000  0.11124000  0.58033000  1
  O  O819  1  0.35171000  0.77138000  0.24047000  1
  O  O820  1  0.52166000  0.33811000  0.93607000  1
  O  O821  1  0.52166000  0.58559000  0.18355000  1
  O  O822  1  0.58559000  0.40204000  0.06393000  1
  O  O823  1  0.58559000  0.52166000  0.18355000  1
  O  O824  1  0.33811000  0.40204000  0.81645000  1
  O  O825  1  0.33811000  0.52166000  0.93607000  1
  O  O826  1  0.40204000  0.33811000  0.81645000  1
  O  O827  1  0.40204000  0.58559000  0.06393000  1
