# generated using pymatgen
data_Nd3H9W12C21N3O44
_symmetry_space_group_name_H-M   'P 1'
_cell_length_a   20.47100000
_cell_length_b   23.42600000
_cell_length_c   29.40600000
_cell_angle_alpha   90.00000000
_cell_angle_beta   90.00000000
_cell_angle_gamma   90.00000000
_symmetry_Int_Tables_number   1
_chemical_formula_structural   Nd3H9W12C21N3O44
_chemical_formula_sum   'Nd24 H72 W96 C168 N24 O352'
_cell_volume   14101.75451428
_cell_formula_units_Z   8
loop_
 _symmetry_equiv_pos_site_id
 _symmetry_equiv_pos_as_xyz
  1  'x, y, z'
loop_
 _atom_site_type_symbol
 _atom_site_label
 _atom_site_symmetry_multiplicity
 _atom_site_fract_x
 _atom_site_fract_y
 _atom_site_fract_z
 _atom_site_occupancy
  Nd  Nd0  1  0.00686000  0.27140000  0.35541000  1
  Nd  Nd1  1  0.00686000  0.77140000  0.14459000  1
  Nd  Nd2  1  0.09056000  0.46772000  0.81737000  1
  Nd  Nd3  1  0.09056000  0.96772000  0.68263000  1
  Nd  Nd4  1  0.12139000  0.19389000  0.55194000  1
  Nd  Nd5  1  0.12139000  0.69389000  0.94806000  1
  Nd  Nd6  1  0.37861000  0.19389000  0.05194000  1
  Nd  Nd7  1  0.37861000  0.69389000  0.44806000  1
  Nd  Nd8  1  0.40944000  0.46772000  0.31737000  1
  Nd  Nd9  1  0.40944000  0.96772000  0.18263000  1
  Nd  Nd10  1  0.49314000  0.27140000  0.85541000  1
  Nd  Nd11  1  0.49314000  0.77140000  0.64459000  1
  Nd  Nd12  1  0.50686000  0.22860000  0.35541000  1
  Nd  Nd13  1  0.50686000  0.72860000  0.14459000  1
  Nd  Nd14  1  0.59056000  0.03228000  0.81737000  1
  Nd  Nd15  1  0.59056000  0.53228000  0.68263000  1
  Nd  Nd16  1  0.62139000  0.30611000  0.55194000  1
  Nd  Nd17  1  0.62139000  0.80611000  0.94806000  1
  Nd  Nd18  1  0.87861000  0.30611000  0.05194000  1
  Nd  Nd19  1  0.87861000  0.80611000  0.44806000  1
  Nd  Nd20  1  0.90944000  0.03228000  0.31737000  1
  Nd  Nd21  1  0.90944000  0.53228000  0.18263000  1
  Nd  Nd22  1  0.99314000  0.22860000  0.85541000  1
  Nd  Nd23  1  0.99314000  0.72860000  0.64459000  1
  H  H24  1  0.09590000  0.49120000  0.31320000  1
  H  H25  1  0.09590000  0.99120000  0.18680000  1
  H  H26  1  0.10740000  0.15140000  0.23350000  1
  H  H27  1  0.10740000  0.65140000  0.26650000  1
  H  H28  1  0.13380000  0.00930000  0.09360000  1
  H  H29  1  0.13380000  0.50930000  0.40640000  1
  H  H30  1  0.13790000  0.25800000  0.98230000  1
  H  H31  1  0.13790000  0.75800000  0.51770000  1
  H  H32  1  0.14510000  0.07940000  0.18530000  1
  H  H33  1  0.14510000  0.57940000  0.31470000  1
  H  H34  1  0.15410000  0.42350000  0.36730000  1
  H  H35  1  0.15410000  0.92350000  0.13270000  1
  H  H36  1  0.17420000  0.29600000  0.91470000  1
  H  H37  1  0.17420000  0.79600000  0.58530000  1
  H  H38  1  0.21790000  0.29080000  0.39540000  1
  H  H39  1  0.21790000  0.79080000  0.10460000  1
  H  H40  1  0.22140000  0.07480000  0.08460000  1
  H  H41  1  0.22140000  0.57480000  0.41540000  1
  H  H42  1  0.27860000  0.07480000  0.58460000  1
  H  H43  1  0.27860000  0.57480000  0.91540000  1
  H  H44  1  0.28210000  0.29080000  0.89540000  1
  H  H45  1  0.28210000  0.79080000  0.60460000  1
  H  H46  1  0.32580000  0.29600000  0.41470000  1
  H  H47  1  0.32580000  0.79600000  0.08530000  1
  H  H48  1  0.34590000  0.42350000  0.86730000  1
  H  H49  1  0.34590000  0.92350000  0.63270000  1
  H  H50  1  0.35490000  0.07940000  0.68530000  1
  H  H51  1  0.35490000  0.57940000  0.81470000  1
  H  H52  1  0.36210000  0.25800000  0.48230000  1
  H  H53  1  0.36210000  0.75800000  0.01770000  1
  H  H54  1  0.36620000  0.00930000  0.59360000  1
  H  H55  1  0.36620000  0.50930000  0.90640000  1
  H  H56  1  0.39260000  0.15140000  0.73350000  1
  H  H57  1  0.39260000  0.65140000  0.76650000  1
  H  H58  1  0.40410000  0.49120000  0.81320000  1
  H  H59  1  0.40410000  0.99120000  0.68680000  1
  H  H60  1  0.59590000  0.00880000  0.31320000  1
  H  H61  1  0.59590000  0.50880000  0.18680000  1
  H  H62  1  0.60740000  0.34860000  0.23350000  1
  H  H63  1  0.60740000  0.84860000  0.26650000  1
  H  H64  1  0.63380000  0.49070000  0.09360000  1
  H  H65  1  0.63380000  0.99070000  0.40640000  1
  H  H66  1  0.63790000  0.24200000  0.98230000  1
  H  H67  1  0.63790000  0.74200000  0.51770000  1
  H  H68  1  0.64510000  0.42060000  0.18530000  1
  H  H69  1  0.64510000  0.92060000  0.31470000  1
  H  H70  1  0.65410000  0.07650000  0.36730000  1
  H  H71  1  0.65410000  0.57650000  0.13270000  1
  H  H72  1  0.67420000  0.20400000  0.91470000  1
  H  H73  1  0.67420000  0.70400000  0.58530000  1
  H  H74  1  0.71790000  0.20920000  0.39540000  1
  H  H75  1  0.71790000  0.70920000  0.10460000  1
  H  H76  1  0.72140000  0.42520000  0.08460000  1
  H  H77  1  0.72140000  0.92520000  0.41540000  1
  H  H78  1  0.77860000  0.42520000  0.58460000  1
  H  H79  1  0.77860000  0.92520000  0.91540000  1
  H  H80  1  0.78210000  0.20920000  0.89540000  1
  H  H81  1  0.78210000  0.70920000  0.60460000  1
  H  H82  1  0.82580000  0.20400000  0.41470000  1
  H  H83  1  0.82580000  0.70400000  0.08530000  1
  H  H84  1  0.84590000  0.07650000  0.86730000  1
  H  H85  1  0.84590000  0.57650000  0.63270000  1
  H  H86  1  0.85490000  0.42060000  0.68530000  1
  H  H87  1  0.85490000  0.92060000  0.81470000  1
  H  H88  1  0.86210000  0.24200000  0.48230000  1
  H  H89  1  0.86210000  0.74200000  0.01770000  1
  H  H90  1  0.86620000  0.49070000  0.59360000  1
  H  H91  1  0.86620000  0.99070000  0.90640000  1
  H  H92  1  0.89260000  0.34860000  0.73350000  1
  H  H93  1  0.89260000  0.84860000  0.76650000  1
  H  H94  1  0.90410000  0.00880000  0.81320000  1
  H  H95  1  0.90410000  0.50880000  0.68680000  1
  W  W96  1  0.06572000  0.47736000  0.60048000  1
  W  W97  1  0.06572000  0.97736000  0.89952000  1
  W  W98  1  0.09698000  0.01228000  0.37187000  1
  W  W99  1  0.09698000  0.51228000  0.12813000  1
  W  W100  1  0.12968000  0.09850000  0.86879000  1
  W  W101  1  0.12968000  0.59850000  0.63121000  1
  W  W102  1  0.14939000  0.05392000  0.97228000  1
  W  W103  1  0.14939000  0.55392000  0.52772000  1
  W  W104  1  0.15168000  0.40323000  0.69484000  1
  W  W105  1  0.15168000  0.90323000  0.80516000  1
  W  W106  1  0.16103000  0.37150000  0.09246000  1
  W  W107  1  0.16103000  0.87150000  0.40754000  1
  W  W108  1  0.17443000  0.07757000  0.45308000  1
  W  W109  1  0.17443000  0.57757000  0.04692000  1
  W  W110  1  0.18042000  0.35954000  0.57577000  1
  W  W111  1  0.18042000  0.85954000  0.92423000  1
  W  W112  1  0.19004000  0.42417000  0.20964000  1
  W  W113  1  0.19004000  0.92417000  0.29036000  1
  W  W114  1  0.19352000  0.11955000  0.34877000  1
  W  W115  1  0.19352000  0.61955000  0.15123000  1
  W  W116  1  0.20759000  0.02845000  0.77240000  1
  W  W117  1  0.20759000  0.52845000  0.72760000  1
  W  W118  1  0.23122000  0.43725000  0.00580000  1
  W  W119  1  0.23122000  0.93725000  0.49420000  1
  W  W120  1  0.26878000  0.43725000  0.50580000  1
  W  W121  1  0.26878000  0.93725000  0.99420000  1
  W  W122  1  0.29241000  0.02845000  0.27240000  1
  W  W123  1  0.29241000  0.52845000  0.22760000  1
  W  W124  1  0.30648000  0.11955000  0.84877000  1
  W  W125  1  0.30648000  0.61955000  0.65123000  1
  W  W126  1  0.30996000  0.42417000  0.70964000  1
  W  W127  1  0.30996000  0.92417000  0.79036000  1
  W  W128  1  0.31958000  0.35954000  0.07577000  1
  W  W129  1  0.31958000  0.85954000  0.42423000  1
  W  W130  1  0.32557000  0.07757000  0.95308000  1
  W  W131  1  0.32557000  0.57757000  0.54692000  1
  W  W132  1  0.33897000  0.37150000  0.59246000  1
  W  W133  1  0.33897000  0.87150000  0.90754000  1
  W  W134  1  0.34832000  0.40323000  0.19484000  1
  W  W135  1  0.34832000  0.90323000  0.30516000  1
  W  W136  1  0.35061000  0.05392000  0.47228000  1
  W  W137  1  0.35061000  0.55392000  0.02772000  1
  W  W138  1  0.37032000  0.09850000  0.36879000  1
  W  W139  1  0.37032000  0.59850000  0.13121000  1
  W  W140  1  0.40302000  0.01228000  0.87187000  1
  W  W141  1  0.40302000  0.51228000  0.62813000  1
  W  W142  1  0.43428000  0.47736000  0.10048000  1
  W  W143  1  0.43428000  0.97736000  0.39952000  1
  W  W144  1  0.56572000  0.02264000  0.60048000  1
  W  W145  1  0.56572000  0.52264000  0.89952000  1
  W  W146  1  0.59698000  0.48772000  0.37187000  1
  W  W147  1  0.59698000  0.98772000  0.12813000  1
  W  W148  1  0.62968000  0.40150000  0.86879000  1
  W  W149  1  0.62968000  0.90150000  0.63121000  1
  W  W150  1  0.64939000  0.44608000  0.97228000  1
  W  W151  1  0.64939000  0.94608000  0.52772000  1
  W  W152  1  0.65168000  0.09677000  0.69484000  1
  W  W153  1  0.65168000  0.59677000  0.80516000  1
  W  W154  1  0.66103000  0.12850000  0.09246000  1
  W  W155  1  0.66103000  0.62850000  0.40754000  1
  W  W156  1  0.67443000  0.42243000  0.45308000  1
  W  W157  1  0.67443000  0.92243000  0.04692000  1
  W  W158  1  0.68042000  0.14046000  0.57577000  1
  W  W159  1  0.68042000  0.64046000  0.92423000  1
  W  W160  1  0.69004000  0.07583000  0.20964000  1
  W  W161  1  0.69004000  0.57583000  0.29036000  1
  W  W162  1  0.69352000  0.38045000  0.34877000  1
  W  W163  1  0.69352000  0.88045000  0.15123000  1
  W  W164  1  0.70759000  0.47155000  0.77240000  1
  W  W165  1  0.70759000  0.97155000  0.72760000  1
  W  W166  1  0.73122000  0.06275000  0.00580000  1
  W  W167  1  0.73122000  0.56275000  0.49420000  1
  W  W168  1  0.76878000  0.06275000  0.50580000  1
  W  W169  1  0.76878000  0.56275000  0.99420000  1
  W  W170  1  0.79241000  0.47155000  0.27240000  1
  W  W171  1  0.79241000  0.97155000  0.22760000  1
  W  W172  1  0.80648000  0.38045000  0.84877000  1
  W  W173  1  0.80648000  0.88045000  0.65123000  1
  W  W174  1  0.80996000  0.07583000  0.70964000  1
  W  W175  1  0.80996000  0.57583000  0.79036000  1
  W  W176  1  0.81958000  0.14046000  0.07577000  1
  W  W177  1  0.81958000  0.64046000  0.42423000  1
  W  W178  1  0.82557000  0.42243000  0.95308000  1
  W  W179  1  0.82557000  0.92243000  0.54692000  1
  W  W180  1  0.83897000  0.12850000  0.59246000  1
  W  W181  1  0.83897000  0.62850000  0.90754000  1
  W  W182  1  0.84832000  0.09677000  0.19484000  1
  W  W183  1  0.84832000  0.59677000  0.30516000  1
  W  W184  1  0.85061000  0.44608000  0.47228000  1
  W  W185  1  0.85061000  0.94608000  0.02772000  1
  W  W186  1  0.87032000  0.40150000  0.36879000  1
  W  W187  1  0.87032000  0.90150000  0.13121000  1
  W  W188  1  0.90302000  0.48772000  0.87187000  1
  W  W189  1  0.90302000  0.98772000  0.62813000  1
  W  W190  1  0.93428000  0.02264000  0.10048000  1
  W  W191  1  0.93428000  0.52264000  0.39952000  1
  C  C192  1  0.00390000  0.04440000  0.75770000  1
  C  C193  1  0.00390000  0.54440000  0.74230000  1
  C  C194  1  0.00640000  0.14470000  0.29480000  1
  C  C195  1  0.00640000  0.64470000  0.20520000  1
  C  C196  1  0.02850000  0.01210000  0.23450000  1
  C  C197  1  0.02850000  0.51210000  0.26550000  1
  C  C198  1  0.03360000  0.10440000  0.26070000  1
  C  C199  1  0.03360000  0.60440000  0.23930000  1
  C  C200  1  0.08100000  0.02060000  0.20540000  1
  C  C201  1  0.08100000  0.52060000  0.29460000  1
  C  C202  1  0.08730000  0.11580000  0.23300000  1
  C  C203  1  0.08730000  0.61580000  0.26700000  1
  C  C204  1  0.11010000  0.07260000  0.20470000  1
  C  C205  1  0.11010000  0.57260000  0.29530000  1
  C  C206  1  0.11510000  0.25080000  0.44660000  1
  C  C207  1  0.11510000  0.75080000  0.05340000  1
  C  C208  1  0.15580000  0.06660000  0.61770000  1
  C  C209  1  0.15580000  0.56660000  0.88230000  1
  C  C210  1  0.17460000  0.00180000  0.10600000  1
  C  C211  1  0.17460000  0.50180000  0.39400000  1
  C  C212  1  0.18200000  0.25740000  0.97480000  1
  C  C213  1  0.18200000  0.75740000  0.52520000  1
  C  C214  1  0.18630000  0.45120000  0.37030000  1
  C  C215  1  0.18630000  0.95120000  0.12970000  1
  C  C216  1  0.18690000  0.25420000  0.45560000  1
  C  C217  1  0.18690000  0.75420000  0.04440000  1
  C  C218  1  0.20390000  0.27940000  0.93470000  1
  C  C219  1  0.20390000  0.77940000  0.56530000  1
  C  C220  1  0.21200000  0.21130000  0.04890000  1
  C  C221  1  0.21200000  0.71130000  0.45110000  1
  C  C222  1  0.21460000  0.02950000  0.62240000  1
  C  C223  1  0.21460000  0.52950000  0.87760000  1
  C  C224  1  0.22680000  0.04150000  0.10140000  1
  C  C225  1  0.22680000  0.54150000  0.39860000  1
  C  C226  1  0.22720000  0.38960000  0.82970000  1
  C  C227  1  0.22720000  0.88960000  0.67030000  1
  C  C228  1  0.22780000  0.23440000  0.00350000  1
  C  C229  1  0.22780000  0.73440000  0.49650000  1
  C  C230  1  0.23220000  0.27740000  0.42340000  1
  C  C231  1  0.23220000  0.77740000  0.07660000  1
  C  C232  1  0.24940000  0.44370000  0.35080000  1
  C  C233  1  0.24940000  0.94370000  0.14920000  1
  C  C234  1  0.25060000  0.44370000  0.85080000  1
  C  C235  1  0.25060000  0.94370000  0.64920000  1
  C  C236  1  0.26780000  0.27740000  0.92340000  1
  C  C237  1  0.26780000  0.77740000  0.57660000  1
  C  C238  1  0.27220000  0.23440000  0.50350000  1
  C  C239  1  0.27220000  0.73440000  0.99650000  1
  C  C240  1  0.27280000  0.38960000  0.32970000  1
  C  C241  1  0.27280000  0.88960000  0.17030000  1
  C  C242  1  0.27320000  0.04150000  0.60140000  1
  C  C243  1  0.27320000  0.54150000  0.89860000  1
  C  C244  1  0.28540000  0.02950000  0.12240000  1
  C  C245  1  0.28540000  0.52950000  0.37760000  1
  C  C246  1  0.28800000  0.21130000  0.54890000  1
  C  C247  1  0.28800000  0.71130000  0.95110000  1
  C  C248  1  0.29610000  0.27940000  0.43470000  1
  C  C249  1  0.29610000  0.77940000  0.06530000  1
  C  C250  1  0.31310000  0.25420000  0.95560000  1
  C  C251  1  0.31310000  0.75420000  0.54440000  1
  C  C252  1  0.31370000  0.45120000  0.87030000  1
  C  C253  1  0.31370000  0.95120000  0.62970000  1
  C  C254  1  0.31800000  0.25740000  0.47480000  1
  C  C255  1  0.31800000  0.75740000  0.02520000  1
  C  C256  1  0.32540000  0.00180000  0.60600000  1
  C  C257  1  0.32540000  0.50180000  0.89400000  1
  C  C258  1  0.34420000  0.06660000  0.11770000  1
  C  C259  1  0.34420000  0.56660000  0.38230000  1
  C  C260  1  0.38490000  0.25080000  0.94660000  1
  C  C261  1  0.38490000  0.75080000  0.55340000  1
  C  C262  1  0.38990000  0.07260000  0.70470000  1
  C  C263  1  0.38990000  0.57260000  0.79530000  1
  C  C264  1  0.41270000  0.11580000  0.73300000  1
  C  C265  1  0.41270000  0.61580000  0.76700000  1
  C  C266  1  0.41900000  0.02060000  0.70540000  1
  C  C267  1  0.41900000  0.52060000  0.79460000  1
  C  C268  1  0.46640000  0.10440000  0.76070000  1
  C  C269  1  0.46640000  0.60440000  0.73930000  1
  C  C270  1  0.47150000  0.01210000  0.73450000  1
  C  C271  1  0.47150000  0.51210000  0.76550000  1
  C  C272  1  0.49360000  0.14470000  0.79480000  1
  C  C273  1  0.49360000  0.64470000  0.70520000  1
  C  C274  1  0.49610000  0.04440000  0.25770000  1
  C  C275  1  0.49610000  0.54440000  0.24230000  1
  C  C276  1  0.50390000  0.45560000  0.75770000  1
  C  C277  1  0.50390000  0.95560000  0.74230000  1
  C  C278  1  0.50640000  0.35530000  0.29480000  1
  C  C279  1  0.50640000  0.85530000  0.20520000  1
  C  C280  1  0.52850000  0.48790000  0.23450000  1
  C  C281  1  0.52850000  0.98790000  0.26550000  1
  C  C282  1  0.53360000  0.39560000  0.26070000  1
  C  C283  1  0.53360000  0.89560000  0.23930000  1
  C  C284  1  0.58100000  0.47940000  0.20540000  1
  C  C285  1  0.58100000  0.97940000  0.29460000  1
  C  C286  1  0.58730000  0.38420000  0.23300000  1
  C  C287  1  0.58730000  0.88420000  0.26700000  1
  C  C288  1  0.61010000  0.42740000  0.20470000  1
  C  C289  1  0.61010000  0.92740000  0.29530000  1
  C  C290  1  0.61510000  0.24920000  0.44660000  1
  C  C291  1  0.61510000  0.74920000  0.05340000  1
  C  C292  1  0.65580000  0.43340000  0.61770000  1
  C  C293  1  0.65580000  0.93340000  0.88230000  1
  C  C294  1  0.67460000  0.49820000  0.10600000  1
  C  C295  1  0.67460000  0.99820000  0.39400000  1
  C  C296  1  0.68200000  0.24260000  0.97480000  1
  C  C297  1  0.68200000  0.74260000  0.52520000  1
  C  C298  1  0.68630000  0.04880000  0.37030000  1
  C  C299  1  0.68630000  0.54880000  0.12970000  1
  C  C300  1  0.68690000  0.24580000  0.45560000  1
  C  C301  1  0.68690000  0.74580000  0.04440000  1
  C  C302  1  0.70390000  0.22060000  0.93470000  1
  C  C303  1  0.70390000  0.72060000  0.56530000  1
  C  C304  1  0.71200000  0.28870000  0.04890000  1
  C  C305  1  0.71200000  0.78870000  0.45110000  1
  C  C306  1  0.71460000  0.47050000  0.62240000  1
  C  C307  1  0.71460000  0.97050000  0.87760000  1
  C  C308  1  0.72680000  0.45850000  0.10140000  1
  C  C309  1  0.72680000  0.95850000  0.39860000  1
  C  C310  1  0.72720000  0.11040000  0.82970000  1
  C  C311  1  0.72720000  0.61040000  0.67030000  1
  C  C312  1  0.72780000  0.26560000  0.00350000  1
  C  C313  1  0.72780000  0.76560000  0.49650000  1
  C  C314  1  0.73220000  0.22260000  0.42340000  1
  C  C315  1  0.73220000  0.72260000  0.07660000  1
  C  C316  1  0.74940000  0.05630000  0.35080000  1
  C  C317  1  0.74940000  0.55630000  0.14920000  1
  C  C318  1  0.75060000  0.05630000  0.85080000  1
  C  C319  1  0.75060000  0.55630000  0.64920000  1
  C  C320  1  0.76780000  0.22260000  0.92340000  1
  C  C321  1  0.76780000  0.72260000  0.57660000  1
  C  C322  1  0.77220000  0.26560000  0.50350000  1
  C  C323  1  0.77220000  0.76560000  0.99650000  1
  C  C324  1  0.77280000  0.11040000  0.32970000  1
  C  C325  1  0.77280000  0.61040000  0.17030000  1
  C  C326  1  0.77320000  0.45850000  0.60140000  1
  C  C327  1  0.77320000  0.95850000  0.89860000  1
  C  C328  1  0.78540000  0.47050000  0.12240000  1
  C  C329  1  0.78540000  0.97050000  0.37760000  1
  C  C330  1  0.78800000  0.28870000  0.54890000  1
  C  C331  1  0.78800000  0.78870000  0.95110000  1
  C  C332  1  0.79610000  0.22060000  0.43470000  1
  C  C333  1  0.79610000  0.72060000  0.06530000  1
  C  C334  1  0.81310000  0.24580000  0.95560000  1
  C  C335  1  0.81310000  0.74580000  0.54440000  1
  C  C336  1  0.81370000  0.04880000  0.87030000  1
  C  C337  1  0.81370000  0.54880000  0.62970000  1
  C  C338  1  0.81800000  0.24260000  0.47480000  1
  C  C339  1  0.81800000  0.74260000  0.02520000  1
  C  C340  1  0.82540000  0.49820000  0.60600000  1
  C  C341  1  0.82540000  0.99820000  0.89400000  1
  C  C342  1  0.84420000  0.43340000  0.11770000  1
  C  C343  1  0.84420000  0.93340000  0.38230000  1
  C  C344  1  0.88490000  0.24920000  0.94660000  1
  C  C345  1  0.88490000  0.74920000  0.55340000  1
  C  C346  1  0.88990000  0.42740000  0.70470000  1
  C  C347  1  0.88990000  0.92740000  0.79530000  1
  C  C348  1  0.91270000  0.38420000  0.73300000  1
  C  C349  1  0.91270000  0.88420000  0.76700000  1
  C  C350  1  0.91900000  0.47940000  0.70540000  1
  C  C351  1  0.91900000  0.97940000  0.79460000  1
  C  C352  1  0.96640000  0.39560000  0.76070000  1
  C  C353  1  0.96640000  0.89560000  0.73930000  1
  C  C354  1  0.97150000  0.48790000  0.73450000  1
  C  C355  1  0.97150000  0.98790000  0.76550000  1
  C  C356  1  0.99360000  0.35530000  0.79480000  1
  C  C357  1  0.99360000  0.85530000  0.70520000  1
  C  C358  1  0.99610000  0.45560000  0.25770000  1
  C  C359  1  0.99610000  0.95560000  0.24230000  1
  N  N360  1  0.00460000  0.05340000  0.26120000  1
  N  N361  1  0.00460000  0.55340000  0.23880000  1
  N  N362  1  0.20310000  0.48170000  0.85400000  1
  N  N363  1  0.20310000  0.98170000  0.64600000  1
  N  N364  1  0.20800000  0.23250000  0.49450000  1
  N  N365  1  0.20800000  0.73250000  0.00550000  1
  N  N366  1  0.29200000  0.23250000  0.99450000  1
  N  N367  1  0.29200000  0.73250000  0.50550000  1
  N  N368  1  0.29690000  0.48170000  0.35400000  1
  N  N369  1  0.29690000  0.98170000  0.14600000  1
  N  N370  1  0.49540000  0.05340000  0.76120000  1
  N  N371  1  0.49540000  0.55340000  0.73880000  1
  N  N372  1  0.50460000  0.44660000  0.26120000  1
  N  N373  1  0.50460000  0.94660000  0.23880000  1
  N  N374  1  0.70310000  0.01830000  0.85400000  1
  N  N375  1  0.70310000  0.51830000  0.64600000  1
  N  N376  1  0.70800000  0.26750000  0.49450000  1
  N  N377  1  0.70800000  0.76750000  0.00550000  1
  N  N378  1  0.79200000  0.26750000  0.99450000  1
  N  N379  1  0.79200000  0.76750000  0.50550000  1
  N  N380  1  0.79690000  0.01830000  0.35400000  1
  N  N381  1  0.79690000  0.51830000  0.14600000  1
  N  N382  1  0.99540000  0.44660000  0.76120000  1
  N  N383  1  0.99540000  0.94660000  0.73880000  1
  O  O384  1  0.01500000  0.00940000  0.35680000  1
  O  O385  1  0.01500000  0.50940000  0.14320000  1
  O  O386  1  0.01510000  0.41570000  0.28650000  1
  O  O387  1  0.01510000  0.91570000  0.21350000  1
  O  O388  1  0.03020000  0.19400000  0.29910000  1
  O  O389  1  0.03020000  0.69400000  0.20090000  1
  O  O390  1  0.03930000  0.37460000  0.81960000  1
  O  O391  1  0.03930000  0.87460000  0.68040000  1
  O  O392  1  0.04270000  0.05110000  0.72750000  1
  O  O393  1  0.04270000  0.55110000  0.77250000  1
  O  O394  1  0.04860000  0.04940000  0.87500000  1
  O  O395  1  0.04860000  0.54940000  0.62500000  1
  O  O396  1  0.07240000  0.01200000  0.96040000  1
  O  O397  1  0.07240000  0.51200000  0.53960000  1
  O  O398  1  0.08060000  0.23200000  0.47780000  1
  O  O399  1  0.08060000  0.73200000  0.02220000  1
  O  O400  1  0.08290000  0.15740000  0.85200000  1
  O  O401  1  0.08290000  0.65740000  0.64800000  1
  O  O402  1  0.08840000  0.05390000  0.42710000  1
  O  O403  1  0.08840000  0.55390000  0.07290000  1
  O  O404  1  0.09310000  0.44390000  0.65680000  1
  O  O405  1  0.09310000  0.94390000  0.84320000  1
  O  O406  1  0.09640000  0.26680000  0.40850000  1
  O  O407  1  0.09640000  0.76680000  0.09150000  1
  O  O408  1  0.10480000  0.05270000  0.63680000  1
  O  O409  1  0.10480000  0.55270000  0.86320000  1
  O  O410  1  0.11060000  0.44290000  0.10020000  1
  O  O411  1  0.11060000  0.94290000  0.39980000  1
  O  O412  1  0.11180000  0.08670000  0.33970000  1
  O  O413  1  0.11180000  0.58670000  0.16030000  1
  O  O414  1  0.11440000  0.41350000  0.57260000  1
  O  O415  1  0.11440000  0.91350000  0.92740000  1
  O  O416  1  0.11960000  0.11550000  0.93350000  1
  O  O417  1  0.11960000  0.61550000  0.56650000  1
  O  O418  1  0.13500000  0.47810000  0.18280000  1
  O  O419  1  0.13500000  0.97810000  0.31720000  1
  O  O420  1  0.13990000  0.29670000  0.56430000  1
  O  O421  1  0.13990000  0.79670000  0.93570000  1
  O  O422  1  0.14150000  0.11610000  0.49840000  1
  O  O423  1  0.14150000  0.61610000  0.00160000  1
  O  O424  1  0.14470000  0.06030000  0.81170000  1
  O  O425  1  0.14470000  0.56030000  0.68830000  1
  O  O426  1  0.14510000  0.46370000  0.73960000  1
  O  O427  1  0.14510000  0.96370000  0.76040000  1
  O  O428  1  0.14950000  0.20910000  0.05760000  1
  O  O429  1  0.14950000  0.70910000  0.44240000  1
  O  O430  1  0.16080000  0.02250000  0.90090000  1
  O  O431  1  0.16080000  0.52250000  0.59910000  1
  O  O432  1  0.16140000  0.38980000  0.02780000  1
  O  O433  1  0.16140000  0.88980000  0.47220000  1
  O  O434  1  0.16260000  0.11320000  0.59410000  1
  O  O435  1  0.16260000  0.61320000  0.90590000  1
  O  O436  1  0.17130000  0.38640000  0.81650000  1
  O  O437  1  0.17130000  0.88640000  0.68350000  1
  O  O438  1  0.17310000  0.14050000  0.40980000  1
  O  O439  1  0.17310000  0.64050000  0.09020000  1
  O  O440  1  0.17410000  0.36210000  0.63940000  1
  O  O441  1  0.17410000  0.86210000  0.86060000  1
  O  O442  1  0.17850000  0.37890000  0.15560000  1
  O  O443  1  0.17850000  0.87890000  0.34440000  1
  O  O444  1  0.17950000  0.00430000  0.48080000  1
  O  O445  1  0.17950000  0.50430000  0.01920000  1
  O  O446  1  0.19590000  0.48890000  0.50600000  1
  O  O447  1  0.19590000  0.98890000  0.99400000  1
  O  O448  1  0.19750000  0.03700000  0.38910000  1
  O  O449  1  0.19750000  0.53700000  0.11090000  1
  O  O450  1  0.20790000  0.37540000  0.51460000  1
  O  O451  1  0.20790000  0.87540000  0.98540000  1
  O  O452  1  0.21370000  0.12690000  0.86590000  1
  O  O453  1  0.21370000  0.62690000  0.63410000  1
  O  O454  1  0.22340000  0.46760000  0.67410000  1
  O  O455  1  0.22340000  0.96760000  0.82590000  1
  O  O456  1  0.22440000  0.47920000  0.25150000  1
  O  O457  1  0.22440000  0.97920000  0.24850000  1
  O  O458  1  0.22970000  0.34920000  0.32430000  1
  O  O459  1  0.22970000  0.84920000  0.17570000  1
  O  O460  1  0.23130000  0.07680000  0.29820000  1
  O  O461  1  0.23130000  0.57680000  0.20180000  1
  O  O462  1  0.23180000  0.37740000  0.72100000  1
  O  O463  1  0.23180000  0.87740000  0.77900000  1
  O  O464  1  0.23370000  0.32420000  0.08430000  1
  O  O465  1  0.23370000  0.82420000  0.41570000  1
  O  O466  1  0.23710000  0.08660000  0.96380000  1
  O  O467  1  0.23710000  0.58660000  0.53620000  1
  O  O468  1  0.24620000  0.19360000  0.57370000  1
  O  O469  1  0.24620000  0.69360000  0.92630000  1
  O  O470  1  0.24720000  0.42930000  0.08070000  1
  O  O471  1  0.24720000  0.92930000  0.41930000  1
  O  O472  1  0.25280000  0.42930000  0.58070000  1
  O  O473  1  0.25280000  0.92930000  0.91930000  1
  O  O474  1  0.25380000  0.19360000  0.07370000  1
  O  O475  1  0.25380000  0.69360000  0.42630000  1
  O  O476  1  0.26290000  0.08660000  0.46380000  1
  O  O477  1  0.26290000  0.58660000  0.03620000  1
  O  O478  1  0.26630000  0.32420000  0.58430000  1
  O  O479  1  0.26630000  0.82420000  0.91570000  1
  O  O480  1  0.26820000  0.37740000  0.22100000  1
  O  O481  1  0.26820000  0.87740000  0.27900000  1
  O  O482  1  0.26870000  0.07680000  0.79820000  1
  O  O483  1  0.26870000  0.57680000  0.70180000  1
  O  O484  1  0.27030000  0.34920000  0.82430000  1
  O  O485  1  0.27030000  0.84920000  0.67570000  1
  O  O486  1  0.27560000  0.47920000  0.75150000  1
  O  O487  1  0.27560000  0.97920000  0.74850000  1
  O  O488  1  0.27660000  0.46760000  0.17410000  1
  O  O489  1  0.27660000  0.96760000  0.32590000  1
  O  O490  1  0.28630000  0.12690000  0.36590000  1
  O  O491  1  0.28630000  0.62690000  0.13410000  1
  O  O492  1  0.29210000  0.37540000  0.01460000  1
  O  O493  1  0.29210000  0.87540000  0.48540000  1
  O  O494  1  0.30250000  0.03700000  0.88910000  1
  O  O495  1  0.30250000  0.53700000  0.61090000  1
  O  O496  1  0.30410000  0.48890000  0.00600000  1
  O  O497  1  0.30410000  0.98890000  0.49400000  1
  O  O498  1  0.32050000  0.00430000  0.98080000  1
  O  O499  1  0.32050000  0.50430000  0.51920000  1
  O  O500  1  0.32150000  0.37890000  0.65560000  1
  O  O501  1  0.32150000  0.87890000  0.84440000  1
  O  O502  1  0.32590000  0.36210000  0.13940000  1
  O  O503  1  0.32590000  0.86210000  0.36060000  1
  O  O504  1  0.32690000  0.14050000  0.90980000  1
  O  O505  1  0.32690000  0.64050000  0.59020000  1
  O  O506  1  0.32870000  0.38640000  0.31650000  1
  O  O507  1  0.32870000  0.88640000  0.18350000  1
  O  O508  1  0.33740000  0.11320000  0.09410000  1
  O  O509  1  0.33740000  0.61320000  0.40590000  1
  O  O510  1  0.33860000  0.38980000  0.52780000  1
  O  O511  1  0.33860000  0.88980000  0.97220000  1
  O  O512  1  0.33920000  0.02250000  0.40090000  1
  O  O513  1  0.33920000  0.52250000  0.09910000  1
  O  O514  1  0.35050000  0.20910000  0.55760000  1
  O  O515  1  0.35050000  0.70910000  0.94240000  1
  O  O516  1  0.35490000  0.46370000  0.23960000  1
  O  O517  1  0.35490000  0.96370000  0.26040000  1
  O  O518  1  0.35530000  0.06030000  0.31170000  1
  O  O519  1  0.35530000  0.56030000  0.18830000  1
  O  O520  1  0.35850000  0.11610000  0.99840000  1
  O  O521  1  0.35850000  0.61610000  0.50160000  1
  O  O522  1  0.36010000  0.29670000  0.06430000  1
  O  O523  1  0.36010000  0.79670000  0.43570000  1
  O  O524  1  0.36500000  0.47810000  0.68280000  1
  O  O525  1  0.36500000  0.97810000  0.81720000  1
  O  O526  1  0.38040000  0.11550000  0.43350000  1
  O  O527  1  0.38040000  0.61550000  0.06650000  1
  O  O528  1  0.38560000  0.41350000  0.07260000  1
  O  O529  1  0.38560000  0.91350000  0.42740000  1
  O  O530  1  0.38820000  0.08670000  0.83970000  1
  O  O531  1  0.38820000  0.58670000  0.66030000  1
  O  O532  1  0.38940000  0.44290000  0.60020000  1
  O  O533  1  0.38940000  0.94290000  0.89980000  1
  O  O534  1  0.39520000  0.05270000  0.13680000  1
  O  O535  1  0.39520000  0.55270000  0.36320000  1
  O  O536  1  0.40360000  0.26680000  0.90850000  1
  O  O537  1  0.40360000  0.76680000  0.59150000  1
  O  O538  1  0.40690000  0.44390000  0.15680000  1
  O  O539  1  0.40690000  0.94390000  0.34320000  1
  O  O540  1  0.41160000  0.05390000  0.92710000  1
  O  O541  1  0.41160000  0.55390000  0.57290000  1
  O  O542  1  0.41710000  0.15740000  0.35200000  1
  O  O543  1  0.41710000  0.65740000  0.14800000  1
  O  O544  1  0.41940000  0.23200000  0.97780000  1
  O  O545  1  0.41940000  0.73200000  0.52220000  1
  O  O546  1  0.42760000  0.01200000  0.46040000  1
  O  O547  1  0.42760000  0.51200000  0.03960000  1
  O  O548  1  0.45140000  0.04940000  0.37500000  1
  O  O549  1  0.45140000  0.54940000  0.12500000  1
  O  O550  1  0.45730000  0.05110000  0.22750000  1
  O  O551  1  0.45730000  0.55110000  0.27250000  1
  O  O552  1  0.46070000  0.37460000  0.31960000  1
  O  O553  1  0.46070000  0.87460000  0.18040000  1
  O  O554  1  0.46980000  0.19400000  0.79910000  1
  O  O555  1  0.46980000  0.69400000  0.70090000  1
  O  O556  1  0.48490000  0.41570000  0.78650000  1
  O  O557  1  0.48490000  0.91570000  0.71350000  1
  O  O558  1  0.48500000  0.00940000  0.85680000  1
  O  O559  1  0.48500000  0.50940000  0.64320000  1
  O  O560  1  0.51500000  0.49060000  0.35680000  1
  O  O561  1  0.51500000  0.99060000  0.14320000  1
  O  O562  1  0.51510000  0.08430000  0.28650000  1
  O  O563  1  0.51510000  0.58430000  0.21350000  1
  O  O564  1  0.53020000  0.30600000  0.29910000  1
  O  O565  1  0.53020000  0.80600000  0.20090000  1
  O  O566  1  0.53930000  0.12540000  0.81960000  1
  O  O567  1  0.53930000  0.62540000  0.68040000  1
  O  O568  1  0.54270000  0.44890000  0.72750000  1
  O  O569  1  0.54270000  0.94890000  0.77250000  1
  O  O570  1  0.54860000  0.45060000  0.87500000  1
  O  O571  1  0.54860000  0.95060000  0.62500000  1
  O  O572  1  0.57240000  0.48800000  0.96040000  1
  O  O573  1  0.57240000  0.98800000  0.53960000  1
  O  O574  1  0.58060000  0.26800000  0.47780000  1
  O  O575  1  0.58060000  0.76800000  0.02220000  1
  O  O576  1  0.58290000  0.34260000  0.85200000  1
  O  O577  1  0.58290000  0.84260000  0.64800000  1
  O  O578  1  0.58840000  0.44610000  0.42710000  1
  O  O579  1  0.58840000  0.94610000  0.07290000  1
  O  O580  1  0.59310000  0.05610000  0.65680000  1
  O  O581  1  0.59310000  0.55610000  0.84320000  1
  O  O582  1  0.59640000  0.23320000  0.40850000  1
  O  O583  1  0.59640000  0.73320000  0.09150000  1
  O  O584  1  0.60480000  0.44730000  0.63680000  1
  O  O585  1  0.60480000  0.94730000  0.86320000  1
  O  O586  1  0.61060000  0.05710000  0.10020000  1
  O  O587  1  0.61060000  0.55710000  0.39980000  1
  O  O588  1  0.61180000  0.41330000  0.33970000  1
  O  O589  1  0.61180000  0.91330000  0.16030000  1
  O  O590  1  0.61440000  0.08650000  0.57260000  1
  O  O591  1  0.61440000  0.58650000  0.92740000  1
  O  O592  1  0.61960000  0.38450000  0.93350000  1
  O  O593  1  0.61960000  0.88450000  0.56650000  1
  O  O594  1  0.63500000  0.02190000  0.18280000  1
  O  O595  1  0.63500000  0.52190000  0.31720000  1
  O  O596  1  0.63990000  0.20330000  0.56430000  1
  O  O597  1  0.63990000  0.70330000  0.93570000  1
  O  O598  1  0.64150000  0.38390000  0.49840000  1
  O  O599  1  0.64150000  0.88390000  0.00160000  1
  O  O600  1  0.64470000  0.43970000  0.81170000  1
  O  O601  1  0.64470000  0.93970000  0.68830000  1
  O  O602  1  0.64510000  0.03630000  0.73960000  1
  O  O603  1  0.64510000  0.53630000  0.76040000  1
  O  O604  1  0.64950000  0.29090000  0.05760000  1
  O  O605  1  0.64950000  0.79090000  0.44240000  1
  O  O606  1  0.66080000  0.47750000  0.90090000  1
  O  O607  1  0.66080000  0.97750000  0.59910000  1
  O  O608  1  0.66140000  0.11020000  0.02780000  1
  O  O609  1  0.66140000  0.61020000  0.47220000  1
  O  O610  1  0.66260000  0.38680000  0.59410000  1
  O  O611  1  0.66260000  0.88680000  0.90590000  1
  O  O612  1  0.67130000  0.11360000  0.81650000  1
  O  O613  1  0.67130000  0.61360000  0.68350000  1
  O  O614  1  0.67310000  0.35950000  0.40980000  1
  O  O615  1  0.67310000  0.85950000  0.09020000  1
  O  O616  1  0.67410000  0.13790000  0.63940000  1
  O  O617  1  0.67410000  0.63790000  0.86060000  1
  O  O618  1  0.67850000  0.12110000  0.15560000  1
  O  O619  1  0.67850000  0.62110000  0.34440000  1
  O  O620  1  0.67950000  0.49570000  0.48080000  1
  O  O621  1  0.67950000  0.99570000  0.01920000  1
  O  O622  1  0.69590000  0.01110000  0.50600000  1
  O  O623  1  0.69590000  0.51110000  0.99400000  1
  O  O624  1  0.69750000  0.46300000  0.38910000  1
  O  O625  1  0.69750000  0.96300000  0.11090000  1
  O  O626  1  0.70790000  0.12460000  0.51460000  1
  O  O627  1  0.70790000  0.62460000  0.98540000  1
  O  O628  1  0.71370000  0.37310000  0.86590000  1
  O  O629  1  0.71370000  0.87310000  0.63410000  1
  O  O630  1  0.72340000  0.03240000  0.67410000  1
  O  O631  1  0.72340000  0.53240000  0.82590000  1
  O  O632  1  0.72440000  0.02080000  0.25150000  1
  O  O633  1  0.72440000  0.52080000  0.24850000  1
  O  O634  1  0.72970000  0.15080000  0.32430000  1
  O  O635  1  0.72970000  0.65080000  0.17570000  1
  O  O636  1  0.73130000  0.42320000  0.29820000  1
  O  O637  1  0.73130000  0.92320000  0.20180000  1
  O  O638  1  0.73180000  0.12260000  0.72100000  1
  O  O639  1  0.73180000  0.62260000  0.77900000  1
  O  O640  1  0.73370000  0.17580000  0.08430000  1
  O  O641  1  0.73370000  0.67580000  0.41570000  1
  O  O642  1  0.73710000  0.41340000  0.96380000  1
  O  O643  1  0.73710000  0.91340000  0.53620000  1
  O  O644  1  0.74620000  0.30640000  0.57370000  1
  O  O645  1  0.74620000  0.80640000  0.92630000  1
  O  O646  1  0.74720000  0.07070000  0.08070000  1
  O  O647  1  0.74720000  0.57070000  0.41930000  1
  O  O648  1  0.75280000  0.07070000  0.58070000  1
  O  O649  1  0.75280000  0.57070000  0.91930000  1
  O  O650  1  0.75380000  0.30640000  0.07370000  1
  O  O651  1  0.75380000  0.80640000  0.42630000  1
  O  O652  1  0.76290000  0.41340000  0.46380000  1
  O  O653  1  0.76290000  0.91340000  0.03620000  1
  O  O654  1  0.76630000  0.17580000  0.58430000  1
  O  O655  1  0.76630000  0.67580000  0.91570000  1
  O  O656  1  0.76820000  0.12260000  0.22100000  1
  O  O657  1  0.76820000  0.62260000  0.27900000  1
  O  O658  1  0.76870000  0.42320000  0.79820000  1
  O  O659  1  0.76870000  0.92320000  0.70180000  1
  O  O660  1  0.77030000  0.15080000  0.82430000  1
  O  O661  1  0.77030000  0.65080000  0.67570000  1
  O  O662  1  0.77560000  0.02080000  0.75150000  1
  O  O663  1  0.77560000  0.52080000  0.74850000  1
  O  O664  1  0.77660000  0.03240000  0.17410000  1
  O  O665  1  0.77660000  0.53240000  0.32590000  1
  O  O666  1  0.78630000  0.37310000  0.36590000  1
  O  O667  1  0.78630000  0.87310000  0.13410000  1
  O  O668  1  0.79210000  0.12460000  0.01460000  1
  O  O669  1  0.79210000  0.62460000  0.48540000  1
  O  O670  1  0.80250000  0.46300000  0.88910000  1
  O  O671  1  0.80250000  0.96300000  0.61090000  1
  O  O672  1  0.80410000  0.01110000  0.00600000  1
  O  O673  1  0.80410000  0.51110000  0.49400000  1
  O  O674  1  0.82050000  0.49570000  0.98080000  1
  O  O675  1  0.82050000  0.99570000  0.51920000  1
  O  O676  1  0.82150000  0.12110000  0.65560000  1
  O  O677  1  0.82150000  0.62110000  0.84440000  1
  O  O678  1  0.82590000  0.13790000  0.13940000  1
  O  O679  1  0.82590000  0.63790000  0.36060000  1
  O  O680  1  0.82690000  0.35950000  0.90980000  1
  O  O681  1  0.82690000  0.85950000  0.59020000  1
  O  O682  1  0.82870000  0.11360000  0.31650000  1
  O  O683  1  0.82870000  0.61360000  0.18350000  1
  O  O684  1  0.83740000  0.38680000  0.09410000  1
  O  O685  1  0.83740000  0.88680000  0.40590000  1
  O  O686  1  0.83860000  0.11020000  0.52780000  1
  O  O687  1  0.83860000  0.61020000  0.97220000  1
  O  O688  1  0.83920000  0.47750000  0.40090000  1
  O  O689  1  0.83920000  0.97750000  0.09910000  1
  O  O690  1  0.85050000  0.29090000  0.55760000  1
  O  O691  1  0.85050000  0.79090000  0.94240000  1
  O  O692  1  0.85490000  0.03630000  0.23960000  1
  O  O693  1  0.85490000  0.53630000  0.26040000  1
  O  O694  1  0.85530000  0.43970000  0.31170000  1
  O  O695  1  0.85530000  0.93970000  0.18830000  1
  O  O696  1  0.85850000  0.38390000  0.99840000  1
  O  O697  1  0.85850000  0.88390000  0.50160000  1
  O  O698  1  0.86010000  0.20330000  0.06430000  1
  O  O699  1  0.86010000  0.70330000  0.43570000  1
  O  O700  1  0.86500000  0.02190000  0.68280000  1
  O  O701  1  0.86500000  0.52190000  0.81720000  1
  O  O702  1  0.88040000  0.38450000  0.43350000  1
  O  O703  1  0.88040000  0.88450000  0.06650000  1
  O  O704  1  0.88560000  0.08650000  0.07260000  1
  O  O705  1  0.88560000  0.58650000  0.42740000  1
  O  O706  1  0.88820000  0.41330000  0.83970000  1
  O  O707  1  0.88820000  0.91330000  0.66030000  1
  O  O708  1  0.88940000  0.05710000  0.60020000  1
  O  O709  1  0.88940000  0.55710000  0.89980000  1
  O  O710  1  0.89520000  0.44730000  0.13680000  1
  O  O711  1  0.89520000  0.94730000  0.36320000  1
  O  O712  1  0.90360000  0.23320000  0.90850000  1
  O  O713  1  0.90360000  0.73320000  0.59150000  1
  O  O714  1  0.90690000  0.05610000  0.15680000  1
  O  O715  1  0.90690000  0.55610000  0.34320000  1
  O  O716  1  0.91160000  0.44610000  0.92710000  1
  O  O717  1  0.91160000  0.94610000  0.57290000  1
  O  O718  1  0.91710000  0.34260000  0.35200000  1
  O  O719  1  0.91710000  0.84260000  0.14800000  1
  O  O720  1  0.91940000  0.26800000  0.97780000  1
  O  O721  1  0.91940000  0.76800000  0.52220000  1
  O  O722  1  0.92760000  0.48800000  0.46040000  1
  O  O723  1  0.92760000  0.98800000  0.03960000  1
  O  O724  1  0.95140000  0.45060000  0.37500000  1
  O  O725  1  0.95140000  0.95060000  0.12500000  1
  O  O726  1  0.95730000  0.44890000  0.22750000  1
  O  O727  1  0.95730000  0.94890000  0.27250000  1
  O  O728  1  0.96070000  0.12540000  0.31960000  1
  O  O729  1  0.96070000  0.62540000  0.18040000  1
  O  O730  1  0.96980000  0.30600000  0.79910000  1
  O  O731  1  0.96980000  0.80600000  0.70090000  1
  O  O732  1  0.98490000  0.08430000  0.78650000  1
  O  O733  1  0.98490000  0.58430000  0.71350000  1
  O  O734  1  0.98500000  0.49060000  0.85680000  1
  O  O735  1  0.98500000  0.99060000  0.64320000  1
