# generated using pymatgen
data_CuH17C23(N3O2)2
_symmetry_space_group_name_H-M   'P 1'
_cell_length_a   11.55390000
_cell_length_b   15.42280000
_cell_length_c   17.68600000
_cell_angle_alpha   114.09500000
_cell_angle_beta   90.00000000
_cell_angle_gamma   111.99800000
_symmetry_Int_Tables_number   1
_chemical_formula_structural   CuH17C23(N3O2)2
_chemical_formula_sum   'Cu4 H68 C92 N24 O16'
_cell_volume   2623.59043024
_cell_formula_units_Z   4
loop_
 _symmetry_equiv_pos_site_id
 _symmetry_equiv_pos_as_xyz
  1  'x, y, z'
loop_
 _atom_site_type_symbol
 _atom_site_label
 _atom_site_symmetry_multiplicity
 _atom_site_fract_x
 _atom_site_fract_y
 _atom_site_fract_z
 _atom_site_occupancy
  Cu  Cu0  1  0.16277000  0.39818000  0.22981000  1
  Cu  Cu1  1  0.23541000  0.39818000  0.72981000  1
  Cu  Cu2  1  0.76459000  0.60182000  0.27019000  1
  Cu  Cu3  1  0.83723000  0.60182000  0.77019000  1
  H  H4  1  0.04580000  0.61940000  0.28700000  1
  H  H5  1  0.09770000  0.38640000  0.95970000  1
  H  H6  1  0.10650000  0.46220000  0.42220000  1
  H  H7  1  0.12180000  0.65060000  0.78480000  1
  H  H8  1  0.14770000  0.32560000  0.53460000  1
  H  H9  1  0.16710000  0.84980000  0.40160000  1
  H  H10  1  0.17790000  0.32560000  0.03460000  1
  H  H11  1  0.20920000  0.70280000  0.10730000  1
  H  H12  1  0.22420000  0.80280000  0.68660000  1
  H  H13  1  0.24930000  0.84740000  0.08500000  1
  H  H14  1  0.26100000  0.65760000  0.38660000  1
  H  H15  1  0.27210000  0.73100000  0.48160000  1
  H  H16  1  0.27810000  0.99080000  0.37830000  1
  H  H17  1  0.28310000  0.59040000  0.12970000  1
  H  H18  1  0.28730000  0.00920000  0.12170000  1
  H  H19  1  0.28870000  0.38640000  0.45970000  1
  H  H20  1  0.30730000  0.59040000  0.62970000  1
  H  H21  1  0.31730000  0.15020000  0.09840000  1
  H  H22  1  0.32150000  0.80000000  0.91220000  1
  H  H23  1  0.32970000  0.94840000  0.66550000  1
  H  H24  1  0.33040000  0.66400000  0.72600000  1
  H  H25  1  0.33360000  0.66400000  0.22600000  1
  H  H26  1  0.35400000  0.94680000  0.89230000  1
  H  H27  1  0.35570000  0.46220000  0.92220000  1
  H  H28  1  0.38130000  0.05160000  0.83450000  1
  H  H29  1  0.39660000  0.65760000  0.88660000  1
  H  H30  1  0.40190000  0.15260000  0.41500000  1
  H  H31  1  0.40720000  0.05320000  0.60770000  1
  H  H32  1  0.42140000  0.19720000  0.81340000  1
  H  H33  1  0.42640000  0.38060000  0.21300000  1
  H  H34  1  0.45890000  0.73100000  0.98160000  1
  H  H35  1  0.47120000  0.34940000  0.71520000  1
  H  H36  1  0.47850000  0.80000000  0.41220000  1
  H  H37  1  0.49360000  0.70280000  0.60730000  1
  H  H38  1  0.50640000  0.29720000  0.39270000  1
  H  H39  1  0.52150000  0.20000000  0.58780000  1
  H  H40  1  0.52880000  0.65060000  0.28480000  1
  H  H41  1  0.54110000  0.26900000  0.01840000  1
  H  H42  1  0.57360000  0.61940000  0.78700000  1
  H  H43  1  0.57860000  0.80280000  0.18660000  1
  H  H44  1  0.59280000  0.94680000  0.39230000  1
  H  H45  1  0.59810000  0.84740000  0.58500000  1
  H  H46  1  0.60340000  0.34240000  0.11340000  1
  H  H47  1  0.61870000  0.94840000  0.16550000  1
  H  H48  1  0.64430000  0.53780000  0.07780000  1
  H  H49  1  0.64600000  0.05320000  0.10770000  1
  H  H50  1  0.66640000  0.33600000  0.77400000  1
  H  H51  1  0.66960000  0.33600000  0.27400000  1
  H  H52  1  0.67030000  0.05160000  0.33450000  1
  H  H53  1  0.67850000  0.20000000  0.08780000  1
  H  H54  1  0.68270000  0.84980000  0.90160000  1
  H  H55  1  0.69270000  0.40960000  0.37030000  1
  H  H56  1  0.71130000  0.61360000  0.54030000  1
  H  H57  1  0.71270000  0.99080000  0.87830000  1
  H  H58  1  0.71690000  0.40960000  0.87030000  1
  H  H59  1  0.72190000  0.00920000  0.62170000  1
  H  H60  1  0.72790000  0.26900000  0.51840000  1
  H  H61  1  0.73900000  0.34240000  0.61340000  1
  H  H62  1  0.75070000  0.15260000  0.91500000  1
  H  H63  1  0.77580000  0.19720000  0.31340000  1
  H  H64  1  0.79080000  0.29720000  0.89270000  1
  H  H65  1  0.82210000  0.67440000  0.96540000  1
  H  H66  1  0.83290000  0.15020000  0.59840000  1
  H  H67  1  0.85230000  0.67440000  0.46540000  1
  H  H68  1  0.87820000  0.34940000  0.21520000  1
  H  H69  1  0.89350000  0.53780000  0.57780000  1
  H  H70  1  0.90230000  0.61360000  0.04030000  1
  H  H71  1  0.95420000  0.38060000  0.71300000  1
  C  C72  1  0.00220000  0.44620000  0.04660000  1
  C  C73  1  0.01560000  0.38980000  0.09680000  1
  C  C74  1  0.02410000  0.64240000  0.34010000  1
  C  C75  1  0.03240000  0.43500000  0.38400000  1
  C  C76  1  0.05860000  0.43240000  0.97610000  1
  C  C77  1  0.05860000  0.48640000  0.92890000  1
  C  C78  1  0.08010000  0.32600000  0.56310000  1
  C  C79  1  0.08830000  0.62540000  0.72850000  1
  C  C80  1  0.12500000  0.47360000  0.85600000  1
  C  C81  1  0.24220000  0.71520000  0.42420000  1
  C  C82  1  0.24590000  0.32600000  0.06310000  1
  C  C83  1  0.25290000  0.86820000  0.39910000  1
  C  C84  1  0.29160000  0.64800000  0.67060000  1
  C  C85  1  0.29200000  0.75320000  0.12100000  1
  C  C86  1  0.30150000  0.81280000  0.66820000  1
  C  C87  1  0.31240000  0.80920000  0.40860000  1
  C  C88  1  0.31610000  0.84060000  0.10780000  1
  C  C89  1  0.32050000  0.95360000  0.38630000  1
  C  C90  1  0.34860000  0.47360000  0.35600000  1
  C  C91  1  0.35190000  0.73940000  0.65390000  1
  C  C92  1  0.35640000  0.64800000  0.17060000  1
  C  C93  1  0.36490000  0.90020000  0.65540000  1
  C  C94  1  0.36690000  0.04640000  0.11370000  1
  C  C95  1  0.37380000  0.43240000  0.47610000  1
  C  C96  1  0.37420000  0.38980000  0.59680000  1
  C  C97  1  0.38170000  0.35760000  0.15990000  1
  C  C98  1  0.38470000  0.13180000  0.10090000  1
  C  C99  1  0.38750000  0.73940000  0.15390000  1
  C  C100  1  0.40150000  0.83900000  0.90600000  1
  C  C101  1  0.40260000  0.43500000  0.88400000  1
  C  C102  1  0.42110000  0.92780000  0.89390000  1
  C  C103  1  0.42780000  0.48640000  0.42890000  1
  C  C104  1  0.43690000  0.91760000  0.12760000  1
  C  C105  1  0.43750000  0.83900000  0.40600000  1
  C  C106  1  0.44400000  0.44620000  0.54660000  1
  C  C107  1  0.44880000  0.98700000  0.38450000  1
  C  C108  1  0.46120000  0.75320000  0.62100000  1
  C  C109  1  0.46180000  0.01300000  0.11550000  1
  C  C110  1  0.46290000  0.37460000  0.77150000  1
  C  C111  1  0.46470000  0.09980000  0.84460000  1
  C  C112  1  0.47300000  0.71520000  0.92420000  1
  C  C113  1  0.47550000  0.15940000  0.39220000  1
  C  C114  1  0.48070000  0.91760000  0.62760000  1
  C  C115  1  0.48870000  0.18720000  0.83180000  1
  C  C116  1  0.49330000  0.07220000  0.60610000  1
  C  C117  1  0.49680000  0.80920000  0.90860000  1
  C  C118  1  0.50320000  0.19080000  0.09140000  1
  C  C119  1  0.50670000  0.92780000  0.39390000  1
  C  C120  1  0.51130000  0.81280000  0.16820000  1
  C  C121  1  0.51930000  0.08240000  0.37240000  1
  C  C122  1  0.52450000  0.84060000  0.60780000  1
  C  C123  1  0.52700000  0.28480000  0.07580000  1
  C  C124  1  0.53530000  0.90020000  0.15540000  1
  C  C125  1  0.53710000  0.62540000  0.22850000  1
  C  C126  1  0.53820000  0.98700000  0.88450000  1
  C  C127  1  0.53880000  0.24680000  0.37900000  1
  C  C128  1  0.55120000  0.01300000  0.61550000  1
  C  C129  1  0.55600000  0.55380000  0.45340000  1
  C  C130  1  0.56250000  0.16100000  0.59400000  1
  C  C131  1  0.56310000  0.08240000  0.87240000  1
  C  C132  1  0.57220000  0.51360000  0.57110000  1
  C  C133  1  0.57890000  0.07220000  0.10610000  1
  C  C134  1  0.59740000  0.56500000  0.11600000  1
  C  C135  1  0.59850000  0.16100000  0.09400000  1
  C  C136  1  0.61250000  0.26060000  0.84610000  1
  C  C137  1  0.61530000  0.86820000  0.89910000  1
  C  C138  1  0.61830000  0.64240000  0.84010000  1
  C  C139  1  0.62580000  0.61020000  0.40320000  1
  C  C140  1  0.62620000  0.56760000  0.52390000  1
  C  C141  1  0.63310000  0.95360000  0.88630000  1
  C  C142  1  0.63510000  0.09980000  0.34460000  1
  C  C143  1  0.64360000  0.35200000  0.82940000  1
  C  C144  1  0.64810000  0.26060000  0.34610000  1
  C  C145  1  0.65140000  0.52640000  0.64400000  1
  C  C146  1  0.67950000  0.04640000  0.61370000  1
  C  C147  1  0.68390000  0.15940000  0.89220000  1
  C  C148  1  0.68760000  0.19080000  0.59140000  1
  C  C149  1  0.69850000  0.18720000  0.33180000  1
  C  C150  1  0.70800000  0.24680000  0.87900000  1
  C  C151  1  0.70840000  0.35200000  0.32940000  1
  C  C152  1  0.74710000  0.13180000  0.60090000  1
  C  C153  1  0.75410000  0.67400000  0.93690000  1
  C  C154  1  0.75780000  0.28480000  0.57580000  1
  C  C155  1  0.87500000  0.52640000  0.14400000  1
  C  C156  1  0.91170000  0.37460000  0.27150000  1
  C  C157  1  0.91990000  0.67400000  0.43690000  1
  C  C158  1  0.94140000  0.51360000  0.07110000  1
  C  C159  1  0.94140000  0.56760000  0.02390000  1
  C  C160  1  0.96760000  0.56500000  0.61600000  1
  C  C161  1  0.97590000  0.35760000  0.65990000  1
  C  C162  1  0.98440000  0.61020000  0.90320000  1
  C  C163  1  0.99780000  0.55380000  0.95340000  1
  N  N164  1  0.03081000  0.40522000  0.30070000  1
  N  N165  1  0.03750000  0.70780000  0.47110000  1
  N  N166  1  0.07670000  0.57680000  0.59340000  1
  N  N167  1  0.08679000  0.36238000  0.64760000  1
  N  N168  1  0.10473000  0.68366000  0.41140000  1
  N  N169  1  0.15521000  0.61582000  0.66690000  1
  N  N170  1  0.27559000  0.36238000  0.14760000  1
  N  N171  1  0.32970000  0.29220000  0.02890000  1
  N  N172  1  0.37441000  0.40522000  0.80070000  1
  N  N173  1  0.42107000  0.31634000  0.08860000  1
  N  N174  1  0.46061000  0.61582000  0.16690000  1
  N  N175  1  0.49990000  0.42320000  0.90660000  1
  N  N176  1  0.50010000  0.57680000  0.09340000  1
  N  N177  1  0.53939000  0.38418000  0.83310000  1
  N  N178  1  0.57893000  0.68366000  0.91140000  1
  N  N179  1  0.62559000  0.59478000  0.19930000  1
  N  N180  1  0.67030000  0.70780000  0.97110000  1
  N  N181  1  0.72441000  0.63762000  0.85240000  1
  N  N182  1  0.84479000  0.38418000  0.33310000  1
  N  N183  1  0.89527000  0.31634000  0.58860000  1
  N  N184  1  0.91321000  0.63762000  0.35240000  1
  N  N185  1  0.92330000  0.42320000  0.40660000  1
  N  N186  1  0.96250000  0.29220000  0.52890000  1
  N  N187  1  0.96919000  0.59478000  0.69930000  1
  O  O188  1  0.04253000  0.70426000  0.92990000  1
  O  O189  1  0.09446000  0.45152000  0.16610000  1
  O  O190  1  0.12595000  0.38310000  0.81360000  1
  O  O191  1  0.17991000  0.54702000  0.83920000  1
  O  O192  1  0.25715000  0.38310000  0.31360000  1
  O  O193  1  0.33827000  0.29574000  0.57010000  1
  O  O194  1  0.35706000  0.45152000  0.66610000  1
  O  O195  1  0.36711000  0.54702000  0.33920000  1
  O  O196  1  0.63289000  0.45298000  0.66080000  1
  O  O197  1  0.64294000  0.54848000  0.33390000  1
  O  O198  1  0.66173000  0.70426000  0.42990000  1
  O  O199  1  0.74285000  0.61690000  0.68640000  1
  O  O200  1  0.82009000  0.45298000  0.16080000  1
  O  O201  1  0.87405000  0.61690000  0.18640000  1
  O  O202  1  0.90554000  0.54848000  0.83390000  1
  O  O203  1  0.95747000  0.29574000  0.07010000  1
