# generated using pymatgen
data_Cu2H28C21IN9
_symmetry_space_group_name_H-M   'P 1'
_cell_length_a   11.40600000
_cell_length_b   14.98100000
_cell_length_c   16.86700000
_cell_angle_alpha   90.00000000
_cell_angle_beta   90.00000000
_cell_angle_gamma   90.00000000
_symmetry_Int_Tables_number   1
_chemical_formula_structural   Cu2H28C21IN9
_chemical_formula_sum   'Cu8 H112 C84 I4 N36'
_cell_volume   2882.11971496
_cell_formula_units_Z   4
loop_
 _symmetry_equiv_pos_site_id
 _symmetry_equiv_pos_as_xyz
  1  'x, y, z'
loop_
 _atom_site_type_symbol
 _atom_site_label
 _atom_site_symmetry_multiplicity
 _atom_site_fract_x
 _atom_site_fract_y
 _atom_site_fract_z
 _atom_site_occupancy
  Cu  Cu0  1  0.06940000  0.31664000  0.25000000  1
  Cu  Cu1  1  0.18878000  0.01716000  0.25000000  1
  Cu  Cu2  1  0.31122000  0.51716000  0.75000000  1
  Cu  Cu3  1  0.43060000  0.81664000  0.75000000  1
  Cu  Cu4  1  0.56940000  0.18336000  0.25000000  1
  Cu  Cu5  1  0.68878000  0.48284000  0.25000000  1
  Cu  Cu6  1  0.81122000  0.98284000  0.75000000  1
  Cu  Cu7  1  0.93060000  0.68336000  0.75000000  1
  H  H8  1  0.01340000  0.05030000  0.64250000  1
  H  H9  1  0.01340000  0.05030000  0.85750000  1
  H  H10  1  0.04260000  0.13810000  0.05250000  1
  H  H11  1  0.04260000  0.13810000  0.44750000  1
  H  H12  1  0.04350000  0.67250000  0.56290000  1
  H  H13  1  0.04350000  0.67250000  0.93710000  1
  H  H14  1  0.09790000  0.18040000  0.52380000  1
  H  H15  1  0.09790000  0.18040000  0.97620000  1
  H  H16  1  0.10080000  0.46510000  0.14080000  1
  H  H17  1  0.10080000  0.46510000  0.35920000  1
  H  H18  1  0.10210000  0.45300000  0.59170000  1
  H  H19  1  0.10210000  0.45300000  0.90830000  1
  H  H20  1  0.10880000  0.34900000  0.58230000  1
  H  H21  1  0.10880000  0.34900000  0.91770000  1
  H  H22  1  0.10890000  0.67860000  0.01870000  1
  H  H23  1  0.10890000  0.67860000  0.48130000  1
  H  H24  1  0.11350000  0.07820000  0.50680000  1
  H  H25  1  0.11350000  0.07820000  0.99320000  1
  H  H26  1  0.12620000  0.39280000  0.66590000  1
  H  H27  1  0.12620000  0.39280000  0.83410000  1
  H  H28  1  0.13320000  0.47870000  0.05130000  1
  H  H29  1  0.13320000  0.47870000  0.44870000  1
  H  H30  1  0.15530000  0.61420000  0.54750000  1
  H  H31  1  0.15530000  0.61420000  0.95250000  1
  H  H32  1  0.22520000  0.50100000  0.11750000  1
  H  H33  1  0.22520000  0.50100000  0.38250000  1
  H  H34  1  0.23730000  0.18520000  0.16180000  1
  H  H35  1  0.23730000  0.18520000  0.33820000  1
  H  H36  1  0.26270000  0.68520000  0.66180000  1
  H  H37  1  0.26270000  0.68520000  0.83820000  1
  H  H38  1  0.27480000  0.00100000  0.61750000  1
  H  H39  1  0.27480000  0.00100000  0.88250000  1
  H  H40  1  0.34470000  0.11420000  0.04750000  1
  H  H41  1  0.34470000  0.11420000  0.45250000  1
  H  H42  1  0.36680000  0.97870000  0.55130000  1
  H  H43  1  0.36680000  0.97870000  0.94870000  1
  H  H44  1  0.37380000  0.89280000  0.16590000  1
  H  H45  1  0.37380000  0.89280000  0.33410000  1
  H  H46  1  0.38650000  0.57820000  0.00680000  1
  H  H47  1  0.38650000  0.57820000  0.49320000  1
  H  H48  1  0.39110000  0.17860000  0.51870000  1
  H  H49  1  0.39110000  0.17860000  0.98130000  1
  H  H50  1  0.39120000  0.84900000  0.08230000  1
  H  H51  1  0.39120000  0.84900000  0.41770000  1
  H  H52  1  0.39790000  0.95300000  0.09170000  1
  H  H53  1  0.39790000  0.95300000  0.40830000  1
  H  H54  1  0.39920000  0.96510000  0.64080000  1
  H  H55  1  0.39920000  0.96510000  0.85920000  1
  H  H56  1  0.40210000  0.68040000  0.02380000  1
  H  H57  1  0.40210000  0.68040000  0.47620000  1
  H  H58  1  0.45650000  0.17250000  0.06290000  1
  H  H59  1  0.45650000  0.17250000  0.43710000  1
  H  H60  1  0.45740000  0.63810000  0.55250000  1
  H  H61  1  0.45740000  0.63810000  0.94750000  1
  H  H62  1  0.48660000  0.55030000  0.14250000  1
  H  H63  1  0.48660000  0.55030000  0.35750000  1
  H  H64  1  0.51340000  0.44970000  0.64250000  1
  H  H65  1  0.51340000  0.44970000  0.85750000  1
  H  H66  1  0.54260000  0.36190000  0.05250000  1
  H  H67  1  0.54260000  0.36190000  0.44750000  1
  H  H68  1  0.54350000  0.82750000  0.56290000  1
  H  H69  1  0.54350000  0.82750000  0.93710000  1
  H  H70  1  0.59790000  0.31960000  0.52380000  1
  H  H71  1  0.59790000  0.31960000  0.97620000  1
  H  H72  1  0.60080000  0.03490000  0.14080000  1
  H  H73  1  0.60080000  0.03490000  0.35920000  1
  H  H74  1  0.60210000  0.04700000  0.59170000  1
  H  H75  1  0.60210000  0.04700000  0.90830000  1
  H  H76  1  0.60880000  0.15100000  0.58230000  1
  H  H77  1  0.60880000  0.15100000  0.91770000  1
  H  H78  1  0.60890000  0.82140000  0.01870000  1
  H  H79  1  0.60890000  0.82140000  0.48130000  1
  H  H80  1  0.61350000  0.42180000  0.50680000  1
  H  H81  1  0.61350000  0.42180000  0.99320000  1
  H  H82  1  0.62620000  0.10720000  0.66590000  1
  H  H83  1  0.62620000  0.10720000  0.83410000  1
  H  H84  1  0.63320000  0.02130000  0.05130000  1
  H  H85  1  0.63320000  0.02130000  0.44870000  1
  H  H86  1  0.65530000  0.88580000  0.54750000  1
  H  H87  1  0.65530000  0.88580000  0.95250000  1
  H  H88  1  0.72520000  0.99900000  0.11750000  1
  H  H89  1  0.72520000  0.99900000  0.38250000  1
  H  H90  1  0.73730000  0.31480000  0.16180000  1
  H  H91  1  0.73730000  0.31480000  0.33820000  1
  H  H92  1  0.76270000  0.81480000  0.66180000  1
  H  H93  1  0.76270000  0.81480000  0.83820000  1
  H  H94  1  0.77480000  0.49900000  0.61750000  1
  H  H95  1  0.77480000  0.49900000  0.88250000  1
  H  H96  1  0.84470000  0.38580000  0.04750000  1
  H  H97  1  0.84470000  0.38580000  0.45250000  1
  H  H98  1  0.86680000  0.52130000  0.55130000  1
  H  H99  1  0.86680000  0.52130000  0.94870000  1
  H  H100  1  0.87380000  0.60720000  0.16590000  1
  H  H101  1  0.87380000  0.60720000  0.33410000  1
  H  H102  1  0.88650000  0.92180000  0.00680000  1
  H  H103  1  0.88650000  0.92180000  0.49320000  1
  H  H104  1  0.89110000  0.32140000  0.51870000  1
  H  H105  1  0.89110000  0.32140000  0.98130000  1
  H  H106  1  0.89120000  0.65100000  0.08230000  1
  H  H107  1  0.89120000  0.65100000  0.41770000  1
  H  H108  1  0.89790000  0.54700000  0.09170000  1
  H  H109  1  0.89790000  0.54700000  0.40830000  1
  H  H110  1  0.89920000  0.53490000  0.64080000  1
  H  H111  1  0.89920000  0.53490000  0.85920000  1
  H  H112  1  0.90210000  0.81960000  0.02380000  1
  H  H113  1  0.90210000  0.81960000  0.47620000  1
  H  H114  1  0.95650000  0.32750000  0.06290000  1
  H  H115  1  0.95650000  0.32750000  0.43710000  1
  H  H116  1  0.95740000  0.86190000  0.55250000  1
  H  H117  1  0.95740000  0.86190000  0.94750000  1
  H  H118  1  0.98660000  0.94970000  0.14250000  1
  H  H119  1  0.98660000  0.94970000  0.35750000  1
  C  C120  1  0.04870000  0.89100000  0.04700000  1
  C  C121  1  0.04870000  0.89100000  0.45300000  1
  C  C122  1  0.06110000  0.12810000  0.50230000  1
  C  C123  1  0.06110000  0.12810000  0.99770000  1
  C  C124  1  0.07180000  0.61380000  0.75000000  1
  C  C125  1  0.11870000  0.67080000  0.53740000  1
  C  C126  1  0.11870000  0.67080000  0.96260000  1
  C  C127  1  0.13990000  0.39970000  0.61010000  1
  C  C128  1  0.13990000  0.39970000  0.88990000  1
  C  C129  1  0.16270000  0.46160000  0.10240000  1
  C  C130  1  0.16270000  0.46160000  0.39760000  1
  C  C131  1  0.16610000  0.87300000  0.02990000  1
  C  C132  1  0.16610000  0.87300000  0.47010000  1
  C  C133  1  0.19440000  0.74400000  0.56940000  1
  C  C134  1  0.19440000  0.74400000  0.93060000  1
  C  C135  1  0.20750000  0.36830000  0.09870000  1
  C  C136  1  0.20750000  0.36830000  0.40130000  1
  C  C137  1  0.21410000  0.82980000  0.54260000  1
  C  C138  1  0.21410000  0.82980000  0.95740000  1
  C  C139  1  0.23020000  0.90620000  0.09510000  1
  C  C140  1  0.23020000  0.90620000  0.40490000  1
  C  C141  1  0.26980000  0.40620000  0.59510000  1
  C  C142  1  0.26980000  0.40620000  0.90490000  1
  C  C143  1  0.28590000  0.32980000  0.04260000  1
  C  C144  1  0.28590000  0.32980000  0.45740000  1
  C  C145  1  0.29250000  0.86830000  0.59870000  1
  C  C146  1  0.29250000  0.86830000  0.90130000  1
  C  C147  1  0.30560000  0.24400000  0.06940000  1
  C  C148  1  0.30560000  0.24400000  0.43060000  1
  C  C149  1  0.33390000  0.37300000  0.52990000  1
  C  C150  1  0.33390000  0.37300000  0.97010000  1
  C  C151  1  0.33730000  0.96160000  0.60240000  1
  C  C152  1  0.33730000  0.96160000  0.89760000  1
  C  C153  1  0.36010000  0.89970000  0.11010000  1
  C  C154  1  0.36010000  0.89970000  0.38990000  1
  C  C155  1  0.38130000  0.17080000  0.03740000  1
  C  C156  1  0.38130000  0.17080000  0.46260000  1
  C  C157  1  0.42820000  0.11380000  0.25000000  1
  C  C158  1  0.43890000  0.62810000  0.00230000  1
  C  C159  1  0.43890000  0.62810000  0.49770000  1
  C  C160  1  0.45130000  0.39100000  0.54700000  1
  C  C161  1  0.45130000  0.39100000  0.95300000  1
  C  C162  1  0.54870000  0.60900000  0.04700000  1
  C  C163  1  0.54870000  0.60900000  0.45300000  1
  C  C164  1  0.56110000  0.37190000  0.50230000  1
  C  C165  1  0.56110000  0.37190000  0.99770000  1
  C  C166  1  0.57180000  0.88620000  0.75000000  1
  C  C167  1  0.61870000  0.82920000  0.53740000  1
  C  C168  1  0.61870000  0.82920000  0.96260000  1
  C  C169  1  0.63990000  0.10030000  0.61010000  1
  C  C170  1  0.63990000  0.10030000  0.88990000  1
  C  C171  1  0.66270000  0.03840000  0.10240000  1
  C  C172  1  0.66270000  0.03840000  0.39760000  1
  C  C173  1  0.66610000  0.62700000  0.02990000  1
  C  C174  1  0.66610000  0.62700000  0.47010000  1
  C  C175  1  0.69440000  0.75600000  0.56940000  1
  C  C176  1  0.69440000  0.75600000  0.93060000  1
  C  C177  1  0.70750000  0.13170000  0.09870000  1
  C  C178  1  0.70750000  0.13170000  0.40130000  1
  C  C179  1  0.71410000  0.67020000  0.54260000  1
  C  C180  1  0.71410000  0.67020000  0.95740000  1
  C  C181  1  0.73020000  0.59380000  0.09510000  1
  C  C182  1  0.73020000  0.59380000  0.40490000  1
  C  C183  1  0.76980000  0.09380000  0.59510000  1
  C  C184  1  0.76980000  0.09380000  0.90490000  1
  C  C185  1  0.78590000  0.17020000  0.04260000  1
  C  C186  1  0.78590000  0.17020000  0.45740000  1
  C  C187  1  0.79250000  0.63170000  0.59870000  1
  C  C188  1  0.79250000  0.63170000  0.90130000  1
  C  C189  1  0.80560000  0.25600000  0.06940000  1
  C  C190  1  0.80560000  0.25600000  0.43060000  1
  C  C191  1  0.83390000  0.12700000  0.52990000  1
  C  C192  1  0.83390000  0.12700000  0.97010000  1
  C  C193  1  0.83730000  0.53840000  0.60240000  1
  C  C194  1  0.83730000  0.53840000  0.89760000  1
  C  C195  1  0.86010000  0.60030000  0.11010000  1
  C  C196  1  0.86010000  0.60030000  0.38990000  1
  C  C197  1  0.88130000  0.32920000  0.03740000  1
  C  C198  1  0.88130000  0.32920000  0.46260000  1
  C  C199  1  0.92820000  0.38620000  0.25000000  1
  C  C200  1  0.93890000  0.87190000  0.00230000  1
  C  C201  1  0.93890000  0.87190000  0.49770000  1
  C  C202  1  0.95130000  0.10900000  0.54700000  1
  C  C203  1  0.95130000  0.10900000  0.95300000  1
  I  I204  1  0.00293000  0.87500000  0.75000000  1
  I  I205  1  0.49707000  0.37500000  0.25000000  1
  I  I206  1  0.50293000  0.62500000  0.75000000  1
  I  I207  1  0.99707000  0.12500000  0.25000000  1
  N  N208  1  0.04920000  0.93230000  0.11869000  1
  N  N209  1  0.04920000  0.93230000  0.38131000  1
  N  N210  1  0.15900000  0.57880000  0.75000000  1
  N  N211  1  0.15970000  0.94320000  0.14912000  1
  N  N212  1  0.15970000  0.94320000  0.35088000  1
  N  N213  1  0.17920000  0.30830000  0.15412000  1
  N  N214  1  0.17920000  0.30830000  0.34588000  1
  N  N215  1  0.24020000  0.23390000  0.13485000  1
  N  N216  1  0.24020000  0.23390000  0.36515000  1
  N  N217  1  0.25980000  0.73390000  0.63485000  1
  N  N218  1  0.25980000  0.73390000  0.86515000  1
  N  N219  1  0.32080000  0.80830000  0.65412000  1
  N  N220  1  0.32080000  0.80830000  0.84588000  1
  N  N221  1  0.34030000  0.44320000  0.64912000  1
  N  N222  1  0.34030000  0.44320000  0.85088000  1
  N  N223  1  0.34100000  0.07880000  0.25000000  1
  N  N224  1  0.45080000  0.43230000  0.61869000  1
  N  N225  1  0.45080000  0.43230000  0.88131000  1
  N  N226  1  0.54920000  0.56770000  0.11869000  1
  N  N227  1  0.54920000  0.56770000  0.38131000  1
  N  N228  1  0.65900000  0.92120000  0.75000000  1
  N  N229  1  0.65970000  0.55680000  0.14912000  1
  N  N230  1  0.65970000  0.55680000  0.35088000  1
  N  N231  1  0.67920000  0.19170000  0.15412000  1
  N  N232  1  0.67920000  0.19170000  0.34588000  1
  N  N233  1  0.74020000  0.26610000  0.13485000  1
  N  N234  1  0.74020000  0.26610000  0.36515000  1
  N  N235  1  0.75980000  0.76610000  0.63485000  1
  N  N236  1  0.75980000  0.76610000  0.86515000  1
  N  N237  1  0.82080000  0.69170000  0.65412000  1
  N  N238  1  0.82080000  0.69170000  0.84588000  1
  N  N239  1  0.84030000  0.05680000  0.64912000  1
  N  N240  1  0.84030000  0.05680000  0.85088000  1
  N  N241  1  0.84100000  0.42120000  0.25000000  1
  N  N242  1  0.95080000  0.06770000  0.61869000  1
  N  N243  1  0.95080000  0.06770000  0.88131000  1
