# generated using pymatgen
data_NiH10(C2O)6
_symmetry_space_group_name_H-M   'P 1'
_cell_length_a   16.71900000
_cell_length_b   16.71900000
_cell_length_c   24.59800000
_cell_angle_alpha   90.00000000
_cell_angle_beta   90.00000000
_cell_angle_gamma   120.00000000
_symmetry_Int_Tables_number   1
_chemical_formula_structural   NiH10(C2O)6
_chemical_formula_sum   'Ni12 H120 C144 O72'
_cell_volume   5954.57849212
_cell_formula_units_Z   12
loop_
 _symmetry_equiv_pos_site_id
 _symmetry_equiv_pos_as_xyz
  1  'x, y, z'
loop_
 _atom_site_type_symbol
 _atom_site_label
 _atom_site_symmetry_multiplicity
 _atom_site_fract_x
 _atom_site_fract_y
 _atom_site_fract_z
 _atom_site_occupancy
  Ni  Ni0  1  0.76173000  0.50541000  0.80210000  1
  Ni  Ni1  1  0.74368000  0.23827000  0.46877000  1
  Ni  Ni2  1  0.72252000  0.31442000  0.58283000  1
  Ni  Ni3  1  0.68558000  0.40810000  0.91617000  1
  Ni  Ni4  1  0.59190000  0.27748000  0.24950000  1
  Ni  Ni5  1  0.50541000  0.76173000  0.53123000  1
  Ni  Ni6  1  0.49459000  0.25632000  0.13544000  1
  Ni  Ni7  1  0.40810000  0.68558000  0.41717000  1
  Ni  Ni8  1  0.31442000  0.72252000  0.75050000  1
  Ni  Ni9  1  0.27748000  0.59190000  0.08383000  1
  Ni  Ni10  1  0.25632000  0.49459000  0.19790000  1
  Ni  Ni11  1  0.23827000  0.74368000  0.86456000  1
  H  H12  1  0.99070000  0.43890000  0.97853000  1
  H  H13  1  0.98640000  0.09930000  0.63533000  1
  H  H14  1  0.97780000  0.86130000  0.97807000  1
  H  H15  1  0.97230000  0.61110000  0.61380000  1
  H  H16  1  0.97060000  0.68840000  0.22647000  1
  H  H17  1  0.96110000  0.84020000  0.45350000  1
  H  H18  1  0.95790000  0.04210000  0.68943000  1
  H  H19  1  0.95790000  0.91580000  0.02277000  1
  H  H20  1  0.95080000  0.50190000  0.54740000  1
  H  H21  1  0.94830000  0.78140000  0.40120000  1
  H  H22  1  0.94110000  0.41950000  0.73763000  1
  H  H23  1  0.92850000  0.08100000  0.93553000  1
  H  H24  1  0.91900000  0.84750000  0.26887000  1
  H  H25  1  0.91850000  0.34860000  0.90693000  1
  H  H26  1  0.91580000  0.95790000  0.31057000  1
  H  H27  1  0.90200000  0.16790000  0.65813000  1
  H  H28  1  0.90070000  0.88710000  0.96867000  1
  H  H29  1  0.89990000  0.11770000  0.79673000  1
  H  H30  1  0.89930000  0.73240000  0.45550000  1
  H  H31  1  0.89830000  0.55260000  0.97517000  1
  H  H32  1  0.88710000  0.90070000  0.36467000  1
  H  H33  1  0.88350000  0.02220000  0.64473000  1
  H  H34  1  0.88230000  0.78220000  0.13007000  1
  H  H35  1  0.87910000  0.03890000  0.12017000  1
  H  H36  1  0.86620000  0.30400000  0.81533000  1
  H  H37  1  0.86550000  0.51470000  0.55860000  1
  H  H38  1  0.86130000  0.97780000  0.35527000  1
  H  H39  1  0.84750000  0.91900000  0.06447000  1
  H  H40  1  0.84020000  0.96110000  0.87983000  1
  H  H41  1  0.83310000  0.05170000  0.06787000  1
  H  H42  1  0.83310000  0.10070000  0.12217000  1
  H  H43  1  0.83210000  0.73410000  0.99147000  1
  H  H44  1  0.82440000  0.58370000  0.98207000  1
  H  H45  1  0.78220000  0.88230000  0.20327000  1
  H  H46  1  0.78140000  0.94830000  0.93213000  1
  H  H47  1  0.77180000  0.23700000  0.78713000  1
  H  H48  1  0.76300000  0.53480000  0.12047000  1
  H  H49  1  0.75930000  0.17560000  0.64873000  1
  H  H50  1  0.73410000  0.83210000  0.34187000  1
  H  H51  1  0.73240000  0.89930000  0.87783000  1
  H  H52  1  0.71780000  0.02940000  0.89313000  1
  H  H53  1  0.69600000  0.56220000  0.14867000  1
  H  H54  1  0.68840000  0.97060000  0.10687000  1
  H  H55  1  0.65430000  0.10170000  0.64183000  1
  H  H56  1  0.65140000  0.56990000  0.24027000  1
  H  H57  1  0.64920000  0.13450000  0.22527000  1
  H  H58  1  0.63880000  0.02770000  0.28047000  1
  H  H59  1  0.61110000  0.97230000  0.71953000  1
  H  H60  1  0.58370000  0.82440000  0.35127000  1
  H  H61  1  0.58050000  0.52160000  0.07097000  1
  H  H62  1  0.56990000  0.65140000  0.09307000  1
  H  H63  1  0.56220000  0.69600000  0.18467000  1
  H  H64  1  0.56110000  0.55180000  0.31187000  1
  H  H65  1  0.55260000  0.89830000  0.35817000  1
  H  H66  1  0.55180000  0.56110000  0.02147000  1
  H  H67  1  0.55110000  0.04920000  0.21407000  1
  H  H68  1  0.53480000  0.76300000  0.21287000  1
  H  H69  1  0.52160000  0.58050000  0.26237000  1
  H  H70  1  0.51470000  0.86550000  0.77473000  1
  H  H71  1  0.50190000  0.95080000  0.78593000  1
  H  H72  1  0.49810000  0.44890000  0.88073000  1
  H  H73  1  0.48530000  0.35080000  0.89193000  1
  H  H74  1  0.47840000  0.05890000  0.40430000  1
  H  H75  1  0.46520000  0.22820000  0.45380000  1
  H  H76  1  0.44890000  0.49810000  0.45260000  1
  H  H77  1  0.44820000  0.00930000  0.64520000  1
  H  H78  1  0.44740000  0.34570000  0.30850000  1
  H  H79  1  0.43890000  0.99070000  0.35480000  1
  H  H80  1  0.43780000  0.13380000  0.48200000  1
  H  H81  1  0.43010000  0.08150000  0.57360000  1
  H  H82  1  0.41950000  0.94110000  0.59570000  1
  H  H83  1  0.41630000  0.24070000  0.31540000  1
  H  H84  1  0.38890000  0.36120000  0.94713000  1
  H  H85  1  0.36120000  0.38890000  0.38620000  1
  H  H86  1  0.35080000  0.48530000  0.44140000  1
  H  H87  1  0.34860000  0.91850000  0.42640000  1
  H  H88  1  0.34570000  0.44740000  0.02483000  1
  H  H89  1  0.31160000  0.28220000  0.55980000  1
  H  H90  1  0.30400000  0.86620000  0.51800000  1
  H  H91  1  0.28220000  0.31160000  0.77353000  1
  H  H92  1  0.26760000  0.16690000  0.78883000  1
  H  H93  1  0.26590000  0.09800000  0.32480000  1
  H  H94  1  0.24070000  0.41630000  0.01793000  1
  H  H95  1  0.23700000  0.77180000  0.54620000  1
  H  H96  1  0.22820000  0.46520000  0.87953000  1
  H  H97  1  0.21860000  0.16690000  0.73453000  1
  H  H98  1  0.21780000  0.10010000  0.46340000  1
  H  H99  1  0.17560000  0.75930000  0.68460000  1
  H  H100  1  0.16790000  0.90200000  0.67520000  1
  H  H101  1  0.16690000  0.21860000  0.59880000  1
  H  H102  1  0.16690000  0.26760000  0.54450000  1
  H  H103  1  0.15980000  0.12090000  0.78683000  1
  H  H104  1  0.15250000  0.07150000  0.60220000  1
  H  H105  1  0.13870000  0.11650000  0.31140000  1
  H  H106  1  0.13450000  0.64920000  0.10807000  1
  H  H107  1  0.13380000  0.43780000  0.85133000  1
  H  H108  1  0.12090000  0.15980000  0.54650000  1
  H  H109  1  0.11770000  0.89990000  0.53660000  1
  H  H110  1  0.11650000  0.13870000  0.02193000  1
  H  H111  1  0.11290000  0.01360000  0.30200000  1
  H  H112  1  0.10170000  0.65430000  0.69150000  1
  H  H113  1  0.10070000  0.83310000  0.21117000  1
  H  H114  1  0.10010000  0.21780000  0.86993000  1
  H  H115  1  0.09930000  0.98640000  0.69800000  1
  H  H116  1  0.09800000  0.26590000  0.00853000  1
  H  H117  1  0.08420000  0.04210000  0.35610000  1
  H  H118  1  0.08150000  0.43010000  0.75973000  1
  H  H119  1  0.08100000  0.92850000  0.39780000  1
  H  H120  1  0.07150000  0.15250000  0.73113000  1
  H  H121  1  0.05890000  0.47840000  0.92903000  1
  H  H122  1  0.05170000  0.83310000  0.26547000  1
  H  H123  1  0.04920000  0.55110000  0.11927000  1
  H  H124  1  0.04210000  0.08420000  0.97723000  1
  H  H125  1  0.04210000  0.95790000  0.64390000  1
  H  H126  1  0.03890000  0.87910000  0.21317000  1
  H  H127  1  0.02940000  0.71780000  0.44020000  1
  H  H128  1  0.02770000  0.63880000  0.05287000  1
  H  H129  1  0.02220000  0.88350000  0.68860000  1
  H  H130  1  0.01360000  0.11290000  0.03133000  1
  H  H131  1  0.00930000  0.44820000  0.68813000  1
  C  C132  1  0.99850000  0.21680000  0.95023000  1
  C  C133  1  0.99830000  0.66740000  0.06897000  1
  C  C134  1  0.99760000  0.67700000  0.54190000  1
  C  C135  1  0.99300000  0.29690000  0.94283000  1
  C  C136  1  0.96210000  0.73740000  0.21067000  1
  C  C137  1  0.95690000  0.72400000  0.14877000  1
  C  C138  1  0.95380000  0.78300000  0.44010000  1
  C  C139  1  0.95030000  0.69810000  0.03697000  1
  C  C140  1  0.94790000  0.40340000  0.70073000  1
  C  C141  1  0.93840000  0.06940000  0.66193000  1
  C  C142  1  0.93060000  0.86900000  0.99527000  1
  C  C143  1  0.92660000  0.13490000  0.92933000  1
  C  C144  1  0.92090000  0.29480000  0.91263000  1
  C  C145  1  0.91850000  0.13980000  0.68783000  1
  C  C146  1  0.91180000  0.75300000  0.11477000  1
  C  C147  1  0.90740000  0.74160000  0.05837000  1
  C  C148  1  0.90660000  0.51560000  0.53040000  1
  C  C149  1  0.88200000  0.59840000  0.96437000  1
  C  C150  1  0.87600000  0.40730000  0.66443000  1
  C  C151  1  0.87260000  0.72590000  0.23377000  1
  C  C152  1  0.87010000  0.59650000  0.90227000  1
  C  C153  1  0.86900000  0.93060000  0.33807000  1
  C  C154  1  0.86510000  0.79170000  0.26267000  1
  C  C155  1  0.86020000  0.77870000  0.02117000  1
  C  C156  1  0.85390000  0.21230000  0.89163000  1
  C  C157  1  0.85330000  0.12740000  0.90043000  1
  C  C158  1  0.85170000  0.44300000  0.48900000  1
  C  C159  1  0.84120000  0.08820000  0.78143000  1
  C  C160  1  0.83420000  0.09260000  0.72503000  1
  C  C161  1  0.82920000  0.04620000  0.10677000  1
  C  C162  1  0.79980000  0.26940000  0.82073000  1
  C  C163  1  0.79170000  0.86510000  0.07067000  1
  C  C164  1  0.78770000  0.64160000  0.22497000  1
  C  C165  1  0.78320000  0.78170000  0.28357000  1
  C  C166  1  0.78300000  0.95380000  0.89323000  1
  C  C167  1  0.78170000  0.78320000  0.04977000  1
  C  C168  1  0.77870000  0.86020000  0.31217000  1
  C  C169  1  0.77530000  0.03790000  0.87733000  1
  C  C170  1  0.76710000  0.04310000  0.81543000  1
  C  C171  1  0.76590000  0.33600000  0.83303000  1
  C  C172  1  0.75300000  0.91180000  0.21857000  1
  C  C173  1  0.74780000  0.04970000  0.70363000  1
  C  C174  1  0.74160000  0.90740000  0.27497000  1
  C  C175  1  0.73740000  0.96210000  0.12267000  1
  C  C176  1  0.73060000  0.53040000  0.15407000  1
  C  C177  1  0.72640000  0.12990000  0.56893000  1
  C  C178  1  0.72590000  0.87260000  0.09957000  1
  C  C179  1  0.72400000  0.95690000  0.18457000  1
  C  C180  1  0.71640000  0.11800000  0.63103000  1
  C  C181  1  0.70520000  0.62610000  0.24597000  1
  C  C182  1  0.70310000  0.69610000  0.27617000  1
  C  C183  1  0.69810000  0.95030000  0.29637000  1
  C  C184  1  0.69610000  0.70310000  0.05717000  1
  C  C185  1  0.67940000  0.00240000  0.20857000  1
  C  C186  1  0.67700000  0.99760000  0.79143000  1
  C  C187  1  0.66910000  0.00170000  0.73563000  1
  C  C188  1  0.66740000  0.99830000  0.26437000  1
  C  C189  1  0.66400000  0.42990000  0.16637000  1
  C  C190  1  0.64160000  0.78770000  0.10837000  1
  C  C191  1  0.62610000  0.70520000  0.08737000  1
  C  C192  1  0.60900000  0.09340000  0.19707000  1
  C  C193  1  0.59840000  0.88200000  0.36897000  1
  C  C194  1  0.59660000  0.54450000  0.03407000  1
  C  C195  1  0.59650000  0.87010000  0.43107000  1
  C  C196  1  0.59270000  0.46870000  0.99777000  1
  C  C197  1  0.59130000  0.14830000  0.15567000  1
  C  C198  1  0.57010000  0.23410000  0.49970000  1
  C  C199  1  0.55700000  0.40870000  0.82233000  1
  C  C200  1  0.54450000  0.59660000  0.29927000  1
  C  C201  1  0.53130000  0.12400000  0.33110000  1
  C  C202  1  0.53040000  0.73060000  0.17927000  1
  C  C203  1  0.51560000  0.90660000  0.80293000  1
  C  C204  1  0.48440000  0.39100000  0.86373000  1
  C  C205  1  0.46960000  0.20020000  0.48740000  1
  C  C206  1  0.46870000  0.59270000  0.33557000  1
  C  C207  1  0.45550000  0.05210000  0.36740000  1
  C  C208  1  0.44300000  0.85170000  0.84433000  1
  C  C209  1  0.42990000  0.66400000  0.16697000  1
  C  C210  1  0.40870000  0.55700000  0.51100000  1
  C  C211  1  0.40730000  0.87600000  0.66890000  1
  C  C212  1  0.40350000  0.27360000  0.23560000  1
  C  C213  1  0.40340000  0.94790000  0.63260000  1
  C  C214  1  0.40160000  0.28360000  0.29770000  1
  C  C215  1  0.39100000  0.48440000  0.46960000  1
  C  C216  1  0.37390000  0.07910000  0.57930000  1
  C  C217  1  0.35840000  0.14610000  0.55830000  1
  C  C218  1  0.33600000  0.76590000  0.50030000  1
  C  C219  1  0.33260000  0.33090000  0.40230000  1
  C  C220  1  0.33090000  0.33260000  0.93103000  1
  C  C221  1  0.32300000  0.32060000  0.87523000  1
  C  C222  1  0.32060000  0.32300000  0.45810000  1
  C  C223  1  0.30390000  0.00700000  0.60950000  1
  C  C224  1  0.30190000  0.25220000  0.37030000  1
  C  C225  1  0.29690000  0.99300000  0.39050000  1
  C  C226  1  0.29480000  0.92090000  0.42070000  1
  C  C227  1  0.28360000  0.40160000  0.03563000  1
  C  C228  1  0.27600000  0.23290000  0.48210000  1
  C  C229  1  0.27410000  0.14670000  0.56710000  1
  C  C230  1  0.27360000  0.40350000  0.09773000  1
  C  C231  1  0.26940000  0.79980000  0.51260000  1
  C  C232  1  0.26260000  0.22470000  0.54400000  1
  C  C233  1  0.25840000  0.16580000  0.39170000  1
  C  C234  1  0.25220000  0.30190000  0.96303000  1
  C  C235  1  0.24700000  0.15880000  0.44810000  1
  C  C236  1  0.23410000  0.57010000  0.83363000  1
  C  C237  1  0.23290000  0.27600000  0.85123000  1
  C  C238  1  0.22470000  0.26260000  0.78933000  1
  C  C239  1  0.22130000  0.08150000  0.35450000  1
  C  C240  1  0.21830000  0.00150000  0.61690000  1
  C  C241  1  0.21700000  0.17080000  0.77343000  1
  C  C242  1  0.21680000  0.99850000  0.38310000  1
  C  C243  1  0.21230000  0.85390000  0.44170000  1
  C  C244  1  0.20830000  0.07340000  0.59600000  1
  C  C245  1  0.20020000  0.46960000  0.84593000  1
  C  C246  1  0.17080000  0.21700000  0.55990000  1
  C  C247  1  0.16580000  0.25840000  0.94163000  1
  C  C248  1  0.15880000  0.24700000  0.88523000  1
  C  C249  1  0.14830000  0.59130000  0.17767000  1
  C  C250  1  0.14670000  0.27410000  0.76623000  1
  C  C251  1  0.14610000  0.35840000  0.77503000  1
  C  C252  1  0.13980000  0.91850000  0.64550000  1
  C  C253  1  0.13490000  0.92660000  0.40400000  1
  C  C254  1  0.13100000  0.06160000  0.32860000  1
  C  C255  1  0.12990000  0.72640000  0.76440000  1
  C  C256  1  0.12740000  0.85330000  0.43290000  1
  C  C257  1  0.12400000  0.53130000  0.00223000  1
  C  C258  1  0.11800000  0.71640000  0.70230000  1
  C  C259  1  0.09340000  0.60900000  0.13627000  1
  C  C260  1  0.09260000  0.83420000  0.60830000  1
  C  C261  1  0.08820000  0.84120000  0.55190000  1
  C  C262  1  0.08150000  0.22130000  0.97883000  1
  C  C263  1  0.07910000  0.37390000  0.75403000  1
  C  C264  1  0.07340000  0.20830000  0.73733000  1
  C  C265  1  0.06940000  0.93840000  0.67140000  1
  C  C266  1  0.06160000  0.13100000  0.00473000  1
  C  C267  1  0.05210000  0.45550000  0.96593000  1
  C  C268  1  0.04970000  0.74780000  0.62970000  1
  C  C269  1  0.04620000  0.82920000  0.22657000  1
  C  C270  1  0.04310000  0.76710000  0.51790000  1
  C  C271  1  0.03790000  0.77530000  0.45600000  1
  C  C272  1  0.00700000  0.30390000  0.72383000  1
  C  C273  1  0.00240000  0.67940000  0.12477000  1
  C  C274  1  0.00170000  0.66910000  0.59770000  1
  C  C275  1  0.00150000  0.21830000  0.71643000  1
  O  O276  1  0.95420000  0.60460000  0.50690000  1
  O  O277  1  0.95130000  0.68600000  0.98021000  1
  O  O278  1  0.93800000  0.31360000  0.70033000  1
  O  O279  1  0.92860000  0.65620000  0.87477000  1
  O  O280  1  0.86460000  0.46050000  0.44030000  1
  O  O281  1  0.86350000  0.47410000  0.67123000  1
  O  O282  1  0.83630000  0.34560000  0.62823000  1
  O  O283  1  0.80070000  0.52430000  0.88275000  1
  O  O284  1  0.79600000  0.57500000  0.19607000  1
  O  O285  1  0.79540000  0.36520000  0.50804000  1
  O  O286  1  0.78300000  0.39590000  0.79633000  1
  O  O287  1  0.77900000  0.20400000  0.86273000  1
  O  O288  1  0.73470000  0.04870000  0.64687000  1
  O  O289  1  0.72760000  0.07140000  0.54143000  1
  O  O290  1  0.72570000  0.32610000  0.87743000  1
  O  O291  1  0.72360000  0.19930000  0.54941000  1
  O  O292  1  0.68640000  0.62440000  0.03367000  1
  O  O293  1  0.68600000  0.95130000  0.35313000  1
  O  O294  1  0.67390000  0.39960000  0.21077000  1
  O  O295  1  0.65620000  0.92860000  0.45857000  1
  O  O296  1  0.65440000  0.49070000  0.96157000  1
  O  O297  1  0.65040000  0.04580000  0.17357000  1
  O  O298  1  0.63480000  0.43020000  0.84137000  1
  O  O299  1  0.62440000  0.68640000  0.29967000  1
  O  O300  1  0.61290000  0.21700000  0.46300000  1
  O  O301  1  0.61060000  0.13650000  0.33790000  1
  O  O302  1  0.60460000  0.95420000  0.82643000  1
  O  O303  1  0.60410000  0.38710000  0.12967000  1
  O  O304  1  0.60040000  0.27430000  0.54410000  1
  O  O305  1  0.59590000  0.13540000  0.10697000  1
  O  O306  1  0.57500000  0.79600000  0.13727000  1
  O  O307  1  0.56980000  0.20460000  0.17471000  1
  O  O308  1  0.53950000  0.40410000  0.77363000  1
  O  O309  1  0.52590000  0.38940000  0.00457000  1
  O  O310  1  0.52430000  0.80070000  0.45059000  1
  O  O311  1  0.50930000  0.16370000  0.29490000  1
  O  O312  1  0.49070000  0.65440000  0.37177000  1
  O  O313  1  0.47570000  0.27640000  0.21608000  1
  O  O314  1  0.47410000  0.86350000  0.66210000  1
  O  O315  1  0.46050000  0.86460000  0.89303000  1
  O  O316  1  0.43020000  0.63480000  0.49196000  1
  O  O317  1  0.42500000  0.22100000  0.52940000  1
  O  O318  1  0.40410000  0.53950000  0.55970000  1
  O  O319  1  0.39960000  0.67390000  0.12257000  1
  O  O320  1  0.39590000  0.78300000  0.53700000  1
  O  O321  1  0.39540000  0.34960000  0.84023000  1
  O  O322  1  0.38940000  0.52590000  0.32877000  1
  O  O323  1  0.38710000  0.60410000  0.20367000  1
  O  O324  1  0.37560000  0.06200000  0.36700000  1
  O  O325  1  0.36520000  0.79540000  0.82529000  1
  O  O326  1  0.34960000  0.39540000  0.49310000  1
  O  O327  1  0.34560000  0.83630000  0.70510000  1
  O  O328  1  0.34380000  0.27240000  0.20810000  1
  O  O329  1  0.32610000  0.72570000  0.45590000  1
  O  O330  1  0.31400000  0.26530000  0.31354000  1
  O  O331  1  0.31360000  0.93800000  0.63300000  1
  O  O332  1  0.27640000  0.47570000  0.11725000  1
  O  O333  1  0.27430000  0.60040000  0.78923000  1
  O  O334  1  0.27240000  0.34380000  0.12523000  1
  O  O335  1  0.26530000  0.31400000  0.01979000  1
  O  O336  1  0.22100000  0.42500000  0.80393000  1
  O  O337  1  0.21700000  0.61290000  0.87033000  1
  O  O338  1  0.20460000  0.56980000  0.15863000  1
  O  O339  1  0.20400000  0.77900000  0.47060000  1
  O  O340  1  0.19930000  0.72360000  0.78392000  1
  O  O341  1  0.16370000  0.50930000  0.03843000  1
  O  O342  1  0.13650000  0.61060000  0.99543000  1
  O  O343  1  0.13540000  0.59590000  0.22637000  1
  O  O344  1  0.07140000  0.72760000  0.79190000  1
  O  O345  1  0.06200000  0.37560000  0.96633000  1
  O  O346  1  0.04870000  0.73470000  0.68646000  1
  O  O347  1  0.04580000  0.65040000  0.15977000  1
