# generated using pymatgen
data_K4Na2Co11P4H30W36C28(N21O55)2
_symmetry_space_group_name_H-M   'P 1'
_cell_length_a   19.14400000
_cell_length_b   22.86000000
_cell_length_c   23.38800000
_cell_angle_alpha   90.00000000
_cell_angle_beta   90.00000000
_cell_angle_gamma   102.83800000
_symmetry_Int_Tables_number   1
_chemical_formula_structural   K4Na2Co11P4H30W36C28(N21O55)2
_chemical_formula_sum   'K8 Na4 Co22 P8 H60 W72 C56 N84 O220'
_cell_volume   9979.47268879
_cell_formula_units_Z   2
loop_
 _symmetry_equiv_pos_site_id
 _symmetry_equiv_pos_as_xyz
  1  'x, y, z'
loop_
 _atom_site_type_symbol
 _atom_site_label
 _atom_site_symmetry_multiplicity
 _atom_site_fract_x
 _atom_site_fract_y
 _atom_site_fract_z
 _atom_site_occupancy
  K  K0  1  0.99780000  0.83630000  0.08310000  1
  K  K1  1  0.91930000  0.18670000  0.92140000  1
  K  K2  1  0.58070000  0.31330000  0.42140000  1
  K  K3  1  0.50220000  0.66370000  0.58310000  1
  K  K4  1  0.49780000  0.33630000  0.41690000  1
  K  K5  1  0.41930000  0.68670000  0.57860000  1
  K  K6  1  0.08070000  0.81330000  0.07860000  1
  K  K7  1  0.00220000  0.16370000  0.91690000  1
  Na  Na8  1  0.95660000  0.67550000  0.13140000  1
  Na  Na9  1  0.54340000  0.82450000  0.63140000  1
  Na  Na10  1  0.45660000  0.17550000  0.36860000  1
  Na  Na11  1  0.04340000  0.32450000  0.86860000  1
  Co  Co12  1  1.00000000  1.00000000  0.50000000  1
  Co  Co13  1  0.94821000  0.93237000  0.64315000  1
  Co  Co14  1  0.91575000  0.19153000  0.65762000  1
  Co  Co15  1  0.91222000  0.33169000  0.57825000  1
  Co  Co16  1  0.80350000  0.73800000  0.47570000  1
  Co  Co17  1  0.76290000  0.12080000  0.42490000  1
  Co  Co18  1  0.73710000  0.37920000  0.92490000  1
  Co  Co19  1  0.69650000  0.76200000  0.97570000  1
  Co  Co20  1  0.58778000  0.16831000  0.07825000  1
  Co  Co21  1  0.58425000  0.30847000  0.15762000  1
  Co  Co22  1  0.55179000  0.56763000  0.14315000  1
  Co  Co23  1  0.50000000  0.50000000  0.00000000  1
  Co  Co24  1  0.44821000  0.43237000  0.85685000  1
  Co  Co25  1  0.41575000  0.69153000  0.84238000  1
  Co  Co26  1  0.41222000  0.83169000  0.92175000  1
  Co  Co27  1  0.30350000  0.23800000  0.02430000  1
  Co  Co28  1  0.26290000  0.62080000  0.07510000  1
  Co  Co29  1  0.23710000  0.87920000  0.57510000  1
  Co  Co30  1  0.19650000  0.26200000  0.52430000  1
  Co  Co31  1  0.08778000  0.66831000  0.42175000  1
  Co  Co32  1  0.08425000  0.80847000  0.34238000  1
  Co  Co33  1  0.05179000  0.06763000  0.35685000  1
  P  P34  1  0.92560000  0.39500000  0.27880000  1
  P  P35  1  0.88330000  0.63720000  0.75480000  1
  P  P36  1  0.61670000  0.86280000  0.25480000  1
  P  P37  1  0.57440000  0.10500000  0.77880000  1
  P  P38  1  0.42560000  0.89500000  0.22120000  1
  P  P39  1  0.38330000  0.13720000  0.74520000  1
  P  P40  1  0.11670000  0.36280000  0.24520000  1
  P  P41  1  0.07440000  0.60500000  0.72120000  1
  H  H42  1  0.97730000  0.02260000  0.28390000  1
  H  H43  1  0.96960000  0.12840000  0.54310000  1
  H  H44  1  0.95690000  0.72780000  0.26770000  1
  H  H45  1  0.92470000  0.11910000  0.78240000  1
  H  H46  1  0.92410000  0.06070000  0.69160000  1
  H  H47  1  0.92220000  0.65350000  0.45780000  1
  H  H48  1  0.91390000  0.79470000  0.37270000  1
  H  H49  1  0.88790000  0.09260000  0.33860000  1
  H  H50  1  0.88230000  0.88660000  0.43750000  1
  H  H51  1  0.85260000  0.24670000  0.77440000  1
  H  H52  1  0.84740000  0.39290000  0.68930000  1
  H  H53  1  0.84730000  0.81620000  0.58690000  1
  H  H54  1  0.84470000  0.02470000  0.49220000  1
  H  H55  1  0.80780000  0.25980000  0.48340000  1
  H  H56  1  0.80170000  0.11080000  0.56690000  1
  H  H57  1  0.69830000  0.38920000  0.06690000  1
  H  H58  1  0.69220000  0.24020000  0.98340000  1
  H  H59  1  0.65530000  0.47530000  0.99220000  1
  H  H60  1  0.65270000  0.68380000  0.08690000  1
  H  H61  1  0.65260000  0.10710000  0.18930000  1
  H  H62  1  0.64740000  0.25330000  0.27440000  1
  H  H63  1  0.61770000  0.61340000  0.93750000  1
  H  H64  1  0.61210000  0.40740000  0.83860000  1
  H  H65  1  0.58610000  0.70530000  0.87270000  1
  H  H66  1  0.57780000  0.84650000  0.95780000  1
  H  H67  1  0.57590000  0.43930000  0.19160000  1
  H  H68  1  0.57530000  0.38090000  0.28240000  1
  H  H69  1  0.54310000  0.77220000  0.76770000  1
  H  H70  1  0.53040000  0.37160000  0.04310000  1
  H  H71  1  0.52270000  0.47740000  0.78390000  1
  H  H72  1  0.47730000  0.52260000  0.21610000  1
  H  H73  1  0.46960000  0.62840000  0.95690000  1
  H  H74  1  0.45690000  0.22780000  0.23230000  1
  H  H75  1  0.42470000  0.61910000  0.71760000  1
  H  H76  1  0.42410000  0.56070000  0.80840000  1
  H  H77  1  0.42220000  0.15350000  0.04220000  1
  H  H78  1  0.41390000  0.29470000  0.12730000  1
  H  H79  1  0.38790000  0.59260000  0.16140000  1
  H  H80  1  0.38230000  0.38660000  0.06250000  1
  H  H81  1  0.35260000  0.74670000  0.72560000  1
  H  H82  1  0.34740000  0.89290000  0.81070000  1
  H  H83  1  0.34730000  0.31620000  0.91310000  1
  H  H84  1  0.34470000  0.52470000  0.00780000  1
  H  H85  1  0.30780000  0.75980000  0.01660000  1
  H  H86  1  0.30170000  0.61080000  0.93310000  1
  H  H87  1  0.19830000  0.88920000  0.43310000  1
  H  H88  1  0.19220000  0.74020000  0.51660000  1
  H  H89  1  0.15530000  0.97530000  0.50780000  1
  H  H90  1  0.15270000  0.18380000  0.41310000  1
  H  H91  1  0.15260000  0.60710000  0.31070000  1
  H  H92  1  0.14740000  0.75330000  0.22560000  1
  H  H93  1  0.11770000  0.11340000  0.56250000  1
  H  H94  1  0.11210000  0.90740000  0.66140000  1
  H  H95  1  0.08610000  0.20530000  0.62730000  1
  H  H96  1  0.07780000  0.34650000  0.54220000  1
  H  H97  1  0.07590000  0.93930000  0.30840000  1
  H  H98  1  0.07530000  0.88090000  0.21760000  1
  H  H99  1  0.04310000  0.27220000  0.73230000  1
  H  H100  1  0.03040000  0.87160000  0.45690000  1
  H  H101  1  0.02270000  0.97740000  0.71610000  1
  W  W102  1  0.98727000  0.48844000  0.63139000  1
  W  W103  1  0.98625000  0.53732000  0.21545000  1
  W  W104  1  0.97053000  0.75901000  0.84184000  1
  W  W105  1  0.96023000  0.37358000  0.42355000  1
  W  W106  1  0.94764000  0.78018000  0.70251000  1
  W  W107  1  0.91234000  0.60803000  0.89944000  1
  W  W108  1  0.90738000  0.42142000  0.13183000  1
  W  W109  1  0.87083000  0.24848000  0.33144000  1
  W  W110  1  0.85919000  0.65792000  0.60741000  1
  W  W111  1  0.84894000  0.27007000  0.19138000  1
  W  W112  1  0.83207000  0.49314000  0.81466000  1
  W  W113  1  0.83030000  0.50553000  0.31376000  1
  W  W114  1  0.80712000  0.52047000  0.66221000  1
  W  W115  1  0.80270000  0.92264000  0.27018000  1
  W  W116  1  0.77682000  0.69263000  0.85534000  1
  W  W117  1  0.77543000  0.36685000  0.37134000  1
  W  W118  1  0.75247000  0.71601000  0.71332000  1
  W  W119  1  0.75216000  0.38767000  0.23007000  1
  W  W120  1  0.74784000  0.11233000  0.73007000  1
  W  W121  1  0.74753000  0.78399000  0.21332000  1
  W  W122  1  0.72457000  0.13315000  0.87134000  1
  W  W123  1  0.72318000  0.80737000  0.35534000  1
  W  W124  1  0.69730000  0.57736000  0.77018000  1
  W  W125  1  0.69288000  0.97953000  0.16221000  1
  W  W126  1  0.66970000  0.99447000  0.81376000  1
  W  W127  1  0.66793000  0.00686000  0.31466000  1
  W  W128  1  0.65106000  0.22993000  0.69138000  1
  W  W129  1  0.64081000  0.84208000  0.10741000  1
  W  W130  1  0.62917000  0.25152000  0.83144000  1
  W  W131  1  0.59262000  0.07858000  0.63183000  1
  W  W132  1  0.58766000  0.89197000  0.39944000  1
  W  W133  1  0.55236000  0.71982000  0.20251000  1
  W  W134  1  0.53977000  0.12642000  0.92355000  1
  W  W135  1  0.52947000  0.74099000  0.34184000  1
  W  W136  1  0.51375000  0.96268000  0.71545000  1
  W  W137  1  0.51273000  0.01156000  0.13139000  1
  W  W138  1  0.48727000  0.98844000  0.86861000  1
  W  W139  1  0.48625000  0.03732000  0.28455000  1
  W  W140  1  0.47053000  0.25901000  0.65816000  1
  W  W141  1  0.46023000  0.87358000  0.07645000  1
  W  W142  1  0.44764000  0.28018000  0.79749000  1
  W  W143  1  0.41234000  0.10803000  0.60056000  1
  W  W144  1  0.40738000  0.92142000  0.36817000  1
  W  W145  1  0.37083000  0.74848000  0.16856000  1
  W  W146  1  0.35919000  0.15792000  0.89259000  1
  W  W147  1  0.34894000  0.77007000  0.30862000  1
  W  W148  1  0.33207000  0.99314000  0.68534000  1
  W  W149  1  0.33030000  0.00553000  0.18624000  1
  W  W150  1  0.30712000  0.02047000  0.83779000  1
  W  W151  1  0.30270000  0.42264000  0.22982000  1
  W  W152  1  0.27682000  0.19263000  0.64466000  1
  W  W153  1  0.27543000  0.86685000  0.12866000  1
  W  W154  1  0.25247000  0.21601000  0.78668000  1
  W  W155  1  0.25216000  0.88767000  0.26993000  1
  W  W156  1  0.24784000  0.61233000  0.76993000  1
  W  W157  1  0.24753000  0.28399000  0.28668000  1
  W  W158  1  0.22457000  0.63315000  0.62866000  1
  W  W159  1  0.22318000  0.30737000  0.14466000  1
  W  W160  1  0.19730000  0.07736000  0.72982000  1
  W  W161  1  0.19288000  0.47953000  0.33779000  1
  W  W162  1  0.16970000  0.49447000  0.68624000  1
  W  W163  1  0.16793000  0.50686000  0.18534000  1
  W  W164  1  0.15106000  0.72993000  0.80862000  1
  W  W165  1  0.14081000  0.34208000  0.39259000  1
  W  W166  1  0.12917000  0.75152000  0.66856000  1
  W  W167  1  0.09262000  0.57858000  0.86817000  1
  W  W168  1  0.08766000  0.39197000  0.10056000  1
  W  W169  1  0.05236000  0.21982000  0.29749000  1
  W  W170  1  0.03977000  0.62642000  0.57645000  1
  W  W171  1  0.02947000  0.24099000  0.15816000  1
  W  W172  1  0.01375000  0.46268000  0.78455000  1
  W  W173  1  0.01273000  0.51156000  0.36861000  1
  C  C174  1  0.98400000  0.75600000  0.24400000  1
  C  C175  1  0.96100000  0.10020000  0.57240000  1
  C  C176  1  0.95300000  0.15800000  0.78300000  1
  C  C177  1  0.93660000  0.06410000  0.65310000  1
  C  C178  1  0.93510000  0.68790000  0.43560000  1
  C  C179  1  0.93080000  0.76420000  0.39050000  1
  C  C180  1  0.89210000  0.07610000  0.37450000  1
  C  C181  1  0.88360000  0.88170000  0.47690000  1
  C  C182  1  0.86900000  0.03900000  0.45890000  1
  C  C183  1  0.86380000  0.84300000  0.55740000  1
  C  C184  1  0.85580000  0.27460000  0.74500000  1
  C  C185  1  0.85230000  0.35450000  0.69860000  1
  C  C186  1  0.81800000  0.23240000  0.50970000  1
  C  C187  1  0.81310000  0.15070000  0.55520000  1
  C  C188  1  0.68690000  0.34930000  0.05520000  1
  C  C189  1  0.68200000  0.26760000  0.00970000  1
  C  C190  1  0.64770000  0.14550000  0.19860000  1
  C  C191  1  0.64420000  0.22540000  0.24500000  1
  C  C192  1  0.63620000  0.65700000  0.05740000  1
  C  C193  1  0.63100000  0.46100000  0.95890000  1
  C  C194  1  0.61640000  0.61830000  0.97690000  1
  C  C195  1  0.60790000  0.42390000  0.87450000  1
  C  C196  1  0.56920000  0.73580000  0.89050000  1
  C  C197  1  0.56490000  0.81210000  0.93560000  1
  C  C198  1  0.56340000  0.43590000  0.15310000  1
  C  C199  1  0.54700000  0.34200000  0.28300000  1
  C  C200  1  0.53900000  0.39980000  0.07240000  1
  C  C201  1  0.51600000  0.74400000  0.74400000  1
  C  C202  1  0.48400000  0.25600000  0.25600000  1
  C  C203  1  0.46100000  0.60020000  0.92760000  1
  C  C204  1  0.45300000  0.65800000  0.71700000  1
  C  C205  1  0.43660000  0.56410000  0.84690000  1
  C  C206  1  0.43510000  0.18790000  0.06440000  1
  C  C207  1  0.43080000  0.26420000  0.10950000  1
  C  C208  1  0.39210000  0.57610000  0.12550000  1
  C  C209  1  0.38360000  0.38170000  0.02310000  1
  C  C210  1  0.36900000  0.53900000  0.04110000  1
  C  C211  1  0.36380000  0.34300000  0.94260000  1
  C  C212  1  0.35580000  0.77460000  0.75500000  1
  C  C213  1  0.35230000  0.85450000  0.80140000  1
  C  C214  1  0.31800000  0.73240000  0.99030000  1
  C  C215  1  0.31310000  0.65070000  0.94480000  1
  C  C216  1  0.18690000  0.84930000  0.44480000  1
  C  C217  1  0.18200000  0.76760000  0.49030000  1
  C  C218  1  0.14770000  0.64550000  0.30140000  1
  C  C219  1  0.14420000  0.72540000  0.25500000  1
  C  C220  1  0.13620000  0.15700000  0.44260000  1
  C  C221  1  0.13100000  0.96100000  0.54110000  1
  C  C222  1  0.11640000  0.11830000  0.52310000  1
  C  C223  1  0.10790000  0.92390000  0.62550000  1
  C  C224  1  0.06920000  0.23580000  0.60950000  1
  C  C225  1  0.06490000  0.31210000  0.56440000  1
  C  C226  1  0.06340000  0.93590000  0.34690000  1
  C  C227  1  0.04700000  0.84200000  0.21700000  1
  C  C228  1  0.03900000  0.89980000  0.42760000  1
  C  C229  1  0.01600000  0.24400000  0.75600000  1
  N  N230  1  0.99620000  0.75190000  0.37980000  1
  N  N231  1  0.99560000  0.70020000  0.40810000  1
  N  N232  1  0.98400000  0.19110000  0.83480000  1
  N  N233  1  0.98200000  0.75060000  0.18280000  1
  N  N234  1  0.97100000  0.19150000  0.73650000  1
  N  N235  1  0.96430000  0.04510000  0.56720000  1
  N  N236  1  0.94930000  0.02100000  0.62080000  1
  N  N237  1  0.94920000  0.05630000  0.39190000  1
  N  N238  1  0.94410000  0.11080000  0.62350000  1
  N  N239  1  0.93370000  0.03370000  0.44630000  1
  N  N240  1  0.91970000  0.92360000  0.51350000  1
  N  N241  1  0.90510000  0.89780000  0.56580000  1
  N  N242  1  0.89280000  0.72580000  0.43090000  1
  N  N243  1  0.88050000  0.26780000  0.69450000  1
  N  N244  1  0.87800000  0.31750000  0.66250000  1
  N  N245  1  0.85500000  0.24670000  0.55400000  1
  N  N246  1  0.84980000  0.19700000  0.58540000  1
  N  N247  1  0.84940000  0.83140000  0.50510000  1
  N  N248  1  0.84130000  0.06920000  0.41540000  1
  N  N249  1  0.83500000  0.32780000  0.74970000  1
  N  N250  1  0.79560000  0.17170000  0.50510000  1
  N  N251  1  0.70440000  0.32830000  0.00510000  1
  N  N252  1  0.66500000  0.17220000  0.24970000  1
  N  N253  1  0.65870000  0.43080000  0.91540000  1
  N  N254  1  0.65060000  0.66860000  0.00510000  1
  N  N255  1  0.65020000  0.30300000  0.08540000  1
  N  N256  1  0.64500000  0.25330000  0.05400000  1
  N  N257  1  0.62200000  0.18250000  0.16250000  1
  N  N258  1  0.61950000  0.23220000  0.19450000  1
  N  N259  1  0.60720000  0.77420000  0.93090000  1
  N  N260  1  0.59490000  0.60220000  0.06580000  1
  N  N261  1  0.58030000  0.57640000  0.01350000  1
  N  N262  1  0.56630000  0.46630000  0.94630000  1
  N  N263  1  0.55590000  0.38920000  0.12350000  1
  N  N264  1  0.55080000  0.44370000  0.89190000  1
  N  N265  1  0.55070000  0.47900000  0.12080000  1
  N  N266  1  0.53570000  0.45490000  0.06720000  1
  N  N267  1  0.52900000  0.30850000  0.23650000  1
  N  N268  1  0.51800000  0.74940000  0.68280000  1
  N  N269  1  0.51600000  0.30890000  0.33480000  1
  N  N270  1  0.50440000  0.79980000  0.90810000  1
  N  N271  1  0.50380000  0.74810000  0.87980000  1
  N  N272  1  0.49620000  0.25190000  0.12020000  1
  N  N273  1  0.49560000  0.20020000  0.09190000  1
  N  N274  1  0.48400000  0.69110000  0.66520000  1
  N  N275  1  0.48200000  0.25060000  0.31720000  1
  N  N276  1  0.47100000  0.69150000  0.76350000  1
  N  N277  1  0.46430000  0.54510000  0.93280000  1
  N  N278  1  0.44930000  0.52100000  0.87920000  1
  N  N279  1  0.44920000  0.55630000  0.10810000  1
  N  N280  1  0.44410000  0.61080000  0.87650000  1
  N  N281  1  0.43370000  0.53370000  0.05370000  1
  N  N282  1  0.41970000  0.42360000  0.98650000  1
  N  N283  1  0.40510000  0.39780000  0.93420000  1
  N  N284  1  0.39280000  0.22580000  0.06910000  1
  N  N285  1  0.38050000  0.76780000  0.80550000  1
  N  N286  1  0.37800000  0.81750000  0.83750000  1
  N  N287  1  0.35500000  0.74670000  0.94600000  1
  N  N288  1  0.34980000  0.69700000  0.91460000  1
  N  N289  1  0.34940000  0.33140000  0.99490000  1
  N  N290  1  0.34130000  0.56920000  0.08460000  1
  N  N291  1  0.33500000  0.82780000  0.75030000  1
  N  N292  1  0.29560000  0.67170000  0.99490000  1
  N  N293  1  0.20440000  0.82830000  0.49490000  1
  N  N294  1  0.16500000  0.67220000  0.25030000  1
  N  N295  1  0.15870000  0.93080000  0.58460000  1
  N  N296  1  0.15060000  0.16860000  0.49490000  1
  N  N297  1  0.15020000  0.80300000  0.41460000  1
  N  N298  1  0.14500000  0.75330000  0.44600000  1
  N  N299  1  0.12200000  0.68250000  0.33750000  1
  N  N300  1  0.11950000  0.73220000  0.30550000  1
  N  N301  1  0.10720000  0.27420000  0.56910000  1
  N  N302  1  0.09490000  0.10220000  0.43420000  1
  N  N303  1  0.08030000  0.07640000  0.48650000  1
  N  N304  1  0.06630000  0.96630000  0.55370000  1
  N  N305  1  0.05590000  0.88920000  0.37650000  1
  N  N306  1  0.05080000  0.94370000  0.60810000  1
  N  N307  1  0.05070000  0.97900000  0.37920000  1
  N  N308  1  0.03570000  0.95490000  0.43280000  1
  N  N309  1  0.02900000  0.80850000  0.26350000  1
  N  N310  1  0.01800000  0.24940000  0.81720000  1
  N  N311  1  0.01600000  0.80890000  0.16520000  1
  N  N312  1  0.00440000  0.29980000  0.59190000  1
  N  N313  1  0.00380000  0.24810000  0.62020000  1
  O  O314  1  0.99970000  0.58090000  0.88710000  1
  O  O315  1  0.99910000  0.61250000  0.20120000  1
  O  O316  1  0.98710000  0.45880000  0.43190000  1
  O  O317  1  0.98680000  0.87090000  0.09380000  1
  O  O318  1  0.98250000  0.95230000  0.71590000  1
  O  O319  1  0.97900000  0.46510000  0.70930000  1
  O  O320  1  0.97270000  0.41450000  0.33070000  1
  O  O321  1  0.96670000  0.81100000  0.77640000  1
  O  O322  1  0.96520000  0.42000000  0.59730000  1
  O  O323  1  0.96440000  0.68630000  0.87930000  1
  O  O324  1  0.95460000  0.22540000  0.30760000  1
  O  O325  1  0.95440000  0.84680000  0.66760000  1
  O  O326  1  0.95440000  0.43120000  0.22670000  1
  O  O327  1  0.94810000  0.35280000  0.49340000  1
  O  O328  1  0.94470000  0.63060000  0.58470000  1
  O  O329  1  0.93770000  0.69650000  0.75830000  1
  O  O330  1  0.93630000  0.50600000  0.14690000  1
  O  O331  1  0.93370000  0.24300000  0.18060000  1
  O  O332  1  0.92910000  0.29970000  0.38530000  1
  O  O333  1  0.92730000  0.47580000  0.81120000  1
  O  O334  1  0.92340000  0.72460000  0.64120000  1
  O  O335  1  0.91560000  0.32770000  0.26740000  1
  O  O336  1  0.90930000  0.51150000  0.36090000  1
  O  O337  1  0.89760000  0.50700000  0.63410000  1
  O  O338  1  0.89670000  0.59350000  0.79970000  1
  O  O339  1  0.89220000  0.53040000  0.25170000  1
  O  O340  1  0.88710000  0.33830000  0.14650000  1
  O  O341  1  0.87750000  0.61130000  0.69390000  1
  O  O342  1  0.86790000  0.74570000  0.84750000  1
  O  O343  1  0.86280000  0.38240000  0.41100000  1
  O  O344  1  0.85690000  0.52950000  0.88680000  1
  O  O345  1  0.85030000  0.40890000  0.29360000  1
  O  O346  1  0.84860000  0.76670000  0.71720000  1
  O  O347  1  0.84040000  0.68760000  0.54250000  1
  O  O348  1  0.83220000  0.18680000  0.37350000  1
  O  O349  1  0.82930000  0.48920000  0.73480000  1
  O  O350  1  0.82790000  0.22310000  0.26040000  1
  O  O351  1  0.82730000  0.12590000  0.69630000  1
  O  O352  1  0.82480000  0.63780000  0.89020000  1
  O  O353  1  0.82080000  0.85520000  0.22650000  1
  O  O354  1  0.81900000  0.42230000  0.17450000  1
  O  O355  1  0.80750000  0.57740000  0.60110000  1
  O  O356  1  0.80610000  0.65110000  0.77000000  1
  O  O357  1  0.80230000  0.87400000  0.33700000  1
  O  O358  1  0.79970000  0.29370000  0.34820000  1
  O  O359  1  0.78880000  0.15810000  0.92230000  1
  O  O360  1  0.78520000  0.67980000  0.65060000  1
  O  O361  1  0.78380000  0.14110000  0.80420000  1
  O  O362  1  0.78040000  0.31610000  0.21700000  1
  O  O363  1  0.77640000  0.44970000  0.37040000  1
  O  O364  1  0.76700000  0.95130000  0.20240000  1
  O  O365  1  0.75860000  0.77780000  0.41210000  1
  O  O366  1  0.75810000  0.76450000  0.29360000  1
  O  O367  1  0.75760000  0.46870000  0.26010000  1
  O  O368  1  0.75200000  0.53070000  0.81090000  1
  O  O369  1  0.74800000  0.96930000  0.31090000  1
  O  O370  1  0.74240000  0.03130000  0.76010000  1
  O  O371  1  0.74190000  0.73550000  0.79360000  1
  O  O372  1  0.74140000  0.72220000  0.91210000  1
  O  O373  1  0.73300000  0.54870000  0.70240000  1
  O  O374  1  0.72360000  0.05030000  0.87040000  1
  O  O375  1  0.71960000  0.18390000  0.71700000  1
  O  O376  1  0.71620000  0.35890000  0.30420000  1
  O  O377  1  0.71480000  0.82020000  0.15060000  1
  O  O378  1  0.71120000  0.34190000  0.42230000  1
  O  O379  1  0.70030000  0.20630000  0.84820000  1
  O  O380  1  0.69770000  0.62600000  0.83700000  1
  O  O381  1  0.69390000  0.84890000  0.27000000  1
  O  O382  1  0.69250000  0.92260000  0.10110000  1
  O  O383  1  0.68100000  0.07770000  0.67450000  1
  O  O384  1  0.67920000  0.64480000  0.72650000  1
  O  O385  1  0.67520000  0.86220000  0.39020000  1
  O  O386  1  0.67270000  0.37410000  0.19630000  1
  O  O387  1  0.67210000  0.27690000  0.76040000  1
  O  O388  1  0.67070000  0.01080000  0.23480000  1
  O  O389  1  0.66780000  0.31320000  0.87350000  1
  O  O390  1  0.65960000  0.81240000  0.04250000  1
  O  O391  1  0.65140000  0.73330000  0.21720000  1
  O  O392  1  0.64970000  0.09110000  0.79360000  1
  O  O393  1  0.64310000  0.97050000  0.38680000  1
  O  O394  1  0.63720000  0.11760000  0.91100000  1
  O  O395  1  0.63210000  0.75430000  0.34750000  1
  O  O396  1  0.62250000  0.88870000  0.19390000  1
  O  O397  1  0.61290000  0.16170000  0.64650000  1
  O  O398  1  0.60780000  0.96960000  0.75170000  1
  O  O399  1  0.60330000  0.90650000  0.29970000  1
  O  O400  1  0.60240000  0.99300000  0.13410000  1
  O  O401  1  0.59070000  0.98850000  0.86090000  1
  O  O402  1  0.58440000  0.17230000  0.76740000  1
  O  O403  1  0.57660000  0.77540000  0.14120000  1
  O  O404  1  0.57270000  0.02420000  0.31120000  1
  O  O405  1  0.57090000  0.20030000  0.88530000  1
  O  O406  1  0.56630000  0.25700000  0.68060000  1
  O  O407  1  0.56370000  0.99400000  0.64690000  1
  O  O408  1  0.56230000  0.80350000  0.25830000  1
  O  O409  1  0.55530000  0.86940000  0.08470000  1
  O  O410  1  0.55190000  0.14720000  0.99340000  1
  O  O411  1  0.54560000  0.06880000  0.72670000  1
  O  O412  1  0.54560000  0.65320000  0.16760000  1
  O  O413  1  0.54540000  0.27460000  0.80760000  1
  O  O414  1  0.53560000  0.81370000  0.37930000  1
  O  O415  1  0.53480000  0.08000000  0.09730000  1
  O  O416  1  0.53330000  0.68900000  0.27640000  1
  O  O417  1  0.52730000  0.08550000  0.83070000  1
  O  O418  1  0.52100000  0.03490000  0.20930000  1
  O  O419  1  0.51750000  0.54770000  0.21590000  1
  O  O420  1  0.51320000  0.62910000  0.59380000  1
  O  O421  1  0.51290000  0.04120000  0.93190000  1
  O  O422  1  0.50090000  0.88750000  0.70120000  1
  O  O423  1  0.50030000  0.91910000  0.38710000  1
  O  O424  1  0.49970000  0.08090000  0.61290000  1
  O  O425  1  0.49910000  0.11250000  0.29880000  1
  O  O426  1  0.48710000  0.95880000  0.06810000  1
  O  O427  1  0.48680000  0.37090000  0.40620000  1
  O  O428  1  0.48250000  0.45230000  0.78410000  1
  O  O429  1  0.47900000  0.96510000  0.79070000  1
  O  O430  1  0.47270000  0.91450000  0.16930000  1
  O  O431  1  0.46670000  0.31100000  0.72360000  1
  O  O432  1  0.46520000  0.92000000  0.90270000  1
  O  O433  1  0.46440000  0.18630000  0.62070000  1
  O  O434  1  0.45460000  0.72540000  0.19240000  1
  O  O435  1  0.45440000  0.34680000  0.83240000  1
  O  O436  1  0.45440000  0.93120000  0.27330000  1
  O  O437  1  0.44810000  0.85280000  0.00660000  1
  O  O438  1  0.44470000  0.13060000  0.91530000  1
  O  O439  1  0.43770000  0.19650000  0.74170000  1
  O  O440  1  0.43630000  0.00600000  0.35310000  1
  O  O441  1  0.43370000  0.74300000  0.31940000  1
  O  O442  1  0.42910000  0.79970000  0.11470000  1
  O  O443  1  0.42730000  0.97580000  0.68880000  1
  O  O444  1  0.42340000  0.22460000  0.85880000  1
  O  O445  1  0.41560000  0.82770000  0.23260000  1
  O  O446  1  0.40930000  0.01150000  0.13910000  1
  O  O447  1  0.39760000  0.00700000  0.86590000  1
  O  O448  1  0.39670000  0.09350000  0.70030000  1
  O  O449  1  0.39220000  0.03040000  0.24830000  1
  O  O450  1  0.38710000  0.83830000  0.35350000  1
  O  O451  1  0.37750000  0.11130000  0.80610000  1
  O  O452  1  0.36790000  0.24570000  0.65250000  1
  O  O453  1  0.36280000  0.88240000  0.08900000  1
  O  O454  1  0.35690000  0.02950000  0.61320000  1
  O  O455  1  0.35030000  0.90890000  0.20640000  1
  O  O456  1  0.34860000  0.26670000  0.78280000  1
  O  O457  1  0.34040000  0.18760000  0.95750000  1
  O  O458  1  0.33220000  0.68680000  0.12650000  1
  O  O459  1  0.32930000  0.98920000  0.76520000  1
  O  O460  1  0.32790000  0.72310000  0.23960000  1
  O  O461  1  0.32730000  0.62590000  0.80370000  1
  O  O462  1  0.32480000  0.13780000  0.60980000  1
  O  O463  1  0.32080000  0.35520000  0.27350000  1
  O  O464  1  0.31900000  0.92230000  0.32550000  1
  O  O465  1  0.30750000  0.07740000  0.89890000  1
  O  O466  1  0.30610000  0.15110000  0.73000000  1
  O  O467  1  0.30230000  0.37400000  0.16300000  1
  O  O468  1  0.29970000  0.79370000  0.15180000  1
  O  O469  1  0.28880000  0.65810000  0.57770000  1
  O  O470  1  0.28520000  0.17980000  0.84940000  1
  O  O471  1  0.28380000  0.64110000  0.69580000  1
  O  O472  1  0.28040000  0.81610000  0.28300000  1
  O  O473  1  0.27640000  0.94970000  0.12960000  1
  O  O474  1  0.26700000  0.45130000  0.29760000  1
  O  O475  1  0.25860000  0.27780000  0.08790000  1
  O  O476  1  0.25810000  0.26450000  0.20640000  1
  O  O477  1  0.25760000  0.96870000  0.23990000  1
  O  O478  1  0.25200000  0.03070000  0.68910000  1
  O  O479  1  0.24800000  0.46930000  0.18910000  1
  O  O480  1  0.24240000  0.53130000  0.73990000  1
  O  O481  1  0.24190000  0.23550000  0.70640000  1
  O  O482  1  0.24140000  0.22220000  0.58790000  1
  O  O483  1  0.23300000  0.04870000  0.79760000  1
  O  O484  1  0.22360000  0.55030000  0.62960000  1
  O  O485  1  0.21960000  0.68390000  0.78300000  1
  O  O486  1  0.21620000  0.85890000  0.19580000  1
  O  O487  1  0.21480000  0.32020000  0.34940000  1
  O  O488  1  0.21120000  0.84190000  0.07770000  1
  O  O489  1  0.20030000  0.70630000  0.65180000  1
  O  O490  1  0.19770000  0.12600000  0.66300000  1
  O  O491  1  0.19390000  0.34890000  0.23000000  1
  O  O492  1  0.19250000  0.42260000  0.39890000  1
  O  O493  1  0.18100000  0.57770000  0.82550000  1
  O  O494  1  0.17920000  0.14480000  0.77350000  1
  O  O495  1  0.17520000  0.36220000  0.10980000  1
  O  O496  1  0.17270000  0.87410000  0.30370000  1
  O  O497  1  0.17210000  0.77690000  0.73960000  1
  O  O498  1  0.17070000  0.51080000  0.26520000  1
  O  O499  1  0.16780000  0.81320000  0.62650000  1
  O  O500  1  0.15960000  0.31240000  0.45750000  1
  O  O501  1  0.15140000  0.23330000  0.28280000  1
  O  O502  1  0.14970000  0.59110000  0.70640000  1
  O  O503  1  0.14310000  0.47050000  0.11320000  1
  O  O504  1  0.13720000  0.61760000  0.58900000  1
  O  O505  1  0.13210000  0.25430000  0.15250000  1
  O  O506  1  0.12250000  0.38870000  0.30610000  1
  O  O507  1  0.11290000  0.66170000  0.85350000  1
  O  O508  1  0.10780000  0.46960000  0.74830000  1
  O  O509  1  0.10330000  0.40650000  0.20030000  1
  O  O510  1  0.10240000  0.49300000  0.36590000  1
  O  O511  1  0.09070000  0.48850000  0.63910000  1
  O  O512  1  0.08440000  0.67230000  0.73260000  1
  O  O513  1  0.07660000  0.27540000  0.35880000  1
  O  O514  1  0.07270000  0.52420000  0.18880000  1
  O  O515  1  0.07090000  0.70030000  0.61470000  1
  O  O516  1  0.06630000  0.75700000  0.81940000  1
  O  O517  1  0.06370000  0.49400000  0.85310000  1
  O  O518  1  0.06230000  0.30350000  0.24170000  1
  O  O519  1  0.05530000  0.36940000  0.41530000  1
  O  O520  1  0.05190000  0.64720000  0.50660000  1
  O  O521  1  0.04560000  0.56880000  0.77330000  1
  O  O522  1  0.04560000  0.15320000  0.33240000  1
  O  O523  1  0.04540000  0.77460000  0.69240000  1
  O  O524  1  0.03560000  0.31370000  0.12070000  1
  O  O525  1  0.03480000  0.58000000  0.40270000  1
  O  O526  1  0.03330000  0.18900000  0.22360000  1
  O  O527  1  0.02730000  0.58550000  0.66930000  1
  O  O528  1  0.02100000  0.53490000  0.29070000  1
  O  O529  1  0.01750000  0.04770000  0.28410000  1
  O  O530  1  0.01320000  0.12910000  0.90620000  1
  O  O531  1  0.01290000  0.54120000  0.56810000  1
  O  O532  1  0.00090000  0.38750000  0.79880000  1
  O  O533  1  0.00030000  0.41910000  0.11290000  1
