# generated using pymatgen
data_CuH8C14N2O5
_symmetry_space_group_name_H-M   'P 1'
_cell_length_a   8.40500000
_cell_length_b   10.29300000
_cell_length_c   17.67850000
_cell_angle_alpha   90.00000000
_cell_angle_beta   102.81300000
_cell_angle_gamma   90.00000000
_symmetry_Int_Tables_number   1
_chemical_formula_structural   CuH8C14N2O5
_chemical_formula_sum   'Cu4 H32 C56 N8 O20'
_cell_volume   1491.33030047
_cell_formula_units_Z   4
loop_
 _symmetry_equiv_pos_site_id
 _symmetry_equiv_pos_as_xyz
  1  'x, y, z'
loop_
 _atom_site_type_symbol
 _atom_site_label
 _atom_site_symmetry_multiplicity
 _atom_site_fract_x
 _atom_site_fract_y
 _atom_site_fract_z
 _atom_site_occupancy
  Cu  Cu0  1  0.17366000  0.94245000  0.56802000  1
  Cu  Cu1  1  0.32634000  0.44245000  0.93198000  1
  Cu  Cu2  1  0.67366000  0.55755000  0.06802000  1
  Cu  Cu3  1  0.82634000  0.05755000  0.43198000  1
  H  H4  1  0.03630000  0.22770000  0.66920000  1
  H  H5  1  0.06390000  0.60890000  0.84130000  1
  H  H6  1  0.06870000  0.72760000  0.09170000  1
  H  H7  1  0.10770000  0.22840000  0.13690000  1
  H  H8  1  0.14000000  0.16290000  0.90540000  1
  H  H9  1  0.14380000  0.41050000  0.48450000  1
  H  H10  1  0.18670000  0.05000000  0.80000000  1
  H  H11  1  0.23530000  0.56450000  0.06450000  1
  H  H12  1  0.26470000  0.06450000  0.43550000  1
  H  H13  1  0.31330000  0.55000000  0.70000000  1
  H  H14  1  0.35620000  0.91050000  0.01550000  1
  H  H15  1  0.36000000  0.66290000  0.59460000  1
  H  H16  1  0.39230000  0.72840000  0.36310000  1
  H  H17  1  0.43130000  0.22760000  0.40830000  1
  H  H18  1  0.43610000  0.10890000  0.65870000  1
  H  H19  1  0.46370000  0.72770000  0.83080000  1
  H  H20  1  0.53630000  0.27230000  0.16920000  1
  H  H21  1  0.56390000  0.89110000  0.34130000  1
  H  H22  1  0.56870000  0.77240000  0.59170000  1
  H  H23  1  0.60770000  0.27160000  0.63690000  1
  H  H24  1  0.64000000  0.33710000  0.40540000  1
  H  H25  1  0.64380000  0.08950000  0.98450000  1
  H  H26  1  0.68670000  0.45000000  0.30000000  1
  H  H27  1  0.73530000  0.93550000  0.56450000  1
  H  H28  1  0.76470000  0.43550000  0.93550000  1
  H  H29  1  0.81330000  0.95000000  0.20000000  1
  H  H30  1  0.85620000  0.58950000  0.51550000  1
  H  H31  1  0.86000000  0.83710000  0.09460000  1
  H  H32  1  0.89230000  0.77160000  0.86310000  1
  H  H33  1  0.93130000  0.27240000  0.90830000  1
  H  H34  1  0.93610000  0.39110000  0.15870000  1
  H  H35  1  0.96370000  0.77230000  0.33080000  1
  C  C36  1  0.01452000  0.79310000  0.48352000  1
  C  C37  1  0.03684000  0.23100000  0.01974000  1
  C  C38  1  0.03822000  0.26870000  0.09532000  1
  C  C39  1  0.06476000  0.63340000  0.89206000  1
  C  C40  1  0.06635000  0.70510000  0.04055000  1
  C  C41  1  0.07716000  0.30510000  0.56946000  1
  C  C42  1  0.08788000  0.29520000  0.64908000  1
  C  C43  1  0.14053000  0.11520000  0.00903000  1
  C  C44  1  0.15318000  0.40500000  0.53778000  1
  C  C45  1  0.16620000  0.60730000  0.02380000  1
  C  C46  1  0.17708000  0.38800000  0.69788000  1
  C  C47  1  0.19462000  0.37920000  0.78422000  1
  C  C48  1  0.24416000  0.49710000  0.58786000  1
  C  C49  1  0.24590000  0.98810000  0.83300000  1
  C  C50  1  0.25410000  0.48810000  0.66700000  1
  C  C51  1  0.25584000  0.99710000  0.91214000  1
  C  C52  1  0.30538000  0.87920000  0.71578000  1
  C  C53  1  0.32292000  0.88800000  0.80212000  1
  C  C54  1  0.33380000  0.10730000  0.47620000  1
  C  C55  1  0.34682000  0.90500000  0.96222000  1
  C  C56  1  0.35947000  0.61520000  0.49097000  1
  C  C57  1  0.41212000  0.79520000  0.85092000  1
  C  C58  1  0.42284000  0.80510000  0.93054000  1
  C  C59  1  0.43365000  0.20510000  0.45945000  1
  C  C60  1  0.43524000  0.13340000  0.60794000  1
  C  C61  1  0.46178000  0.76870000  0.40468000  1
  C  C62  1  0.46316000  0.73100000  0.48026000  1
  C  C63  1  0.48548000  0.29310000  0.01648000  1
  C  C64  1  0.51452000  0.70690000  0.98352000  1
  C  C65  1  0.53684000  0.26900000  0.51974000  1
  C  C66  1  0.53822000  0.23130000  0.59532000  1
  C  C67  1  0.56476000  0.86660000  0.39206000  1
  C  C68  1  0.56635000  0.79490000  0.54055000  1
  C  C69  1  0.57716000  0.19490000  0.06946000  1
  C  C70  1  0.58788000  0.20480000  0.14908000  1
  C  C71  1  0.64053000  0.38480000  0.50903000  1
  C  C72  1  0.65318000  0.09500000  0.03778000  1
  C  C73  1  0.66620000  0.89270000  0.52380000  1
  C  C74  1  0.67708000  0.11200000  0.19788000  1
  C  C75  1  0.69462000  0.12080000  0.28422000  1
  C  C76  1  0.74416000  0.00290000  0.08786000  1
  C  C77  1  0.74590000  0.51190000  0.33300000  1
  C  C78  1  0.75410000  0.01190000  0.16700000  1
  C  C79  1  0.75584000  0.50290000  0.41214000  1
  C  C80  1  0.80538000  0.62080000  0.21578000  1
  C  C81  1  0.82292000  0.61200000  0.30212000  1
  C  C82  1  0.83380000  0.39270000  0.97620000  1
  C  C83  1  0.84682000  0.59500000  0.46222000  1
  C  C84  1  0.85947000  0.88480000  0.99097000  1
  C  C85  1  0.91212000  0.70480000  0.35092000  1
  C  C86  1  0.92284000  0.69490000  0.43054000  1
  C  C87  1  0.93365000  0.29490000  0.95945000  1
  C  C88  1  0.93524000  0.36660000  0.10794000  1
  C  C89  1  0.96178000  0.73130000  0.90468000  1
  C  C90  1  0.96316000  0.76900000  0.98026000  1
  C  C91  1  0.98548000  0.20690000  0.51648000  1
  N  N92  1  0.16638000  0.57220000  0.95068000  1
  N  N93  1  0.17308000  0.10160000  0.93818000  1
  N  N94  1  0.32692000  0.60160000  0.56182000  1
  N  N95  1  0.33362000  0.07220000  0.54932000  1
  N  N96  1  0.66638000  0.92780000  0.45068000  1
  N  N97  1  0.67308000  0.39840000  0.43818000  1
  N  N98  1  0.82692000  0.89840000  0.06182000  1
  N  N99  1  0.83362000  0.42780000  0.04932000  1
  O  O100  1  0.02905000  0.78470000  0.55615000  1
  O  O101  1  0.08022000  0.89080000  0.45822000  1
  O  O102  1  0.11932000  0.29740000  0.81292000  1
  O  O103  1  0.18766000  0.04090000  0.06326000  1
  O  O104  1  0.20715000  0.96250000  0.67625000  1
  O  O105  1  0.29285000  0.46250000  0.82375000  1
  O  O106  1  0.31234000  0.54090000  0.43674000  1
  O  O107  1  0.38068000  0.79740000  0.68708000  1
  O  O108  1  0.41978000  0.39080000  0.04178000  1
  O  O109  1  0.47095000  0.28470000  0.94385000  1
  O  O110  1  0.52905000  0.71530000  0.05615000  1
  O  O111  1  0.58022000  0.60920000  0.95822000  1
  O  O112  1  0.61932000  0.20260000  0.31292000  1
  O  O113  1  0.68766000  0.45910000  0.56326000  1
  O  O114  1  0.70715000  0.53750000  0.17625000  1
  O  O115  1  0.79285000  0.03750000  0.32375000  1
  O  O116  1  0.81234000  0.95910000  0.93674000  1
  O  O117  1  0.88068000  0.70260000  0.18708000  1
  O  O118  1  0.91978000  0.10920000  0.54178000  1
  O  O119  1  0.97095000  0.21530000  0.44385000  1
