# generated using pymatgen
data_Ni15P4H96W30C34(N9O52)2
_symmetry_space_group_name_H-M   'P 1'
_cell_length_a   19.94105693
_cell_length_b   19.94105693
_cell_length_c   27.74701886
_cell_angle_alpha   110.62802586
_cell_angle_beta   110.38757314
_cell_angle_gamma   91.43563638
_symmetry_Int_Tables_number   1
_chemical_formula_structural   Ni15P4H96W30C34(N9O52)2
_chemical_formula_sum   'Ni30 P8 H192 W60 C68 N36 O208'
_cell_volume   9540.91373803
_cell_formula_units_Z   2
loop_
 _symmetry_equiv_pos_site_id
 _symmetry_equiv_pos_as_xyz
  1  'x, y, z'
loop_
 _atom_site_type_symbol
 _atom_site_label
 _atom_site_symmetry_multiplicity
 _atom_site_fract_x
 _atom_site_fract_y
 _atom_site_fract_z
 _atom_site_occupancy
  C  C0  1  0.40110000  0.17810000  0.77900000  1
  C  C1  1  0.60090000  0.87790000  0.27900000  1
  C  C2  1  0.45740000  0.17540000  0.73200000  1
  C  C3  1  0.55660000  0.77460000  0.23200000  1
  C  C4  1  0.24490000  0.53990000  0.33300000  1
  C  C5  1  0.79310000  0.58810000  0.83300000  1
  C  C6  1  0.10460000  0.59710000  0.53490000  1
  C  C7  1  0.93780000  0.93030000  0.03490000  1
  C  C8  1  0.15200000  0.58070000  0.50110000  1
  C  C9  1  0.92040000  0.84910000  0.00110000  1
  C  C10  1  0.25170000  0.35610000  0.18320000  1
  C  C11  1  0.82710000  0.43150000  0.68320000  1
  C  C12  1  0.35330000  0.97560000  0.79150000  1
  C  C13  1  0.81590000  0.93820000  0.29150000  1
  C  C14  1  0.20320000  0.54280000  0.50900000  1
  C  C15  1  0.96620000  0.80580000  0.00900000  1
  C  C16  1  0.32710000  0.90210000  0.77160000  1
  C  C17  1  0.86950000  0.94450000  0.27160000  1
  C  C18  1  0.23950000  0.33830000  0.44340000  1
  C  C19  1  0.40350000  0.44660000  0.38770000  1
  C  C20  1  0.94110000  0.48420000  0.88770000  1
  C  C21  1  0.10510000  0.70390000  0.94340000  1
  C  C22  1  0.40850000  0.48780000  0.44930000  1
  C  C23  1  0.96150000  0.54080000  0.94930000  1
  C  C24  1  0.45970000  0.45410000  0.37360000  1
  C  C25  1  0.91950000  0.41390000  0.87360000  1
  C  C26  1  0.26880000  0.30580000  0.47900000  1
  C  C27  1  0.17320000  0.71020000  0.97900000  1
  C  C28  1  0.46390000  0.01080000  0.99890000  1
  C  C29  1  0.98810000  0.03500000  0.49890000  1
  C  C30  1  0.65140000  0.67240000  0.49000000  1
  C  C31  1  0.81760000  0.33860000  0.99000000  1
  C  C32  1  0.44990000  0.03060000  0.05130000  1
  C  C33  1  0.02070000  0.10140000  0.55130000  1
  C  C34  1  0.55010000  0.96940000  0.94870000  1
  C  C35  1  0.97930000  0.89860000  0.44870000  1
  C  C36  1  0.34860000  0.32760000  0.51000000  1
  C  C37  1  0.18240000  0.66140000  0.01000000  1
  C  C38  1  0.53610000  0.98920000  0.00110000  1
  C  C39  1  0.01190000  0.96500000  0.50110000  1
  C  C40  1  0.73120000  0.69420000  0.52100000  1
  C  C41  1  0.82680000  0.28980000  0.02100000  1
  C  C42  1  0.54030000  0.54590000  0.62640000  1
  C  C43  1  0.08050000  0.58610000  0.12640000  1
  C  C44  1  0.59150000  0.51220000  0.55070000  1
  C  C45  1  0.03850000  0.45920000  0.05070000  1
  C  C46  1  0.59650000  0.55340000  0.61230000  1
  C  C47  1  0.76050000  0.66170000  0.55660000  1
  C  C48  1  0.89490000  0.29610000  0.05660000  1
  C  C49  1  0.05890000  0.51580000  0.11230000  1
  C  C50  1  0.67290000  0.09790000  0.22840000  1
  C  C51  1  0.13050000  0.05550000  0.72840000  1
  C  C52  1  0.79680000  0.45720000  0.49100000  1
  C  C53  1  0.03380000  0.19420000  0.99100000  1
  C  C54  1  0.64670000  0.02440000  0.20850000  1
  C  C55  1  0.18410000  0.06180000  0.70850000  1
  C  C56  1  0.74830000  0.64390000  0.81680000  1
  C  C57  1  0.17290000  0.56850000  0.31680000  1
  C  C58  1  0.84800000  0.41930000  0.49890000  1
  C  C59  1  0.07960000  0.15090000  0.99890000  1
  C  C60  1  0.89540000  0.40290000  0.46510000  1
  C  C61  1  0.06220000  0.06970000  0.96510000  1
  C  C62  1  0.75510000  0.46010000  0.66700000  1
  C  C63  1  0.20690000  0.41190000  0.16700000  1
  C  C64  1  0.54260000  0.82460000  0.26800000  1
  C  C65  1  0.44340000  0.22540000  0.76800000  1
  C  C66  1  0.59890000  0.82190000  0.22100000  1
  C  C67  1  0.39910000  0.12210000  0.72100000  1
  H  H68  1  0.17410000  0.21590000  0.05000000  1
  H  H69  1  0.83410000  0.37590000  0.55000000  1
  H  H70  1  0.18280000  0.67920000  0.50580000  1
  H  H71  1  0.82660000  0.82300000  0.00580000  1
  H  H72  1  0.51480000  0.16640000  0.68520000  1
  H  H73  1  0.51880000  0.67040000  0.18520000  1
  H  H74  1  0.27650000  0.55800000  0.31930000  1
  H  H75  1  0.76130000  0.54280000  0.81930000  1
  H  H76  1  0.11600000  0.54300000  0.46700000  1
  H  H77  1  0.92400000  0.85100000  0.96700000  1
  H  H78  1  0.12780000  0.64100000  0.56800000  1
  H  H79  1  0.92700000  0.94020000  0.06800000  1
  H  H80  1  0.41190000  0.07560000  0.72110000  1
  H  H81  1  0.64550000  0.80920000  0.22110000  1
  H  H82  1  0.23550000  0.48780000  0.31670000  1
  H  H83  1  0.82890000  0.58120000  0.81670000  1
  H  H84  1  0.42730000  0.16610000  0.81080000  1
  H  H85  1  0.64470000  0.88350000  0.31080000  1
  H  H86  1  0.08130000  0.02390000  0.01820000  1
  H  H87  1  0.99430000  0.43690000  0.51820000  1
  H  H88  1  0.53240000  0.28330000  0.83190000  1
  H  H89  1  0.54860000  0.79950000  0.33190000  1
  H  H90  1  0.26710000  0.55640000  0.37270000  1
  H  H91  1  0.81630000  0.60560000  0.87270000  1
  H  H92  1  0.09980000  0.55750000  0.54670000  1
  H  H93  1  0.98920000  0.94690000  0.04670000  1
  H  H94  1  0.10650000  0.98750000  0.97360000  1
  H  H95  1  0.98610000  0.36710000  0.47360000  1
  H  H96  1  0.50000000  0.16100000  0.75500000  1
  H  H97  1  0.59400000  0.75500000  0.25500000  1
  H  H98  1  0.32380000  0.99400000  0.76440000  1
  H  H99  1  0.77040000  0.94060000  0.26440000  1
  H  H100  1  0.30850000  0.88150000  0.73120000  1
  H  H101  1  0.84970000  0.92270000  0.23120000  1
  H  H102  1  0.34430000  0.99900000  0.82530000  1
  H  H103  1  0.82630000  0.98100000  0.32530000  1
  H  H104  1  0.23210000  0.54680000  0.48830000  1
  H  H105  1  0.94150000  0.75620000  0.98830000  1
  H  H106  1  0.28810000  0.89470000  0.78340000  1
  H  H107  1  0.88870000  0.99530000  0.28340000  1
  H  H108  1  0.18230000  0.49230000  0.49580000  1
  H  H109  1  0.00350000  0.81350000  0.99580000  1
  H  H110  1  0.43470000  0.00720000  0.77490000  1
  H  H111  1  0.76770000  0.84020000  0.27490000  1
  H  H112  1  0.14970000  0.37520000  0.42850000  1
  H  H113  1  0.05330000  0.77880000  0.92850000  1
  H  H114  1  0.14910000  0.31260000  0.38070000  1
  H  H115  1  0.06810000  0.73160000  0.88070000  1
  H  H116  1  0.23320000  0.55990000  0.54770000  1
  H  H117  1  0.98780000  0.81450000  0.04770000  1
  H  H118  1  0.44620000  0.04450000  0.83350000  1
  H  H119  1  0.78900000  0.88730000  0.33350000  1
  H  H120  1  0.30030000  0.39710000  0.34040000  1
  H  H121  1  0.94330000  0.54010000  0.84040000  1
  H  H122  1  0.37800000  0.48200000  0.37400000  1
  H  H123  1  0.89200000  0.49600000  0.87400000  1
  H  H124  1  0.44510000  0.43670000  0.29680000  1
  H  H125  1  0.86010000  0.35170000  0.79680000  1
  H  H126  1  0.36080000  0.49190000  0.44930000  1
  H  H127  1  0.95740000  0.58850000  0.94930000  1
  H  H128  1  0.38630000  0.82350000  0.76800000  1
  H  H129  1  0.94450000  0.88170000  0.26800000  1
  H  H130  1  0.25870000  0.38980000  0.46290000  1
  H  H131  1  0.07310000  0.70420000  0.96290000  1
  H  H132  1  0.47060000  0.50460000  0.37900000  1
  H  H133  1  0.87440000  0.40840000  0.87900000  1
  H  H134  1  0.38380000  0.85730000  0.82290000  1
  H  H135  1  0.96560000  0.93910000  0.32290000  1
  H  H136  1  0.25750000  0.32020000  0.41370000  1
  H  H137  1  0.09350000  0.65620000  0.91370000  1
  H  H138  1  0.34230000  0.35100000  0.36570000  1
  H  H139  1  0.01470000  0.52340000  0.86570000  1
  H  H140  1  0.43700000  0.53520000  0.46480000  1
  H  H141  1  0.92960000  0.52780000  0.96480000  1
  H  H142  1  0.45900000  0.05190000  0.98770000  1
  H  H143  1  0.93580000  0.02870000  0.48770000  1
  H  H144  1  0.48870000  0.38750000  0.31680000  1
  H  H145  1  0.92930000  0.32810000  0.81680000  1
  H  H146  1  0.62780000  0.71210000  0.50350000  1
  H  H147  1  0.79140000  0.37570000  0.00350000  1
  H  H148  1  0.42630000  0.97090000  0.97000000  1
  H  H149  1  0.99910000  0.04370000  0.47000000  1
  H  H150  1  0.63990000  0.65980000  0.45090000  1
  H  H151  1  0.79110000  0.31100000  0.95090000  1
  H  H152  1  0.43140000  0.46060000  0.47140000  1
  H  H153  1  0.01080000  0.54000000  0.97140000  1
  H  H154  1  0.50150000  0.44330000  0.39880000  1
  H  H155  1  0.95550000  0.39730000  0.89880000  1
  H  H156  1  0.27600000  0.26600000  0.45000000  1
  H  H157  1  0.18400000  0.67400000  0.95000000  1
  H  H158  1  0.25260000  0.78600000  0.02200000  1
  H  H159  1  0.23600000  0.26940000  0.52200000  1
  H  H160  1  0.25850000  0.73560000  0.97130000  1
  H  H161  1  0.23570000  0.21280000  0.47130000  1
  H  H162  1  0.63480000  0.63120000  0.49560000  1
  H  H163  1  0.86440000  0.36080000  0.99560000  1
  H  H164  1  0.36520000  0.36880000  0.50440000  1
  H  H165  1  0.13560000  0.63920000  0.00440000  1
  H  H166  1  0.74150000  0.26440000  0.02870000  1
  H  H167  1  0.76430000  0.78720000  0.52870000  1
  H  H168  1  0.74740000  0.21400000  0.97800000  1
  H  H169  1  0.76400000  0.73060000  0.47800000  1
  H  H170  1  0.72400000  0.73400000  0.55000000  1
  H  H171  1  0.81600000  0.32600000  0.05000000  1
  H  H172  1  0.49850000  0.55670000  0.60120000  1
  H  H173  1  0.04450000  0.60270000  0.10120000  1
  H  H174  1  0.56860000  0.53940000  0.52860000  1
  H  H175  1  0.98920000  0.46000000  0.02860000  1
  H  H176  1  0.36010000  0.34020000  0.54910000  1
  H  H177  1  0.20890000  0.68900000  0.04910000  1
  H  H178  1  0.57370000  0.02910000  0.03000000  1
  H  H179  1  0.00090000  0.95630000  0.53000000  1
  H  H180  1  0.37220000  0.28790000  0.49650000  1
  H  H181  1  0.20860000  0.62430000  0.99650000  1
  H  H182  1  0.51130000  0.61250000  0.68320000  1
  H  H183  1  0.07070000  0.67190000  0.18320000  1
  H  H184  1  0.54100000  0.94810000  0.01230000  1
  H  H185  1  0.06420000  0.97130000  0.51230000  1
  H  H186  1  0.56300000  0.46480000  0.53520000  1
  H  H187  1  0.07040000  0.47220000  0.03520000  1
  H  H188  1  0.65770000  0.64900000  0.63430000  1
  H  H189  1  0.98530000  0.47660000  0.13430000  1
  H  H190  1  0.74250000  0.67980000  0.58630000  1
  H  H191  1  0.90650000  0.34380000  0.08630000  1
  H  H192  1  0.61620000  0.14270000  0.17710000  1
  H  H193  1  0.03440000  0.06090000  0.67710000  1
  H  H194  1  0.52940000  0.49540000  0.62100000  1
  H  H195  1  0.12560000  0.59160000  0.12100000  1
  H  H196  1  0.74130000  0.61020000  0.53710000  1
  H  H197  1  0.92690000  0.29580000  0.03710000  1
  H  H198  1  0.61370000  0.17650000  0.23200000  1
  H  H199  1  0.05550000  0.11830000  0.73200000  1
  H  H200  1  0.63920000  0.50810000  0.55070000  1
  H  H201  1  0.04260000  0.41150000  0.05070000  1
  H  H202  1  0.55490000  0.56330000  0.70320000  1
  H  H203  1  0.13990000  0.64830000  0.20320000  1
  H  H204  1  0.62200000  0.51800000  0.62600000  1
  H  H205  1  0.10800000  0.50400000  0.12600000  1
  H  H206  1  0.69970000  0.60290000  0.65960000  1
  H  H207  1  0.05670000  0.45990000  0.15960000  1
  H  H208  1  0.55380000  0.95550000  0.16650000  1
  H  H209  1  0.21100000  0.11270000  0.66650000  1
  H  H210  1  0.76680000  0.44010000  0.45230000  1
  H  H211  1  0.01220000  0.18550000  0.95230000  1
  H  H212  1  0.85090000  0.68740000  0.61930000  1
  H  H213  1  0.93190000  0.26840000  0.11930000  1
  H  H214  1  0.85030000  0.62480000  0.57150000  1
  H  H215  1  0.94670000  0.22120000  0.07150000  1
  H  H216  1  0.56530000  0.99280000  0.22510000  1
  H  H217  1  0.23230000  0.15980000  0.72510000  1
  H  H218  1  0.81770000  0.50770000  0.50420000  1
  H  H219  1  0.99650000  0.18650000  0.00420000  1
  H  H220  1  0.71190000  0.10530000  0.21660000  1
  H  H221  1  0.11130000  0.00470000  0.71660000  1
  H  H222  1  0.76790000  0.45320000  0.51170000  1
  H  H223  1  0.05850000  0.24380000  0.01170000  1
  H  H224  1  0.65570000  0.00100000  0.17470000  1
  H  H225  1  0.17370000  0.01900000  0.67470000  1
  H  H226  1  0.69150000  0.11850000  0.26880000  1
  H  H227  1  0.15030000  0.07730000  0.76880000  1
  H  H228  1  0.67620000  0.00600000  0.23560000  1
  H  H229  1  0.22960000  0.05940000  0.73560000  1
  H  H230  1  0.50000000  0.83900000  0.24500000  1
  H  H231  1  0.40600000  0.24500000  0.74500000  1
  H  H232  1  0.89350000  0.01250000  0.02640000  1
  H  H233  1  0.01390000  0.63290000  0.52640000  1
  H  H234  1  0.90020000  0.44250000  0.45330000  1
  H  H235  1  0.01080000  0.05310000  0.95330000  1
  H  H236  1  0.73290000  0.44360000  0.62730000  1
  H  H237  1  0.18370000  0.39440000  0.12730000  1
  H  H238  1  0.46760000  0.71670000  0.16810000  1
  H  H239  1  0.45140000  0.20050000  0.66810000  1
  H  H240  1  0.91870000  0.97610000  0.98180000  1
  H  H241  1  0.00570000  0.56310000  0.48180000  1
  H  H242  1  0.57270000  0.83390000  0.18920000  1
  H  H243  1  0.35530000  0.11650000  0.68920000  1
  H  H244  1  0.76450000  0.51220000  0.68330000  1
  H  H245  1  0.17110000  0.41880000  0.18330000  1
  H  H246  1  0.58810000  0.92440000  0.27890000  1
  H  H247  1  0.35450000  0.19080000  0.77890000  1
  H  H248  1  0.87220000  0.35900000  0.43200000  1
  H  H249  1  0.07300000  0.05980000  0.93200000  1
  H  H250  1  0.88400000  0.45700000  0.53300000  1
  H  H251  1  0.07600000  0.14900000  0.03300000  1
  H  H252  1  0.72350000  0.44200000  0.68070000  1
  H  H253  1  0.23870000  0.45720000  0.18070000  1
  H  H254  1  0.48520000  0.83360000  0.31480000  1
  H  H255  1  0.48120000  0.32960000  0.81480000  1
  H  H256  1  0.81720000  0.32080000  0.49420000  1
  H  H257  1  0.17340000  0.17700000  0.99420000  1
  H  H258  1  0.82590000  0.78410000  0.95000000  1
  H  H259  1  0.16590000  0.62410000  0.45000000  1
  N  N260  1  0.15980000  0.17280000  0.02080000  1
  N  N261  1  0.84800000  0.36100000  0.52080000  1
  N  N262  1  0.50020000  0.28980000  0.80240000  1
  N  N263  1  0.51260000  0.80220000  0.30240000  1
  N  N264  1  0.10310000  0.03110000  0.99660000  1
  N  N265  1  0.96550000  0.39350000  0.49660000  1
  N  N266  1  0.43010000  0.00150000  0.80440000  1
  N  N267  1  0.80290000  0.87430000  0.30440000  1
  N  N268  1  0.16360000  0.33140000  0.41800000  1
  N  N269  1  0.08660000  0.75440000  0.91800000  1
  N  N270  1  0.34330000  0.38160000  0.34850000  1
  N  N271  1  0.96690000  0.50520000  0.84850000  1
  N  N272  1  0.38910000  0.86650000  0.79480000  1
  N  N273  1  0.92830000  0.90570000  0.29480000  1
  N  N274  1  0.44920000  0.40850000  0.31650000  1
  N  N275  1  0.90800000  0.36730000  0.81650000  1
  N  N276  1  0.22770000  0.75910000  0.98560000  1
  N  N277  1  0.22650000  0.25790000  0.48560000  1
  N  N278  1  0.77230000  0.24090000  0.01440000  1
  N  N279  1  0.77350000  0.74210000  0.51440000  1
  N  N280  1  0.55080000  0.59150000  0.68350000  1
  N  N281  1  0.09200000  0.63270000  0.18350000  1
  N  N282  1  0.61090000  0.13350000  0.20520000  1
  N  N283  1  0.07170000  0.09430000  0.70520000  1
  N  N284  1  0.65670000  0.61840000  0.65150000  1
  N  N285  1  0.03310000  0.49480000  0.15150000  1
  N  N286  1  0.83640000  0.66860000  0.58200000  1
  N  N287  1  0.91340000  0.24560000  0.08200000  1
  N  N288  1  0.56990000  0.99850000  0.19560000  1
  N  N289  1  0.19710000  0.12570000  0.69560000  1
  N  N290  1  0.89690000  0.96890000  0.00340000  1
  N  N291  1  0.03450000  0.60650000  0.50340000  1
  N  N292  1  0.49980000  0.71020000  0.19760000  1
  N  N293  1  0.48740000  0.19780000  0.69760000  1
  N  N294  1  0.84020000  0.82720000  0.97920000  1
  N  N295  1  0.15200000  0.63900000  0.47920000  1
  Ni  Ni296  1  0.44980000  0.69980000  0.25000000  1
  Ni  Ni297  1  0.55020000  0.30020000  0.75000000  1
  Ni  Ni298  1  0.20499000  0.09246000  0.04525000  1
  Ni  Ni299  1  0.95279000  0.34026000  0.54525000  1
  Ni  Ni300  1  0.28152000  0.20742000  0.16554000  1
  Ni  Ni301  1  0.95812000  0.38402000  0.66554000  1
  Ni  Ni302  1  0.18145000  0.82515000  0.94416000  1
  Ni  Ni303  1  0.11901000  0.26271000  0.44416000  1
  Ni  Ni304  1  0.35869000  0.32790000  0.27681000  1
  Ni  Ni305  1  0.94891000  0.41812000  0.77681000  1
  Ni  Ni306  1  0.48853000  0.92532000  0.82315000  1
  Ni  Ni307  1  0.89783000  0.83462000  0.32315000  1
  Ni  Ni308  1  0.35837000  0.08166000  0.11667000  1
  Ni  Ni309  1  0.03501000  0.25830000  0.61667000  1
  Ni  Ni310  1  0.43791000  0.19896000  0.23519000  1
  Ni  Ni311  1  0.03623000  0.29728000  0.73519000  1
  Ni  Ni312  1  0.56209000  0.80104000  0.76481000  1
  Ni  Ni313  1  0.96377000  0.70272000  0.26481000  1
  Ni  Ni314  1  0.64163000  0.91834000  0.88333000  1
  Ni  Ni315  1  0.96499000  0.74170000  0.38333000  1
  Ni  Ni316  1  0.51147000  0.07468000  0.17685000  1
  Ni  Ni317  1  0.10217000  0.16538000  0.67685000  1
  Ni  Ni318  1  0.64131000  0.67210000  0.72319000  1
  Ni  Ni319  1  0.05109000  0.58188000  0.22319000  1
  Ni  Ni320  1  0.81855000  0.17485000  0.05584000  1
  Ni  Ni321  1  0.88099000  0.73729000  0.55584000  1
  Ni  Ni322  1  0.71848000  0.79258000  0.83446000  1
  Ni  Ni323  1  0.04188000  0.61598000  0.33446000  1
  Ni  Ni324  1  0.79501000  0.90754000  0.95475000  1
  Ni  Ni325  1  0.04721000  0.65974000  0.45475000  1
  O  O326  1  0.23940000  0.28920000  0.14620000  1
  O  O327  1  0.85700000  0.40680000  0.64620000  1
  O  O328  1  0.29490000  0.38340000  0.23430000  1
  O  O329  1  0.85090000  0.43940000  0.73430000  1
  O  O330  1  0.12950000  0.17810000  0.20280000  1
  O  O331  1  0.02470000  0.57330000  0.70280000  1
  O  O332  1  0.53330000  0.64740000  0.28470000  1
  O  O333  1  0.63730000  0.25140000  0.78470000  1
  O  O334  1  0.18500000  0.13290000  0.12130000  1
  O  O335  1  0.98840000  0.43630000  0.62130000  1
  O  O336  1  0.52410000  0.46940000  0.12850000  1
  O  O337  1  0.65910000  0.10440000  0.62850000  1
  O  O338  1  0.59900000  0.96460000  0.57380000  1
  O  O339  1  0.60920000  0.47480000  0.07380000  1
  O  O340  1  0.59740000  0.58930000  0.20890000  1
  O  O341  1  0.61960000  0.11150000  0.70890000  1
  O  O342  1  0.14200000  0.59820000  0.68140000  1
  O  O343  1  0.08320000  0.03940000  0.18140000  1
  O  O344  1  0.55060000  0.97440000  0.65580000  1
  O  O345  1  0.68140000  0.60520000  0.15580000  1
  O  O346  1  0.30030000  0.15570000  0.09600000  1
  O  O347  1  0.94030000  0.29570000  0.59600000  1
  O  O348  1  0.52230000  0.50150000  0.22740000  1
  O  O349  1  0.72590000  0.20510000  0.72740000  1
  O  O350  1  0.48300000  0.32810000  0.10290000  1
  O  O351  1  0.77480000  0.11990000  0.60290000  1
  O  O352  1  0.26760000  0.24720000  0.23980000  1
  O  O353  1  0.99260000  0.47220000  0.73980000  1
  O  O354  1  0.14850000  0.99460000  0.10870000  1
  O  O355  1  0.11410000  0.46020000  0.60870000  1
  O  O356  1  0.21920000  0.71780000  0.77100000  1
  O  O357  1  0.05320000  0.05180000  0.27100000  1
  O  O358  1  0.16210000  0.88850000  0.01640000  1
  O  O359  1  0.12790000  0.35430000  0.51640000  1
  O  O360  1  0.55990000  0.01770000  0.76000000  1
  O  O361  1  0.74230000  0.70010000  0.26000000  1
  O  O362  1  0.16370000  0.15480000  0.29670000  1
  O  O363  1  0.14190000  0.63300000  0.79670000  1
  O  O364  1  0.20770000  0.76810000  0.87540000  1
  O  O365  1  0.10730000  0.16770000  0.37540000  1
  O  O366  1  0.51630000  0.83890000  0.64120000  1
  O  O367  1  0.80230000  0.62490000  0.14120000  1
  O  O368  1  0.37910000  0.26970000  0.20980000  1
  O  O369  1  0.94010000  0.33070000  0.70980000  1
  O  O370  1  0.25830000  0.01500000  0.07710000  1
  O  O371  1  0.06210000  0.31880000  0.57710000  1
  O  O372  1  0.48440000  0.36140000  0.20340000  1
  O  O373  1  0.84200000  0.21900000  0.70340000  1
  O  O374  1  0.60060000  0.34290000  0.07950000  1
  O  O375  1  0.73660000  0.97890000  0.57950000  1
  O  O376  1  0.65970000  0.13510000  0.81500000  1
  O  O377  1  0.67990000  0.65530000  0.31500000  1
  O  O378  1  0.26060000  0.57310000  0.66030000  1
  O  O379  1  0.08720000  0.89970000  0.16030000  1
  O  O380  1  0.23390000  0.10310000  0.22000000  1
  O  O381  1  0.11690000  0.48610000  0.72000000  1
  O  O382  1  0.50920000  0.88160000  0.74300000  1
  O  O383  1  0.67430000  0.47440000  0.17070000  1
  O  O384  1  0.69630000  0.99640000  0.67070000  1
  O  O385  1  0.86140000  0.73380000  0.24300000  1
  O  O386  1  0.62410000  0.85610000  0.60980000  1
  O  O387  1  0.75370000  0.48570000  0.10980000  1
  O  O388  1  0.60800000  0.55810000  0.33570000  1
  O  O389  1  0.77760000  0.22770000  0.83570000  1
  O  O390  1  0.33440000  0.69060000  0.74260000  1
  O  O391  1  0.05200000  0.90820000  0.24260000  1
  O  O392  1  0.38840000  0.04500000  0.05020000  1
  O  O393  1  0.00520000  0.16180000  0.55020000  1
  O  O394  1  0.33620000  0.12670000  0.19050000  1
  O  O395  1  0.06380000  0.35430000  0.69050000  1
  O  O396  1  0.60270000  0.38980000  0.19130000  1
  O  O397  1  0.80150000  0.08860000  0.69130000  1
  O  O398  1  0.29820000  0.21160000  0.32880000  1
  O  O399  1  0.11720000  0.53060000  0.82880000  1
  O  O400  1  0.24460000  0.43040000  0.61520000  1
  O  O401  1  0.18480000  0.87060000  0.11520000  1
  O  O402  1  0.26320000  0.59650000  0.77110000  1
  O  O403  1  0.17460000  0.00790000  0.27110000  1
  O  O404  1  0.49660000  0.96380000  0.90520000  1
  O  O405  1  0.94140000  0.90860000  0.40520000  1
  O  O406  1  0.67500000  0.50450000  0.26810000  1
  O  O407  1  0.76360000  0.09310000  0.76810000  1
  O  O408  1  0.58950000  0.99060000  0.85190000  1
  O  O409  1  0.86130000  0.76240000  0.35190000  1
  O  O410  1  0.54990000  0.25580000  0.16330000  1
  O  O411  1  0.90750000  0.11340000  0.66330000  1
  O  O412  1  0.63720000  0.90310000  0.72450000  1
  O  O413  1  0.82140000  0.58730000  0.22450000  1
  O  O414  1  0.33370000  0.72920000  0.86150000  1
  O  O415  1  0.45210000  0.15040000  0.16430000  1
  O  O416  1  0.01390000  0.21220000  0.66430000  1
  O  O417  1  0.13230000  0.02780000  0.36150000  1
  O  O418  1  0.29440000  0.99950000  0.17870000  1
  O  O419  1  0.17920000  0.38430000  0.67870000  1
  O  O420  1  0.41310000  0.24460000  0.30530000  1
  O  O421  1  0.06070000  0.39220000  0.80530000  1
  O  O422  1  0.46660000  0.72780000  0.73560000  1
  O  O423  1  0.00780000  0.76900000  0.23560000  1
  O  O424  1  0.60060000  0.41360000  0.29780000  1
  O  O425  1  0.88420000  0.19720000  0.79780000  1
  O  O426  1  0.30060000  0.89620000  0.09420000  1
  O  O427  1  0.19800000  0.29360000  0.59420000  1
  O  O428  1  0.73910000  0.35830000  0.11860000  1
  O  O429  1  0.76030000  0.87950000  0.61860000  1
  O  O430  1  0.26090000  0.64170000  0.88140000  1
  O  O431  1  0.23970000  0.12050000  0.38140000  1
  O  O432  1  0.69940000  0.10380000  0.90580000  1
  O  O433  1  0.80200000  0.70640000  0.40580000  1
  O  O434  1  0.39940000  0.58640000  0.70220000  1
  O  O435  1  0.11580000  0.80280000  0.20220000  1
  O  O436  1  0.53340000  0.27220000  0.26440000  1
  O  O437  1  0.99220000  0.23100000  0.76440000  1
  O  O438  1  0.58690000  0.75540000  0.69470000  1
  O  O439  1  0.93930000  0.60780000  0.19470000  1
  O  O440  1  0.70560000  0.00050000  0.82130000  1
  O  O441  1  0.82080000  0.61570000  0.32130000  1
  O  O442  1  0.54790000  0.84960000  0.83570000  1
  O  O443  1  0.66630000  0.27080000  0.13850000  1
  O  O444  1  0.86770000  0.97220000  0.63850000  1
  O  O445  1  0.98610000  0.78780000  0.33570000  1
  O  O446  1  0.36280000  0.09690000  0.27550000  1
  O  O447  1  0.17860000  0.41270000  0.77550000  1
  O  O448  1  0.45010000  0.74420000  0.83670000  1
  O  O449  1  0.09250000  0.88660000  0.33670000  1
  O  O450  1  0.41050000  0.00940000  0.14810000  1
  O  O451  1  0.13870000  0.23760000  0.64810000  1
  O  O452  1  0.32500000  0.49550000  0.73190000  1
  O  O453  1  0.23640000  0.90690000  0.23190000  1
  O  O454  1  0.50340000  0.03620000  0.09480000  1
  O  O455  1  0.05860000  0.09140000  0.59480000  1
  O  O456  1  0.73680000  0.40350000  0.22890000  1
  O  O457  1  0.82540000  0.99210000  0.72890000  1
  O  O458  1  0.75540000  0.56960000  0.38480000  1
  O  O459  1  0.81520000  0.12940000  0.88480000  1
  O  O460  1  0.70180000  0.78840000  0.67120000  1
  O  O461  1  0.88280000  0.46940000  0.17120000  1
  O  O462  1  0.39730000  0.61020000  0.80870000  1
  O  O463  1  0.19850000  0.91140000  0.30870000  1
  O  O464  1  0.66380000  0.87330000  0.80950000  1
  O  O465  1  0.93620000  0.64570000  0.30950000  1
  O  O466  1  0.61160000  0.95500000  0.94980000  1
  O  O467  1  0.99480000  0.83820000  0.44980000  1
  O  O468  1  0.66560000  0.30940000  0.25740000  1
  O  O469  1  0.94800000  0.09180000  0.75740000  1
  O  O470  1  0.39200000  0.44190000  0.66430000  1
  O  O471  1  0.22240000  0.77230000  0.16430000  1
  O  O472  1  0.37590000  0.14390000  0.39020000  1
  O  O473  1  0.24630000  0.51430000  0.89020000  1
  O  O474  1  0.32570000  0.52560000  0.82930000  1
  O  O475  1  0.49080000  0.11840000  0.25700000  1
  O  O476  1  0.13860000  0.26620000  0.75700000  1
  O  O477  1  0.30370000  0.00360000  0.32930000  1
  O  O478  1  0.76610000  0.89690000  0.78000000  1
  O  O479  1  0.88310000  0.51390000  0.28000000  1
  O  O480  1  0.73940000  0.42690000  0.33970000  1
  O  O481  1  0.91280000  0.10030000  0.83970000  1
  O  O482  1  0.34030000  0.86490000  0.18500000  1
  O  O483  1  0.32010000  0.34470000  0.68500000  1
  O  O484  1  0.39940000  0.65710000  0.92050000  1
  O  O485  1  0.26340000  0.02110000  0.42050000  1
  O  O486  1  0.51560000  0.63860000  0.79660000  1
  O  O487  1  0.15800000  0.78100000  0.29660000  1
  O  O488  1  0.74170000  0.98500000  0.92290000  1
  O  O489  1  0.93790000  0.68120000  0.42290000  1
  O  O490  1  0.62090000  0.73030000  0.79020000  1
  O  O491  1  0.05990000  0.66930000  0.29020000  1
  O  O492  1  0.48370000  0.16110000  0.35880000  1
  O  O493  1  0.19770000  0.37510000  0.85880000  1
  O  O494  1  0.79230000  0.23190000  0.12460000  1
  O  O495  1  0.89270000  0.83230000  0.62460000  1
  O  O496  1  0.83630000  0.84520000  0.70330000  1
  O  O497  1  0.85810000  0.36700000  0.20330000  1
  O  O498  1  0.44010000  0.98230000  0.24000000  1
  O  O499  1  0.25770000  0.29990000  0.74000000  1
  O  O500  1  0.83790000  0.11150000  0.98360000  1
  O  O501  1  0.87210000  0.64570000  0.48360000  1
  O  O502  1  0.78080000  0.28220000  0.22900000  1
  O  O503  1  0.94680000  0.94820000  0.72900000  1
  O  O504  1  0.85150000  0.00540000  0.89130000  1
  O  O505  1  0.88590000  0.53980000  0.39130000  1
  O  O506  1  0.73240000  0.75280000  0.76020000  1
  O  O507  1  0.00740000  0.52780000  0.26020000  1
  O  O508  1  0.51700000  0.67190000  0.89710000  1
  O  O509  1  0.22520000  0.88010000  0.39710000  1
  O  O510  1  0.47770000  0.49850000  0.77260000  1
  O  O511  1  0.27410000  0.79490000  0.27260000  1
  O  O512  1  0.69970000  0.84430000  0.90400000  1
  O  O513  1  0.05970000  0.70430000  0.40400000  1
  O  O514  1  0.44940000  0.02560000  0.34420000  1
  O  O515  1  0.31860000  0.39480000  0.84420000  1
  O  O516  1  0.85800000  0.40180000  0.31860000  1
  O  O517  1  0.91680000  0.96060000  0.81860000  1
  O  O518  1  0.40260000  0.41070000  0.79110000  1
  O  O519  1  0.38040000  0.88850000  0.29110000  1
  O  O520  1  0.40100000  0.03540000  0.42620000  1
  O  O521  1  0.39080000  0.52520000  0.92620000  1
  O  O522  1  0.47590000  0.53060000  0.87150000  1
  O  O523  1  0.34090000  0.89560000  0.37150000  1
  O  O524  1  0.81500000  0.86710000  0.87870000  1
  O  O525  1  0.01160000  0.56370000  0.37870000  1
  O  O526  1  0.46670000  0.35260000  0.71530000  1
  O  O527  1  0.36270000  0.74860000  0.21530000  1
  O  O528  1  0.87050000  0.82190000  0.79720000  1
  O  O529  1  0.97530000  0.42670000  0.29720000  1
  O  O530  1  0.70510000  0.61660000  0.76570000  1
  O  O531  1  0.14910000  0.56060000  0.26570000  1
  O  O532  1  0.76060000  0.71080000  0.85380000  1
  O  O533  1  0.14300000  0.59320000  0.35380000  1
  P  P534  1  0.30663000  0.08120000  0.21679000  1
  P  P535  1  0.13559000  0.41016000  0.71679000  1
  P  P536  1  0.67419000  0.44419000  0.21584000  1
  P  P537  1  0.77165000  0.04165000  0.71584000  1
  P  P538  1  0.32581000  0.55581000  0.78416000  1
  P  P539  1  0.22835000  0.95835000  0.28416000  1
  P  P540  1  0.69337000  0.91880000  0.78321000  1
  P  P541  1  0.86441000  0.58984000  0.28321000  1
  W  W542  1  0.12605000  0.09006000  0.14315000  1
  W  W543  1  0.05309000  0.51710000  0.64315000  1
  W  W544  1  0.58910000  0.03876000  0.63620000  1
  W  W545  1  0.59744000  0.54710000  0.13620000  1
  W  W546  1  0.48385000  0.41925000  0.16000000  1
  W  W547  1  0.74075000  0.17615000  0.66000000  1
  W  W548  1  0.21483000  0.21599000  0.27146000  1
  W  W549  1  0.05547000  0.55663000  0.77146000  1
  W  W550  1  0.22911000  0.65154000  0.70453000  1
  W  W551  1  0.05299000  0.97542000  0.20453000  1
  W  W552  1  0.59591000  0.59009000  0.27700000  1
  W  W553  1  0.68691000  0.18109000  0.77700000  1
  W  W554  1  0.51700000  0.92706000  0.69992000  1
  W  W555  1  0.77286000  0.68292000  0.19992000  1
  W  W556  1  0.67223000  0.90515000  0.58420000  1
  W  W557  1  0.67905000  0.41197000  0.08420000  1
  W  W558  1  0.21525000  0.94207000  0.08592000  1
  W  W559  1  0.14385000  0.37067000  0.58592000  1
  W  W560  1  0.22904000  0.69260000  0.83254000  1
  W  W561  1  0.13994000  0.10350000  0.33254000  1
  W  W562  1  0.61501000  0.06665000  0.83850000  1
  W  W563  1  0.77185000  0.72349000  0.33850000  1
  W  W564  1  0.56917000  0.28140000  0.10803000  1
  W  W565  1  0.82663000  0.03886000  0.60803000  1
  W  W566  1  0.59960000  0.79120000  0.64688000  1
  W  W567  1  0.85568000  0.54728000  0.14688000  1
  W  W568  1  0.32102000  0.50264000  0.64636000  1
  W  W569  1  0.14372000  0.82534000  0.14636000  1
  W  W570  1  0.56998000  0.32569000  0.23843000  1
  W  W571  1  0.91274000  0.16845000  0.73843000  1
  W  W572  1  0.43002000  0.67431000  0.76157000  1
  W  W573  1  0.08726000  0.83155000  0.26157000  1
  W  W574  1  0.67898000  0.49736000  0.35364000  1
  W  W575  1  0.85628000  0.17466000  0.85364000  1
  W  W576  1  0.40040000  0.20880000  0.35312000  1
  W  W577  1  0.14432000  0.45272000  0.85312000  1
  W  W578  1  0.43083000  0.71860000  0.89197000  1
  W  W579  1  0.17337000  0.96114000  0.39197000  1
  W  W580  1  0.38499000  0.93335000  0.16150000  1
  W  W581  1  0.22815000  0.27651000  0.66150000  1
  W  W582  1  0.77096000  0.30740000  0.16746000  1
  W  W583  1  0.86006000  0.89650000  0.66746000  1
  W  W584  1  0.78475000  0.05793000  0.91408000  1
  W  W585  1  0.85615000  0.62933000  0.41408000  1
  W  W586  1  0.32777000  0.09485000  0.41580000  1
  W  W587  1  0.32095000  0.58803000  0.91580000  1
  W  W588  1  0.48300000  0.07294000  0.30008000  1
  W  W589  1  0.22714000  0.31708000  0.80008000  1
  W  W590  1  0.40409000  0.40991000  0.72300000  1
  W  W591  1  0.31309000  0.81891000  0.22300000  1
  W  W592  1  0.77089000  0.34846000  0.29547000  1
  W  W593  1  0.94701000  0.02458000  0.79547000  1
  W  W594  1  0.78517000  0.78401000  0.72854000  1
  W  W595  1  0.94453000  0.44337000  0.22854000  1
  W  W596  1  0.51615000  0.58075000  0.84000000  1
  W  W597  1  0.25925000  0.82385000  0.34000000  1
  W  W598  1  0.41090000  0.96124000  0.36380000  1
  W  W599  1  0.40256000  0.45290000  0.86380000  1
  W  W600  1  0.87395000  0.90994000  0.85685000  1
  W  W601  1  0.94691000  0.48290000  0.35685000  1
