# generated using pymatgen
data_Cd2H8C12S(NO4)2
_symmetry_space_group_name_H-M   'P 1'
_cell_length_a   10.39000000
_cell_length_b   12.29500000
_cell_length_c   12.49700000
_cell_angle_alpha   79.31000000
_cell_angle_beta   68.20000000
_cell_angle_gamma   69.58000000
_symmetry_Int_Tables_number   1
_chemical_formula_structural   Cd2H8C12S(NO4)2
_chemical_formula_sum   'Cd4 H16 C24 S2 N4 O16'
_cell_volume   1386.24546413
_cell_formula_units_Z   2
loop_
 _symmetry_equiv_pos_site_id
 _symmetry_equiv_pos_as_xyz
  1  'x, y, z'
loop_
 _atom_site_type_symbol
 _atom_site_label
 _atom_site_symmetry_multiplicity
 _atom_site_fract_x
 _atom_site_fract_y
 _atom_site_fract_z
 _atom_site_occupancy
  Cd  Cd0  1  0.04869000  0.52707000  0.81438000  1
  Cd  Cd1  1  0.40038000  0.69632000  0.02158000  1
  Cd  Cd2  1  0.59962000  0.30368000  0.97842000  1
  Cd  Cd3  1  0.95131000  0.47293000  0.18562000  1
  H  H4  1  0.00440000  0.92960000  0.93890000  1
  H  H5  1  0.02460000  0.62930000  0.42530000  1
  H  H6  1  0.10630000  0.73670000  0.90000000  1
  H  H7  1  0.11550000  0.67320000  0.23070000  1
  H  H8  1  0.22800000  0.26240000  0.17120000  1
  H  H9  1  0.34260000  0.07180000  0.12930000  1
  H  H10  1  0.42610000  0.56600000  0.43740000  1
  H  H11  1  0.49500000  0.39480000  0.75820000  1
  H  H12  1  0.50500000  0.60520000  0.24180000  1
  H  H13  1  0.57390000  0.43400000  0.56260000  1
  H  H14  1  0.65740000  0.92820000  0.87070000  1
  H  H15  1  0.77200000  0.73760000  0.82880000  1
  H  H16  1  0.88450000  0.32680000  0.76930000  1
  H  H17  1  0.89370000  0.26330000  0.10000000  1
  H  H18  1  0.97540000  0.37070000  0.57470000  1
  H  H19  1  0.99560000  0.07040000  0.06110000  1
  C  C20  1  0.01570000  0.77690000  0.89240000  1
  C  C21  1  0.04570000  0.10750000  0.08250000  1
  C  C22  1  0.12210000  0.62510000  0.39000000  1
  C  C23  1  0.15950000  0.56890000  0.58410000  1
  C  C24  1  0.17880000  0.64950000  0.27300000  1
  C  C25  1  0.18070000  0.22330000  0.14880000  1
  C  C26  1  0.18340000  0.04740000  0.08960000  1
  C  C27  1  0.21680000  0.59380000  0.45380000  1
  C  C28  1  0.25030000  0.10860000  0.12360000  1
  C  C29  1  0.25850000  0.92200000  0.06320000  1
  C  C30  1  0.36110000  0.58670000  0.39680000  1
  C  C31  1  0.40740000  0.61060000  0.27960000  1
  C  C32  1  0.59260000  0.38940000  0.72040000  1
  C  C33  1  0.63890000  0.41330000  0.60320000  1
  C  C34  1  0.74150000  0.07800000  0.93680000  1
  C  C35  1  0.74970000  0.89140000  0.87640000  1
  C  C36  1  0.78320000  0.40620000  0.54620000  1
  C  C37  1  0.81660000  0.95260000  0.91040000  1
  C  C38  1  0.81930000  0.77670000  0.85120000  1
  C  C39  1  0.82120000  0.35050000  0.72700000  1
  C  C40  1  0.84050000  0.43110000  0.41590000  1
  C  C41  1  0.87790000  0.37490000  0.61000000  1
  C  C42  1  0.95430000  0.89250000  0.91750000  1
  C  C43  1  0.98430000  0.22310000  0.10760000  1
  S  S44  1  0.26480000  0.48507000  0.99508000  1
  S  S45  1  0.73520000  0.51493000  0.00492000  1
  N  N46  1  0.04920000  0.28030000  0.14260000  1
  N  N47  1  0.31730000  0.64150000  0.21670000  1
  N  N48  1  0.68270000  0.35850000  0.78330000  1
  N  N49  1  0.95080000  0.71970000  0.85740000  1
  O  O50  1  0.02950000  0.57850000  0.63020000  1
  O  O51  1  0.17340000  0.49570000  0.93100000  1
  O  O52  1  0.17890000  0.49150000  0.11550000  1
  O  O53  1  0.19070000  0.86790000  0.04070000  1
  O  O54  1  0.24700000  0.54150000  0.63810000  1
  O  O55  1  0.33130000  0.57790000  0.95770000  1
  O  O56  1  0.37030000  0.37110000  0.97320000  1
  O  O57  1  0.38350000  0.87660000  0.06450000  1
  O  O58  1  0.61650000  0.12340000  0.93550000  1
  O  O59  1  0.62970000  0.62890000  0.02680000  1
  O  O60  1  0.66870000  0.42210000  0.04230000  1
  O  O61  1  0.75300000  0.45850000  0.36190000  1
  O  O62  1  0.80930000  0.13210000  0.95930000  1
  O  O63  1  0.82110000  0.50850000  0.88450000  1
  O  O64  1  0.82660000  0.50430000  0.06900000  1
  O  O65  1  0.97050000  0.42150000  0.36980000  1
