# generated using pymatgen
data_CoH3(CO2)3
_symmetry_space_group_name_H-M   'P 1'
_cell_length_a   7.33610000
_cell_length_b   7.93410000
_cell_length_c   13.86970000
_cell_angle_alpha   90.00000000
_cell_angle_beta   90.00000000
_cell_angle_gamma   90.00000000
_symmetry_Int_Tables_number   1
_chemical_formula_structural   CoH3(CO2)3
_chemical_formula_sum   'Co4 H12 C12 O24'
_cell_volume   807.29075690
_cell_formula_units_Z   4
loop_
 _symmetry_equiv_pos_site_id
 _symmetry_equiv_pos_as_xyz
  1  'x, y, z'
loop_
 _atom_site_type_symbol
 _atom_site_label
 _atom_site_symmetry_multiplicity
 _atom_site_fract_x
 _atom_site_fract_y
 _atom_site_fract_z
 _atom_site_occupancy
  Co  Co0  1  0.75887000  0.22306000  0.33545000  1
  Co  Co1  1  0.25887000  0.27694000  0.66455000  1
  Co  Co2  1  0.24113000  0.72306000  0.16455000  1
  Co  Co3  1  0.74113000  0.77694000  0.83545000  1
  H  H4  1  0.00060000  0.00170000  0.22660000  1
  H  H5  1  0.02120000  0.05940000  0.79320000  1
  H  H6  1  0.99030000  0.19440000  0.50900000  1
  H  H7  1  0.49030000  0.30560000  0.49100000  1
  H  H8  1  0.52120000  0.44060000  0.20680000  1
  H  H9  1  0.50060000  0.49830000  0.77340000  1
  H  H10  1  0.99940000  0.50170000  0.27340000  1
  H  H11  1  0.97880000  0.55940000  0.70680000  1
  H  H12  1  0.00970000  0.69440000  0.99100000  1
  H  H13  1  0.50970000  0.80560000  0.00900000  1
  H  H14  1  0.47880000  0.94060000  0.29320000  1
  H  H15  1  0.49940000  0.99830000  0.72660000  1
  C  C16  1  0.00130000  0.01110000  0.73298000  1
  C  C17  1  0.49330000  0.05480000  0.78524000  1
  C  C18  1  0.50730000  0.19170000  0.50414000  1
  C  C19  1  0.00730000  0.30830000  0.49586000  1
  C  C20  1  0.99330000  0.44520000  0.21476000  1
  C  C21  1  0.50130000  0.48890000  0.26702000  1
  C  C22  1  0.99870000  0.51110000  0.76702000  1
  C  C23  1  0.50670000  0.55480000  0.71476000  1
  C  C24  1  0.49270000  0.69170000  0.99586000  1
  C  C25  1  0.99270000  0.80830000  0.00414000  1
  C  C26  1  0.00670000  0.94520000  0.28524000  1
  C  C27  1  0.49870000  0.98890000  0.23298000  1
  O  O28  1  0.92290000  0.00840000  0.35374000  1
  O  O29  1  0.08670000  0.07070000  0.66391000  1
  O  O30  1  0.60830000  0.10720000  0.22871000  1
  O  O31  1  0.61780000  0.11330000  0.45227000  1
  O  O32  1  0.41850000  0.13060000  0.57152000  1
  O  O33  1  0.40140000  0.18720000  0.78740000  1
  O  O34  1  0.90140000  0.31280000  0.21260000  1
  O  O35  1  0.91850000  0.36940000  0.42848000  1
  O  O36  1  0.11780000  0.38670000  0.54773000  1
  O  O37  1  0.10830000  0.39280000  0.77129000  1
  O  O38  1  0.58670000  0.42930000  0.33609000  1
  O  O39  1  0.42290000  0.49160000  0.64626000  1
  O  O40  1  0.07710000  0.50840000  0.14626000  1
  O  O41  1  0.91330000  0.57070000  0.83609000  1
  O  O42  1  0.39170000  0.60720000  0.27129000  1
  O  O43  1  0.38220000  0.61330000  0.04773000  1
  O  O44  1  0.58150000  0.63060000  0.92848000  1
  O  O45  1  0.59860000  0.68720000  0.71260000  1
  O  O46  1  0.09860000  0.81280000  0.28740000  1
  O  O47  1  0.08150000  0.86940000  0.07152000  1
  O  O48  1  0.88220000  0.88670000  0.95227000  1
  O  O49  1  0.89170000  0.89280000  0.72871000  1
  O  O50  1  0.41330000  0.92930000  0.16391000  1
  O  O51  1  0.57710000  0.99160000  0.85374000  1
