# generated using pymatgen
data_In5H3C3(S4N)2
_symmetry_space_group_name_H-M   'P 1'
_cell_length_a   22.51210000
_cell_length_b   22.66100000
_cell_length_c   33.34090000
_cell_angle_alpha   90.00000000
_cell_angle_beta   90.00000000
_cell_angle_gamma   90.00000000
_symmetry_Int_Tables_number   1
_chemical_formula_structural   In5H3C3(S4N)2
_chemical_formula_sum   'In80 H48 C48 S128 N32'
_cell_volume   17008.75004668
_cell_formula_units_Z   16
loop_
 _symmetry_equiv_pos_site_id
 _symmetry_equiv_pos_as_xyz
  1  'x, y, z'
loop_
 _atom_site_type_symbol
 _atom_site_label
 _atom_site_symmetry_multiplicity
 _atom_site_fract_x
 _atom_site_fract_y
 _atom_site_fract_z
 _atom_site_occupancy
  In  In0  1  0.01599000  0.68988000  0.64313000  1
  In  In1  1  0.01599000  0.81012000  0.14313000  1
  In  In2  1  0.02379000  0.65883000  0.20801000  1
  In  In3  1  0.02379000  0.84117000  0.70801000  1
  In  In4  1  0.03172000  0.02362000  0.34507000  1
  In  In5  1  0.03172000  0.47638000  0.84507000  1
  In  In6  1  0.04184000  0.19850000  0.96103000  1
  In  In7  1  0.04184000  0.30150000  0.46103000  1
  In  In8  1  0.04437000  0.15772000  0.40710000  1
  In  In9  1  0.04437000  0.34228000  0.90710000  1
  In  In10  1  0.08639000  0.69898000  0.74450000  1
  In  In11  1  0.08639000  0.80102000  0.24450000  1
  In  In12  1  0.10794000  0.73307000  0.05146000  1
  In  In13  1  0.10794000  0.76693000  0.55146000  1
  In  In14  1  0.11473000  0.57841000  0.11719000  1
  In  In15  1  0.11473000  0.92159000  0.61719000  1
  In  In16  1  0.17794000  0.73196000  0.16467000  1
  In  In17  1  0.17794000  0.76804000  0.66467000  1
  In  In18  1  0.24730000  0.65495000  0.07749000  1
  In  In19  1  0.24730000  0.84505000  0.57749000  1
  In  In20  1  0.25270000  0.15495000  0.07749000  1
  In  In21  1  0.25270000  0.34505000  0.57749000  1
  In  In22  1  0.32206000  0.23196000  0.16467000  1
  In  In23  1  0.32206000  0.26804000  0.66467000  1
  In  In24  1  0.38527000  0.07841000  0.11719000  1
  In  In25  1  0.38527000  0.42159000  0.61719000  1
  In  In26  1  0.39206000  0.23307000  0.05146000  1
  In  In27  1  0.39206000  0.26693000  0.55146000  1
  In  In28  1  0.41361000  0.19898000  0.74450000  1
  In  In29  1  0.41361000  0.30102000  0.24450000  1
  In  In30  1  0.45563000  0.65772000  0.40710000  1
  In  In31  1  0.45563000  0.84228000  0.90710000  1
  In  In32  1  0.45816000  0.69850000  0.96103000  1
  In  In33  1  0.45816000  0.80150000  0.46103000  1
  In  In34  1  0.46828000  0.52362000  0.34507000  1
  In  In35  1  0.46828000  0.97638000  0.84507000  1
  In  In36  1  0.47621000  0.15883000  0.20801000  1
  In  In37  1  0.47621000  0.34117000  0.70801000  1
  In  In38  1  0.48401000  0.18988000  0.64313000  1
  In  In39  1  0.48401000  0.31012000  0.14313000  1
  In  In40  1  0.51599000  0.68988000  0.85687000  1
  In  In41  1  0.51599000  0.81012000  0.35687000  1
  In  In42  1  0.52379000  0.65883000  0.29199000  1
  In  In43  1  0.52379000  0.84117000  0.79199000  1
  In  In44  1  0.53172000  0.02362000  0.15493000  1
  In  In45  1  0.53172000  0.47638000  0.65493000  1
  In  In46  1  0.54184000  0.19850000  0.53897000  1
  In  In47  1  0.54184000  0.30150000  0.03897000  1
  In  In48  1  0.54437000  0.15772000  0.09290000  1
  In  In49  1  0.54437000  0.34228000  0.59290000  1
  In  In50  1  0.58639000  0.69898000  0.75550000  1
  In  In51  1  0.58639000  0.80102000  0.25550000  1
  In  In52  1  0.60794000  0.73307000  0.44854000  1
  In  In53  1  0.60794000  0.76693000  0.94854000  1
  In  In54  1  0.61473000  0.57841000  0.38281000  1
  In  In55  1  0.61473000  0.92159000  0.88281000  1
  In  In56  1  0.67794000  0.73196000  0.33533000  1
  In  In57  1  0.67794000  0.76804000  0.83533000  1
  In  In58  1  0.74730000  0.65495000  0.42251000  1
  In  In59  1  0.74730000  0.84505000  0.92251000  1
  In  In60  1  0.75270000  0.15495000  0.42251000  1
  In  In61  1  0.75270000  0.34505000  0.92251000  1
  In  In62  1  0.82206000  0.23196000  0.33533000  1
  In  In63  1  0.82206000  0.26804000  0.83533000  1
  In  In64  1  0.88527000  0.07841000  0.38281000  1
  In  In65  1  0.88527000  0.42159000  0.88281000  1
  In  In66  1  0.89206000  0.23307000  0.44854000  1
  In  In67  1  0.89206000  0.26693000  0.94854000  1
  In  In68  1  0.91361000  0.19898000  0.75550000  1
  In  In69  1  0.91361000  0.30102000  0.25550000  1
  In  In70  1  0.95563000  0.65772000  0.09290000  1
  In  In71  1  0.95563000  0.84228000  0.59290000  1
  In  In72  1  0.95816000  0.69850000  0.53897000  1
  In  In73  1  0.95816000  0.80150000  0.03897000  1
  In  In74  1  0.96828000  0.52362000  0.15493000  1
  In  In75  1  0.96828000  0.97638000  0.65493000  1
  In  In76  1  0.97621000  0.15883000  0.29199000  1
  In  In77  1  0.97621000  0.34117000  0.79199000  1
  In  In78  1  0.98401000  0.18988000  0.85687000  1
  In  In79  1  0.98401000  0.31012000  0.35687000  1
  H  H80  1  0.02080000  0.59460000  0.79200000  1
  H  H81  1  0.02080000  0.90540000  0.29200000  1
  H  H82  1  0.05060000  0.07380000  0.01910000  1
  H  H83  1  0.05060000  0.42620000  0.51910000  1
  H  H84  1  0.13290000  0.05930000  0.06860000  1
  H  H85  1  0.13290000  0.44070000  0.56860000  1
  H  H86  1  0.16000000  0.21000000  0.01620000  1
  H  H87  1  0.16000000  0.29000000  0.51620000  1
  H  H88  1  0.16360000  0.55410000  0.85250000  1
  H  H89  1  0.16360000  0.94590000  0.35250000  1
  H  H90  1  0.18300000  0.64570000  0.81510000  1
  H  H91  1  0.18300000  0.85430000  0.31510000  1
  H  H92  1  0.31700000  0.14570000  0.81510000  1
  H  H93  1  0.31700000  0.35430000  0.31510000  1
  H  H94  1  0.33640000  0.05410000  0.85250000  1
  H  H95  1  0.33640000  0.44590000  0.35250000  1
  H  H96  1  0.34000000  0.71000000  0.01620000  1
  H  H97  1  0.34000000  0.79000000  0.51620000  1
  H  H98  1  0.36710000  0.55930000  0.06860000  1
  H  H99  1  0.36710000  0.94070000  0.56860000  1
  H  H100  1  0.44940000  0.57380000  0.01910000  1
  H  H101  1  0.44940000  0.92620000  0.51910000  1
  H  H102  1  0.47920000  0.09460000  0.79200000  1
  H  H103  1  0.47920000  0.40540000  0.29200000  1
  H  H104  1  0.52080000  0.59460000  0.70800000  1
  H  H105  1  0.52080000  0.90540000  0.20800000  1
  H  H106  1  0.55060000  0.07380000  0.48090000  1
  H  H107  1  0.55060000  0.42620000  0.98090000  1
  H  H108  1  0.63290000  0.05930000  0.43140000  1
  H  H109  1  0.63290000  0.44070000  0.93140000  1
  H  H110  1  0.66000000  0.21000000  0.48380000  1
  H  H111  1  0.66000000  0.29000000  0.98380000  1
  H  H112  1  0.66360000  0.55410000  0.64750000  1
  H  H113  1  0.66360000  0.94590000  0.14750000  1
  H  H114  1  0.68300000  0.64570000  0.68490000  1
  H  H115  1  0.68300000  0.85430000  0.18490000  1
  H  H116  1  0.81700000  0.14570000  0.68490000  1
  H  H117  1  0.81700000  0.35430000  0.18490000  1
  H  H118  1  0.83640000  0.05410000  0.64750000  1
  H  H119  1  0.83640000  0.44590000  0.14750000  1
  H  H120  1  0.84000000  0.71000000  0.48380000  1
  H  H121  1  0.84000000  0.79000000  0.98380000  1
  H  H122  1  0.86710000  0.55930000  0.43140000  1
  H  H123  1  0.86710000  0.94070000  0.93140000  1
  H  H124  1  0.94940000  0.57380000  0.48090000  1
  H  H125  1  0.94940000  0.92620000  0.98090000  1
  H  H126  1  0.97920000  0.09460000  0.70800000  1
  H  H127  1  0.97920000  0.40540000  0.20800000  1
  C  C128  1  0.05930000  0.59650000  0.80360000  1
  C  C129  1  0.05930000  0.90350000  0.30360000  1
  C  C130  1  0.08290000  0.09970000  0.02410000  1
  C  C131  1  0.08290000  0.40030000  0.52410000  1
  C  C132  1  0.12900000  0.09210000  0.05100000  1
  C  C133  1  0.12900000  0.40790000  0.55100000  1
  C  C134  1  0.13580000  0.57430000  0.83610000  1
  C  C135  1  0.13580000  0.92570000  0.33610000  1
  C  C136  1  0.14370000  0.17270000  0.02290000  1
  C  C137  1  0.14370000  0.32730000  0.52290000  1
  C  C138  1  0.14670000  0.62420000  0.81520000  1
  C  C139  1  0.14670000  0.87580000  0.31520000  1
  C  C140  1  0.35330000  0.12420000  0.81520000  1
  C  C141  1  0.35330000  0.37580000  0.31520000  1
  C  C142  1  0.35630000  0.67270000  0.02290000  1
  C  C143  1  0.35630000  0.82730000  0.52290000  1
  C  C144  1  0.36420000  0.07430000  0.83610000  1
  C  C145  1  0.36420000  0.42570000  0.33610000  1
  C  C146  1  0.37100000  0.59210000  0.05100000  1
  C  C147  1  0.37100000  0.90790000  0.55100000  1
  C  C148  1  0.41710000  0.59970000  0.02410000  1
  C  C149  1  0.41710000  0.90030000  0.52410000  1
  C  C150  1  0.44070000  0.09650000  0.80360000  1
  C  C151  1  0.44070000  0.40350000  0.30360000  1
  C  C152  1  0.55930000  0.59650000  0.69640000  1
  C  C153  1  0.55930000  0.90350000  0.19640000  1
  C  C154  1  0.58290000  0.09970000  0.47590000  1
  C  C155  1  0.58290000  0.40030000  0.97590000  1
  C  C156  1  0.62900000  0.09210000  0.44900000  1
  C  C157  1  0.62900000  0.40790000  0.94900000  1
  C  C158  1  0.63580000  0.57430000  0.66390000  1
  C  C159  1  0.63580000  0.92570000  0.16390000  1
  C  C160  1  0.64370000  0.17270000  0.47710000  1
  C  C161  1  0.64370000  0.32730000  0.97710000  1
  C  C162  1  0.64670000  0.62420000  0.68480000  1
  C  C163  1  0.64670000  0.87580000  0.18480000  1
  C  C164  1  0.85330000  0.12420000  0.68480000  1
  C  C165  1  0.85330000  0.37580000  0.18480000  1
  C  C166  1  0.85630000  0.67270000  0.47710000  1
  C  C167  1  0.85630000  0.82730000  0.97710000  1
  C  C168  1  0.86420000  0.07430000  0.66390000  1
  C  C169  1  0.86420000  0.42570000  0.16390000  1
  C  C170  1  0.87100000  0.59210000  0.44900000  1
  C  C171  1  0.87100000  0.90790000  0.94900000  1
  C  C172  1  0.91710000  0.59970000  0.47590000  1
  C  C173  1  0.91710000  0.90030000  0.97590000  1
  C  C174  1  0.94070000  0.09650000  0.69640000  1
  C  C175  1  0.94070000  0.40350000  0.19640000  1
  S  S176  1  0.02320000  0.63540000  0.70465000  1
  S  S177  1  0.02320000  0.86460000  0.20465000  1
  S  S178  1  0.03050000  0.06950000  0.27939000  1
  S  S179  1  0.03050000  0.43050000  0.77939000  1
  S  S180  1  0.03558000  0.21470000  0.34316000  1
  S  S181  1  0.03558000  0.28530000  0.84316000  1
  S  S182  1  0.03580000  0.71370000  0.26957000  1
  S  S183  1  0.03580000  0.78630000  0.76957000  1
  S  S184  1  0.04180000  0.13260000  0.90371000  1
  S  S185  1  0.04180000  0.36740000  0.40371000  1
  S  S186  1  0.05120000  0.71020000  0.50387000  1
  S  S187  1  0.05120000  0.78980000  0.00387000  1
  S  S188  1  0.05716000  0.63689000  0.06634000  1
  S  S189  1  0.05716000  0.86311000  0.56634000  1
  S  S190  1  0.06450000  0.01300000  0.63277000  1
  S  S191  1  0.06450000  0.48700000  0.13277000  1
  S  S192  1  0.09550000  0.06600000  0.39586000  1
  S  S193  1  0.09550000  0.43400000  0.89586000  1
  S  S194  1  0.10270000  0.21410000  0.45404000  1
  S  S195  1  0.10270000  0.28590000  0.95404000  1
  S  S196  1  0.11752000  0.70967000  0.61549000  1
  S  S197  1  0.11752000  0.79033000  0.11549000  1
  S  S198  1  0.12550000  0.63698000  0.18030000  1
  S  S199  1  0.12550000  0.86302000  0.68030000  1
  S  S200  1  0.18898000  0.71130000  0.72533000  1
  S  S201  1  0.18898000  0.78870000  0.22533000  1
  S  S202  1  0.20500000  0.71440000  0.02459000  1
  S  S203  1  0.20500000  0.78560000  0.52459000  1
  S  S204  1  0.21020000  0.55650000  0.08866000  1
  S  S205  1  0.21020000  0.94350000  0.58866000  1
  S  S206  1  0.22553000  0.20970000  0.13748000  1
  S  S207  1  0.22553000  0.29030000  0.63748000  1
  S  S208  1  0.27447000  0.70970000  0.13748000  1
  S  S209  1  0.27447000  0.79030000  0.63748000  1
  S  S210  1  0.28980000  0.05650000  0.08866000  1
  S  S211  1  0.28980000  0.44350000  0.58866000  1
  S  S212  1  0.29500000  0.21440000  0.02459000  1
  S  S213  1  0.29500000  0.28560000  0.52459000  1
  S  S214  1  0.31102000  0.21130000  0.72533000  1
  S  S215  1  0.31102000  0.28870000  0.22533000  1
  S  S216  1  0.37450000  0.13698000  0.18030000  1
  S  S217  1  0.37450000  0.36302000  0.68030000  1
  S  S218  1  0.38248000  0.20967000  0.61549000  1
  S  S219  1  0.38248000  0.29033000  0.11549000  1
  S  S220  1  0.39730000  0.71410000  0.45404000  1
  S  S221  1  0.39730000  0.78590000  0.95404000  1
  S  S222  1  0.40450000  0.56600000  0.39586000  1
  S  S223  1  0.40450000  0.93400000  0.89586000  1
  S  S224  1  0.43550000  0.51300000  0.63277000  1
  S  S225  1  0.43550000  0.98700000  0.13277000  1
  S  S226  1  0.44284000  0.13689000  0.06634000  1
  S  S227  1  0.44284000  0.36311000  0.56634000  1
  S  S228  1  0.44880000  0.21020000  0.50387000  1
  S  S229  1  0.44880000  0.28980000  0.00387000  1
  S  S230  1  0.45820000  0.63260000  0.90371000  1
  S  S231  1  0.45820000  0.86740000  0.40371000  1
  S  S232  1  0.46420000  0.21370000  0.26957000  1
  S  S233  1  0.46420000  0.28630000  0.76957000  1
  S  S234  1  0.46442000  0.71470000  0.34316000  1
  S  S235  1  0.46442000  0.78530000  0.84316000  1
  S  S236  1  0.46950000  0.56950000  0.27939000  1
  S  S237  1  0.46950000  0.93050000  0.77939000  1
  S  S238  1  0.47680000  0.13540000  0.70465000  1
  S  S239  1  0.47680000  0.36460000  0.20465000  1
  S  S240  1  0.52320000  0.63540000  0.79535000  1
  S  S241  1  0.52320000  0.86460000  0.29535000  1
  S  S242  1  0.53050000  0.06950000  0.22061000  1
  S  S243  1  0.53050000  0.43050000  0.72061000  1
  S  S244  1  0.53558000  0.21470000  0.15684000  1
  S  S245  1  0.53558000  0.28530000  0.65684000  1
  S  S246  1  0.53580000  0.71370000  0.23043000  1
  S  S247  1  0.53580000  0.78630000  0.73043000  1
  S  S248  1  0.54180000  0.13260000  0.59629000  1
  S  S249  1  0.54180000  0.36740000  0.09629000  1
  S  S250  1  0.55120000  0.71020000  0.99613000  1
  S  S251  1  0.55120000  0.78980000  0.49613000  1
  S  S252  1  0.55716000  0.63689000  0.43366000  1
  S  S253  1  0.55716000  0.86311000  0.93366000  1
  S  S254  1  0.56450000  0.01300000  0.86723000  1
  S  S255  1  0.56450000  0.48700000  0.36723000  1
  S  S256  1  0.59550000  0.06600000  0.10414000  1
  S  S257  1  0.59550000  0.43400000  0.60414000  1
  S  S258  1  0.60270000  0.21410000  0.04596000  1
  S  S259  1  0.60270000  0.28590000  0.54596000  1
  S  S260  1  0.61752000  0.70967000  0.88451000  1
  S  S261  1  0.61752000  0.79033000  0.38451000  1
  S  S262  1  0.62550000  0.63698000  0.31970000  1
  S  S263  1  0.62550000  0.86302000  0.81970000  1
  S  S264  1  0.68898000  0.71130000  0.77467000  1
  S  S265  1  0.68898000  0.78870000  0.27467000  1
  S  S266  1  0.70500000  0.71440000  0.47541000  1
  S  S267  1  0.70500000  0.78560000  0.97541000  1
  S  S268  1  0.71020000  0.55650000  0.41134000  1
  S  S269  1  0.71020000  0.94350000  0.91134000  1
  S  S270  1  0.72553000  0.20970000  0.36252000  1
  S  S271  1  0.72553000  0.29030000  0.86252000  1
  S  S272  1  0.77447000  0.70970000  0.36252000  1
  S  S273  1  0.77447000  0.79030000  0.86252000  1
  S  S274  1  0.78980000  0.05650000  0.41134000  1
  S  S275  1  0.78980000  0.44350000  0.91134000  1
  S  S276  1  0.79500000  0.21440000  0.47541000  1
  S  S277  1  0.79500000  0.28560000  0.97541000  1
  S  S278  1  0.81102000  0.21130000  0.77467000  1
  S  S279  1  0.81102000  0.28870000  0.27467000  1
  S  S280  1  0.87450000  0.13698000  0.31970000  1
  S  S281  1  0.87450000  0.36302000  0.81970000  1
  S  S282  1  0.88248000  0.20967000  0.88451000  1
  S  S283  1  0.88248000  0.29033000  0.38451000  1
  S  S284  1  0.89730000  0.71410000  0.04596000  1
  S  S285  1  0.89730000  0.78590000  0.54596000  1
  S  S286  1  0.90450000  0.56600000  0.10414000  1
  S  S287  1  0.90450000  0.93400000  0.60414000  1
  S  S288  1  0.93550000  0.51300000  0.86723000  1
  S  S289  1  0.93550000  0.98700000  0.36723000  1
  S  S290  1  0.94284000  0.13689000  0.43366000  1
  S  S291  1  0.94284000  0.36311000  0.93366000  1
  S  S292  1  0.94880000  0.21020000  0.99613000  1
  S  S293  1  0.94880000  0.28980000  0.49613000  1
  S  S294  1  0.95820000  0.63260000  0.59629000  1
  S  S295  1  0.95820000  0.86740000  0.09629000  1
  S  S296  1  0.96420000  0.21370000  0.23043000  1
  S  S297  1  0.96420000  0.28630000  0.73043000  1
  S  S298  1  0.96442000  0.71470000  0.15684000  1
  S  S299  1  0.96442000  0.78530000  0.65684000  1
  S  S300  1  0.96950000  0.56950000  0.22061000  1
  S  S301  1  0.96950000  0.93050000  0.72061000  1
  S  S302  1  0.97680000  0.13540000  0.79535000  1
  S  S303  1  0.97680000  0.36460000  0.29535000  1
  N  N304  1  0.07870000  0.55770000  0.82970000  1
  N  N305  1  0.07870000  0.94230000  0.32970000  1
  N  N306  1  0.09390000  0.15250000  0.00630000  1
  N  N307  1  0.09390000  0.34750000  0.50630000  1
  N  N308  1  0.09790000  0.63830000  0.79480000  1
  N  N309  1  0.09790000  0.86170000  0.29480000  1
  N  N310  1  0.16830000  0.13790000  0.04880000  1
  N  N311  1  0.16830000  0.36210000  0.54880000  1
  N  N312  1  0.33170000  0.63790000  0.04880000  1
  N  N313  1  0.33170000  0.86210000  0.54880000  1
  N  N314  1  0.40210000  0.13830000  0.79480000  1
  N  N315  1  0.40210000  0.36170000  0.29480000  1
  N  N316  1  0.40610000  0.65250000  0.00630000  1
  N  N317  1  0.40610000  0.84750000  0.50630000  1
  N  N318  1  0.42130000  0.05770000  0.82970000  1
  N  N319  1  0.42130000  0.44230000  0.32970000  1
  N  N320  1  0.57870000  0.55770000  0.67030000  1
  N  N321  1  0.57870000  0.94230000  0.17030000  1
  N  N322  1  0.59390000  0.15250000  0.49370000  1
  N  N323  1  0.59390000  0.34750000  0.99370000  1
  N  N324  1  0.59790000  0.63830000  0.70520000  1
  N  N325  1  0.59790000  0.86170000  0.20520000  1
  N  N326  1  0.66830000  0.13790000  0.45120000  1
  N  N327  1  0.66830000  0.36210000  0.95120000  1
  N  N328  1  0.83170000  0.63790000  0.45120000  1
  N  N329  1  0.83170000  0.86210000  0.95120000  1
  N  N330  1  0.90210000  0.13830000  0.70520000  1
  N  N331  1  0.90210000  0.36170000  0.20520000  1
  N  N332  1  0.90610000  0.65250000  0.49370000  1
  N  N333  1  0.90610000  0.84750000  0.99370000  1
  N  N334  1  0.92130000  0.05770000  0.67030000  1
  N  N335  1  0.92130000  0.44230000  0.17030000  1
