# generated using pymatgen
data_LaH20C25N5Cl3
_symmetry_space_group_name_H-M   'P 1'
_cell_length_a   13.44700000
_cell_length_b   13.71500000
_cell_length_c   14.30100000
_cell_angle_alpha   79.48000000
_cell_angle_beta   63.90000000
_cell_angle_gamma   65.68000000
_symmetry_Int_Tables_number   1
_chemical_formula_structural   LaH20C25N5Cl3
_chemical_formula_sum   'La2 H40 C50 N10 Cl6'
_cell_volume   2158.33457492
_cell_formula_units_Z   2
loop_
 _symmetry_equiv_pos_site_id
 _symmetry_equiv_pos_as_xyz
  1  'x, y, z'
loop_
 _atom_site_type_symbol
 _atom_site_label
 _atom_site_symmetry_multiplicity
 _atom_site_fract_x
 _atom_site_fract_y
 _atom_site_fract_z
 _atom_site_occupancy
  La  La0  1  0.47581000  0.08046000  0.34187000  1
  La  La1  1  0.52419000  0.91954000  0.65813000  1
  H  H2  1  0.02070000  0.12390000  0.87150000  1
  H  H3  1  0.02900000  0.41380000  0.36490000  1
  H  H4  1  0.07670000  0.96470000  0.61910000  1
  H  H5  1  0.09030000  0.03850000  0.33080000  1
  H  H6  1  0.12510000  0.45240000  0.58050000  1
  H  H7  1  0.15220000  0.86560000  0.03060000  1
  H  H8  1  0.20200000  0.26500000  0.30670000  1
  H  H9  1  0.21400000  0.10430000  0.76160000  1
  H  H10  1  0.25980000  0.97880000  0.56180000  1
  H  H11  1  0.27050000  0.05210000  0.28280000  1
  H  H12  1  0.29350000  0.30140000  0.51810000  1
  H  H13  1  0.34140000  0.84900000  0.91130000  1
  H  H14  1  0.36180000  0.50240000  0.08650000  1
  H  H15  1  0.37460000  0.64840000  0.82240000  1
  H  H16  1  0.40620000  0.49540000  0.75060000  1
  H  H17  1  0.40710000  0.34130000  0.02100000  1
  H  H18  1  0.42110000  0.20450000  0.96170000  1
  H  H19  1  0.44720000  0.05360000  0.89160000  1
  H  H20  1  0.46610000  0.34860000  0.68200000  1
  H  H21  1  0.49870000  0.80840000  0.38420000  1
  H  H22  1  0.50130000  0.19160000  0.61580000  1
  H  H23  1  0.53390000  0.65140000  0.31800000  1
  H  H24  1  0.55280000  0.94640000  0.10840000  1
  H  H25  1  0.57890000  0.79550000  0.03830000  1
  H  H26  1  0.59290000  0.65870000  0.97900000  1
  H  H27  1  0.59380000  0.50460000  0.24940000  1
  H  H28  1  0.62540000  0.35160000  0.17760000  1
  H  H29  1  0.63820000  0.49760000  0.91350000  1
  H  H30  1  0.65860000  0.15100000  0.08870000  1
  H  H31  1  0.70650000  0.69860000  0.48190000  1
  H  H32  1  0.72950000  0.94790000  0.71720000  1
  H  H33  1  0.74020000  0.02120000  0.43820000  1
  H  H34  1  0.78600000  0.89570000  0.23840000  1
  H  H35  1  0.79800000  0.73500000  0.69330000  1
  H  H36  1  0.84780000  0.13440000  0.96940000  1
  H  H37  1  0.87490000  0.54760000  0.41950000  1
  H  H38  1  0.90970000  0.96150000  0.66920000  1
  H  H39  1  0.92330000  0.03530000  0.38090000  1
  H  H40  1  0.97100000  0.58620000  0.63510000  1
  H  H41  1  0.97930000  0.87610000  0.12850000  1
  C  C42  1  0.05560000  0.45070000  0.48020000  1
  C  C43  1  0.05930000  0.00320000  0.48260000  1
  C  C44  1  0.06260000  0.99510000  0.96370000  1
  C  C45  1  0.08220000  0.39250000  0.39820000  1
  C  C46  1  0.08510000  0.06630000  0.88190000  1
  C  C47  1  0.11410000  0.98430000  0.54880000  1
  C  C48  1  0.12190000  0.02740000  0.38140000  1
  C  C49  1  0.13820000  0.41470000  0.52400000  1
  C  C50  1  0.16210000  0.91470000  0.97420000  1
  C  C51  1  0.18610000  0.30310000  0.36400000  1
  C  C52  1  0.20150000  0.05310000  0.81560000  1
  C  C53  1  0.22380000  0.99350000  0.51400000  1
  C  C54  1  0.23000000  0.03550000  0.35340000  1
  C  C55  1  0.23910000  0.32420000  0.48570000  1
  C  C56  1  0.27530000  0.90600000  0.90290000  1
  C  C57  1  0.37340000  0.50040000  0.01630000  1
  C  C58  1  0.37870000  0.58570000  0.86420000  1
  C  C59  1  0.39880000  0.40350000  0.97840000  1
  C  C60  1  0.39990000  0.49370000  0.81960000  1
  C  C61  1  0.41210000  0.39780000  0.87700000  1
  C  C62  1  0.43510000  0.20470000  0.89050000  1
  C  C63  1  0.43760000  0.29680000  0.83120000  1
  C  C64  1  0.45280000  0.11380000  0.84760000  1
  C  C65  1  0.46270000  0.28860000  0.72680000  1
  C  C66  1  0.48280000  0.19440000  0.68770000  1
  C  C67  1  0.51720000  0.80560000  0.31230000  1
  C  C68  1  0.53730000  0.71140000  0.27320000  1
  C  C69  1  0.54720000  0.88620000  0.15240000  1
  C  C70  1  0.56240000  0.70320000  0.16880000  1
  C  C71  1  0.56490000  0.79530000  0.10950000  1
  C  C72  1  0.58790000  0.60220000  0.12300000  1
  C  C73  1  0.60010000  0.50630000  0.18040000  1
  C  C74  1  0.60120000  0.59650000  0.02160000  1
  C  C75  1  0.62130000  0.41430000  0.13580000  1
  C  C76  1  0.62660000  0.49960000  0.98370000  1
  C  C77  1  0.72470000  0.09400000  0.09710000  1
  C  C78  1  0.76090000  0.67580000  0.51430000  1
  C  C79  1  0.77000000  0.96450000  0.64660000  1
  C  C80  1  0.77620000  0.00650000  0.48600000  1
  C  C81  1  0.79850000  0.94690000  0.18440000  1
  C  C82  1  0.81390000  0.69690000  0.63600000  1
  C  C83  1  0.83790000  0.08530000  0.02580000  1
  C  C84  1  0.86180000  0.58530000  0.47600000  1
  C  C85  1  0.87810000  0.97260000  0.61860000  1
  C  C86  1  0.88590000  0.01570000  0.45120000  1
  C  C87  1  0.91490000  0.93370000  0.11810000  1
  C  C88  1  0.91780000  0.60750000  0.60180000  1
  C  C89  1  0.93740000  0.00490000  0.03630000  1
  C  C90  1  0.94070000  0.99680000  0.51740000  1
  C  C91  1  0.94440000  0.54930000  0.51980000  1
  N  N92  1  0.26630000  0.26630000  0.40650000  1
  N  N93  1  0.28160000  0.02190000  0.41710000  1
  N  N94  1  0.29800000  0.97300000  0.82220000  1
  N  N95  1  0.36360000  0.59250000  0.96160000  1
  N  N96  1  0.47750000  0.10540000  0.74630000  1
  N  N97  1  0.52250000  0.89460000  0.25370000  1
  N  N98  1  0.63640000  0.40750000  0.03840000  1
  N  N99  1  0.70200000  0.02700000  0.17780000  1
  N  N100  1  0.71840000  0.97810000  0.58290000  1
  N  N101  1  0.73370000  0.73370000  0.59350000  1
  Cl  Cl102  1  0.37762000  0.09439000  0.57166000  1
  Cl  Cl103  1  0.42544000  0.15895000  0.16576000  1
  Cl  Cl104  1  0.42770000  0.78323000  0.64303000  1
  Cl  Cl105  1  0.57230000  0.21677000  0.35697000  1
  Cl  Cl106  1  0.57456000  0.84105000  0.83424000  1
  Cl  Cl107  1  0.62238000  0.90561000  0.42834000  1
