# generated using pymatgen
data_Cu5H18(C8O5)4
_symmetry_space_group_name_H-M   'P 1'
_cell_length_a   10.76430000
_cell_length_b   11.19030000
_cell_length_c   11.88050000
_cell_angle_alpha   101.00600000
_cell_angle_beta   110.54900000
_cell_angle_gamma   99.77900000
_symmetry_Int_Tables_number   1
_chemical_formula_structural   Cu5H18(C8O5)4
_chemical_formula_sum   'Cu5 H18 C32 O20'
_cell_volume   1270.94706631
_cell_formula_units_Z   1
loop_
 _symmetry_equiv_pos_site_id
 _symmetry_equiv_pos_as_xyz
  1  'x, y, z'
loop_
 _atom_site_type_symbol
 _atom_site_label
 _atom_site_symmetry_multiplicity
 _atom_site_fract_x
 _atom_site_fract_y
 _atom_site_fract_z
 _atom_site_occupancy
  Cu  Cu0  1  0.35596000  0.48930000  0.98801000  1
  Cu  Cu1  1  0.43782000  0.61423000  0.78952000  1
  Cu  Cu2  1  0.50000000  0.00000000  0.00000000  1
  Cu  Cu3  1  0.56218000  0.38577000  0.21048000  1
  Cu  Cu4  1  0.64404000  0.51070000  0.01199000  1
  H  H5  1  0.02520000  0.41130000  0.09960000  1
  H  H6  1  0.10900000  0.88360000  0.40280000  1
  H  H7  1  0.14800000  0.82680000  0.74950000  1
  H  H8  1  0.16730000  0.25940000  0.49390000  1
  H  H9  1  0.22940000  0.17930000  0.25970000  1
  H  H10  1  0.24940000  0.89620000  0.60390000  1
  H  H11  1  0.29360000  0.55990000  0.94960000  1
  H  H12  1  0.43110000  0.42980000  0.02690000  1
  H  H13  1  0.47710000  0.32740000  0.99190000  1
  H  H14  1  0.52290000  0.67260000  0.00810000  1
  H  H15  1  0.56890000  0.57020000  0.97310000  1
  H  H16  1  0.70640000  0.44010000  0.05040000  1
  H  H17  1  0.75060000  0.10380000  0.39610000  1
  H  H18  1  0.77060000  0.82070000  0.74030000  1
  H  H19  1  0.83270000  0.74060000  0.50610000  1
  H  H20  1  0.85200000  0.17320000  0.25050000  1
  H  H21  1  0.89100000  0.11640000  0.59720000  1
  H  H22  1  0.97480000  0.58870000  0.90040000  1
  C  C23  1  0.02970000  0.34960000  0.14230000  1
  C  C24  1  0.03940000  0.16110000  0.25980000  1
  C  C25  1  0.07530000  0.79400000  0.76920000  1
  C  C26  1  0.08090000  0.69740000  0.82930000  1
  C  C27  1  0.12580000  0.07100000  0.43010000  1
  C  C28  1  0.14590000  0.30510000  0.17720000  1
  C  C29  1  0.14940000  0.96140000  0.46200000  1
  C  C30  1  0.15170000  0.20980000  0.23630000  1
  C  C31  1  0.18370000  0.18670000  0.51680000  1
  C  C32  1  0.20170000  0.64290000  0.85700000  1
  C  C33  1  0.23340000  0.96950000  0.58240000  1
  C  C34  1  0.26630000  0.35840000  0.14890000  1
  C  C35  1  0.26750000  0.19410000  0.63950000  1
  C  C36  1  0.29520000  0.08510000  0.67320000  1
  C  C37  1  0.31620000  0.32370000  0.73190000  1
  C  C38  1  0.39010000  0.08930000  0.80180000  1
  C  C39  1  0.60990000  0.91070000  0.19820000  1
  C  C40  1  0.68380000  0.67630000  0.26810000  1
  C  C41  1  0.70480000  0.91490000  0.32680000  1
  C  C42  1  0.73250000  0.80590000  0.36050000  1
  C  C43  1  0.73370000  0.64160000  0.85110000  1
  C  C44  1  0.76660000  0.03050000  0.41760000  1
  C  C45  1  0.79830000  0.35710000  0.14300000  1
  C  C46  1  0.81630000  0.81330000  0.48320000  1
  C  C47  1  0.84830000  0.79020000  0.76370000  1
  C  C48  1  0.85060000  0.03860000  0.53800000  1
  C  C49  1  0.85410000  0.69490000  0.82280000  1
  C  C50  1  0.87420000  0.92900000  0.56990000  1
  C  C51  1  0.91910000  0.30260000  0.17070000  1
  C  C52  1  0.92470000  0.20600000  0.23080000  1
  C  C53  1  0.96060000  0.83890000  0.74020000  1
  C  C54  1  0.97030000  0.65040000  0.85770000  1
  O  O55  1  0.03770000  0.05550000  0.30850000  1
  O  O56  1  0.22280000  0.58710000  0.94140000  1
  O  O57  1  0.24560000  0.42330000  0.07260000  1
  O  O58  1  0.26260000  0.33860000  0.81000000  1
  O  O59  1  0.27050000  0.65670000  0.79220000  1
  O  O60  1  0.37630000  0.33260000  0.20470000  1
  O  O61  1  0.38370000  0.98480000  0.82970000  1
  O  O62  1  0.39660000  0.40840000  0.71640000  1
  O  O63  1  0.47320000  0.19030000  0.87470000  1
  O  O64  1  0.49880000  0.59970000  0.95790000  1
  O  O65  1  0.50120000  0.40030000  0.04210000  1
  O  O66  1  0.52680000  0.80970000  0.12530000  1
  O  O67  1  0.60340000  0.59160000  0.28360000  1
  O  O68  1  0.61630000  0.01520000  0.17030000  1
  O  O69  1  0.62370000  0.66740000  0.79530000  1
  O  O70  1  0.72950000  0.34330000  0.20780000  1
  O  O71  1  0.73740000  0.66140000  0.19000000  1
  O  O72  1  0.75440000  0.57670000  0.92740000  1
  O  O73  1  0.77720000  0.41290000  0.05860000  1
  O  O74  1  0.96230000  0.94450000  0.69150000  1
