# generated using pymatgen
data_Zn2H33C34(N4O5)2
_symmetry_space_group_name_H-M   'P 1'
_cell_length_a   10.48190000
_cell_length_b   12.42390000
_cell_length_c   19.80430000
_cell_angle_alpha   75.22850000
_cell_angle_beta   81.27670000
_cell_angle_gamma   82.93640000
_symmetry_Int_Tables_number   1
_chemical_formula_structural   Zn2H33C34(N4O5)2
_chemical_formula_sum   'Zn4 H66 C68 N16 O20'
_cell_volume   2455.34513087
_cell_formula_units_Z   2
loop_
 _symmetry_equiv_pos_site_id
 _symmetry_equiv_pos_as_xyz
  1  'x, y, z'
loop_
 _atom_site_type_symbol
 _atom_site_label
 _atom_site_symmetry_multiplicity
 _atom_site_fract_x
 _atom_site_fract_y
 _atom_site_fract_z
 _atom_site_occupancy
  Zn  Zn0  1  0.31217000  0.86935000  0.15284000  1
  Zn  Zn1  1  0.35968000  0.88580000  0.66933000  1
  Zn  Zn2  1  0.64032000  0.11420000  0.33067000  1
  Zn  Zn3  1  0.68783000  0.13065000  0.84716000  1
  H  H4  1  0.02450000  0.93660000  0.94860000  1
  H  H5  1  0.03730000  0.11060000  0.70230000  1
  H  H6  1  0.05660000  0.94680000  0.06190000  1
  H  H7  1  0.10190000  0.07580000  0.17360000  1
  H  H8  1  0.10270000  0.60270000  0.87700000  1
  H  H9  1  0.11020000  0.11890000  0.82760000  1
  H  H10  1  0.11550000  0.26910000  0.10260000  1
  H  H11  1  0.12660000  0.14180000  0.93870000  1
  H  H12  1  0.13470000  0.58950000  0.38580000  1
  H  H13  1  0.13540000  0.76630000  0.62990000  1
  H  H14  1  0.14330000  0.71760000  0.51840000  1
  H  H15  1  0.15790000  0.63020000  0.06830000  1
  H  H16  1  0.18110000  0.99820000  0.84600000  1
  H  H17  1  0.20910000  0.02630000  0.95710000  1
  H  H18  1  0.22040000  0.30730000  0.53100000  1
  H  H19  1  0.26490000  0.34910000  0.97350000  1
  H  H20  1  0.27970000  0.23020000  0.73320000  1
  H  H21  1  0.32540000  0.58860000  0.44780000  1
  H  H22  1  0.32750000  0.77540000  0.39190000  1
  H  H23  1  0.33070000  0.40480000  0.06490000  1
  H  H24  1  0.33470000  0.82650000  0.89440000  1
  H  H25  1  0.39750000  0.27780000  0.96290000  1
  H  H26  1  0.40570000  0.51500000  0.95360000  1
  H  H27  1  0.40880000  0.07850000  0.03250000  1
  H  H28  1  0.41580000  0.03580000  0.90170000  1
  H  H29  1  0.42700000  0.40770000  0.51570000  1
  H  H30  1  0.44770000  0.57830000  0.53880000  1
  H  H31  1  0.45090000  0.60430000  0.39360000  1
  H  H32  1  0.45790000  0.32410000  0.06300000  1
  H  H33  1  0.46630000  0.77880000  0.41150000  1
  H  H34  1  0.46790000  0.56640000  0.04950000  1
  H  H35  1  0.46880000  0.84700000  0.51920000  1
  H  H36  1  0.49450000  0.73620000  0.26960000  1
  H  H37  1  0.50550000  0.26380000  0.73040000  1
  H  H38  1  0.53120000  0.15300000  0.48080000  1
  H  H39  1  0.53210000  0.43360000  0.95050000  1
  H  H40  1  0.53370000  0.22120000  0.58850000  1
  H  H41  1  0.54210000  0.67590000  0.93700000  1
  H  H42  1  0.54910000  0.39570000  0.60640000  1
  H  H43  1  0.55230000  0.42170000  0.46120000  1
  H  H44  1  0.57300000  0.59230000  0.48430000  1
  H  H45  1  0.58420000  0.96420000  0.09830000  1
  H  H46  1  0.59120000  0.92150000  0.96750000  1
  H  H47  1  0.59430000  0.48500000  0.04640000  1
  H  H48  1  0.60250000  0.72220000  0.03710000  1
  H  H49  1  0.66530000  0.17350000  0.10560000  1
  H  H50  1  0.66930000  0.59520000  0.93510000  1
  H  H51  1  0.67250000  0.22460000  0.60810000  1
  H  H52  1  0.67460000  0.41140000  0.55220000  1
  H  H53  1  0.72030000  0.76980000  0.26680000  1
  H  H54  1  0.73510000  0.65090000  0.02650000  1
  H  H55  1  0.77960000  0.69270000  0.46900000  1
  H  H56  1  0.79090000  0.97370000  0.04290000  1
  H  H57  1  0.81890000  0.00180000  0.15400000  1
  H  H58  1  0.84210000  0.36980000  0.93170000  1
  H  H59  1  0.85670000  0.28240000  0.48160000  1
  H  H60  1  0.86460000  0.23370000  0.37010000  1
  H  H61  1  0.86530000  0.41050000  0.61420000  1
  H  H62  1  0.87340000  0.85820000  0.06130000  1
  H  H63  1  0.88450000  0.73090000  0.89740000  1
  H  H64  1  0.88980000  0.88110000  0.17240000  1
  H  H65  1  0.89730000  0.39730000  0.12300000  1
  H  H66  1  0.89810000  0.92420000  0.82640000  1
  H  H67  1  0.94340000  0.05320000  0.93810000  1
  H  H68  1  0.96270000  0.88940000  0.29770000  1
  H  H69  1  0.97550000  0.06340000  0.05140000  1
  C  C70  1  0.01520000  0.00860000  0.96030000  1
  C  C71  1  0.03900000  0.17710000  0.66760000  1
  C  C72  1  0.04240000  0.37400000  0.56420000  1
  C  C73  1  0.06470000  0.64350000  0.38510000  1
  C  C74  1  0.06590000  0.74300000  0.33306000  1
  C  C75  1  0.11840000  0.60220000  0.97770000  1
  C  C76  1  0.13910000  0.06670000  0.93150000  1
  C  C77  1  0.14110000  0.63620000  0.90490000  1
  C  C78  1  0.14680000  0.19520000  0.61700000  1
  C  C79  1  0.14870000  0.29420000  0.56510000  1
  C  C80  1  0.16540000  0.10020000  0.13640000  1
  C  C81  1  0.17250000  0.20740000  0.09730000  1
  C  C82  1  0.17360000  0.65340000  0.01960000  1
  C  C83  1  0.17640000  0.07250000  0.85390000  1
  C  C84  1  0.18140000  0.76050000  0.27753000  1
  C  C85  1  0.20370000  0.77610000  0.59360000  1
  C  C86  1  0.20800000  0.74860000  0.53270000  1
  C  C87  1  0.22270000  0.72180000  0.87360000  1
  C  C88  1  0.24580000  0.76210000  0.79350000  1
  C  C89  1  0.25260000  0.73970000  0.98815000  1
  C  C90  1  0.26010000  0.10840000  0.61840000  1
  C  C91  1  0.27880000  0.77130000  0.91531000  1
  C  C92  1  0.30740000  0.79940000  0.03311000  1
  C  C93  1  0.33370000  0.19630000  0.76730000  1
  C  C94  1  0.33380000  0.30320000  0.99770000  1
  C  C95  1  0.33410000  0.10130000  0.05900000  1
  C  C96  1  0.38490000  0.74530000  0.42760000  1
  C  C97  1  0.38760000  0.82010000  0.53320000  1
  C  C98  1  0.39670000  0.37240000  0.03410000  1
  C  C99  1  0.40850000  0.62000000  0.43760000  1
  C  C100  1  0.40970000  0.09010000  0.85990000  1
  C  C101  1  0.45870000  0.21410000  0.76590000  1
  C  C102  1  0.46730000  0.46590000  0.98190000  1
  C  C103  1  0.48940000  0.56190000  0.49490000  1
  C  C104  1  0.51060000  0.43810000  0.50510000  1
  C  C105  1  0.53270000  0.53410000  0.01810000  1
  C  C106  1  0.54130000  0.78590000  0.23410000  1
  C  C107  1  0.59030000  0.90990000  0.14010000  1
  C  C108  1  0.59150000  0.38000000  0.56240000  1
  C  C109  1  0.60330000  0.62760000  0.96590000  1
  C  C110  1  0.61240000  0.17990000  0.46680000  1
  C  C111  1  0.61510000  0.25470000  0.57240000  1
  C  C112  1  0.66590000  0.89870000  0.94100000  1
  C  C113  1  0.66620000  0.69680000  0.00230000  1
  C  C114  1  0.66630000  0.80370000  0.23270000  1
  C  C115  1  0.69260000  0.20060000  0.96689000  1
  C  C116  1  0.72120000  0.22870000  0.08469000  1
  C  C117  1  0.73990000  0.89160000  0.38160000  1
  C  C118  1  0.74740000  0.26030000  0.01185000  1
  C  C119  1  0.75420000  0.23790000  0.20650000  1
  C  C120  1  0.77730000  0.27820000  0.12640000  1
  C  C121  1  0.79200000  0.25140000  0.46730000  1
  C  C122  1  0.79630000  0.22390000  0.40640000  1
  C  C123  1  0.81860000  0.23950000  0.72247000  1
  C  C124  1  0.82360000  0.92750000  0.14610000  1
  C  C125  1  0.82640000  0.34660000  0.98040000  1
  C  C126  1  0.82750000  0.79260000  0.90270000  1
  C  C127  1  0.83460000  0.89980000  0.86360000  1
  C  C128  1  0.85130000  0.70580000  0.43490000  1
  C  C129  1  0.85320000  0.80480000  0.38300000  1
  C  C130  1  0.85890000  0.36380000  0.09510000  1
  C  C131  1  0.86090000  0.93330000  0.06850000  1
  C  C132  1  0.88160000  0.39780000  0.02230000  1
  C  C133  1  0.93410000  0.25700000  0.66694000  1
  C  C134  1  0.93530000  0.35650000  0.61490000  1
  C  C135  1  0.95760000  0.62600000  0.43580000  1
  C  C136  1  0.96100000  0.82290000  0.33240000  1
  C  C137  1  0.98480000  0.99140000  0.03970000  1
  N  N138  1  0.04330000  0.51110000  0.01500000  1
  N  N139  1  0.05210000  0.47590000  0.51040000  1
  N  N140  1  0.26800000  0.03360000  0.11163000  1
  N  N141  1  0.28030000  0.20590000  0.04870000  1
  N  N142  1  0.30220000  0.11910000  0.82822000  1
  N  N143  1  0.31680000  0.82140000  0.59439000  1
  N  N144  1  0.32590000  0.77450000  0.49460000  1
  N  N145  1  0.49440000  0.85190000  0.17547000  1
  N  N146  1  0.50560000  0.14810000  0.82453000  1
  N  N147  1  0.67410000  0.22550000  0.50540000  1
  N  N148  1  0.68320000  0.17860000  0.40561000  1
  N  N149  1  0.69780000  0.88090000  0.17178000  1
  N  N150  1  0.71970000  0.79410000  0.95130000  1
  N  N151  1  0.73200000  0.96640000  0.88837000  1
  N  N152  1  0.94790000  0.52410000  0.48960000  1
  N  N153  1  0.95670000  0.48890000  0.98500000  1
  O  O154  1  0.07480000  0.46090000  0.07940000  1
  O  O155  1  0.16490000  0.74750000  0.75870000  1
  O  O156  1  0.16670000  0.50600000  0.49810000  1
  O  O157  1  0.17650000  0.85660000  0.23329000  1
  O  O158  1  0.24960000  0.02270000  0.66999000  1
  O  O159  1  0.26900000  0.77050000  0.09905000  1
  O  O160  1  0.27070000  0.68700000  0.27704000  1
  O  O161  1  0.34820000  0.81120000  0.76905000  1
  O  O162  1  0.35250000  0.12280000  0.57290000  1
  O  O163  1  0.38220000  0.87240000  0.00537000  1
  O  O164  1  0.61780000  0.12760000  0.99463000  1
  O  O165  1  0.64750000  0.87720000  0.42710000  1
  O  O166  1  0.65180000  0.18880000  0.23095000  1
  O  O167  1  0.72930000  0.31300000  0.72296000  1
  O  O168  1  0.73100000  0.22950000  0.90095000  1
  O  O169  1  0.75040000  0.97730000  0.33001000  1
  O  O170  1  0.82350000  0.14340000  0.76671000  1
  O  O171  1  0.83330000  0.49400000  0.50190000  1
  O  O172  1  0.83510000  0.25250000  0.24130000  1
  O  O173  1  0.92520000  0.53910000  0.92060000  1
