# generated using pymatgen
data_Zn4H64C70N6O13
_symmetry_space_group_name_H-M   'P 1'
_cell_length_a   14.05780000
_cell_length_b   23.00130000
_cell_length_c   31.23800000
_cell_angle_alpha   90.88100000
_cell_angle_beta   90.00000000
_cell_angle_gamma   90.00000000
_symmetry_Int_Tables_number   1
_chemical_formula_structural   Zn4H64C70N6O13
_chemical_formula_sum   'Zn16 H256 C280 N24 O52'
_cell_volume   10099.54063029
_cell_formula_units_Z   4
loop_
 _symmetry_equiv_pos_site_id
 _symmetry_equiv_pos_as_xyz
  1  'x, y, z'
loop_
 _atom_site_type_symbol
 _atom_site_label
 _atom_site_symmetry_multiplicity
 _atom_site_fract_x
 _atom_site_fract_y
 _atom_site_fract_z
 _atom_site_occupancy
  Zn  Zn0  1  0.00560000  0.28582000  0.15038000  1
  Zn  Zn1  1  0.16602000  0.53042000  0.10843000  1
  Zn  Zn2  1  0.20127000  0.76792000  0.84257000  1
  Zn  Zn3  1  0.21250000  0.96913000  0.12686000  1
  Zn  Zn4  1  0.28750000  0.46913000  0.62686000  1
  Zn  Zn5  1  0.29873000  0.26792000  0.34257000  1
  Zn  Zn6  1  0.33398000  0.03042000  0.60843000  1
  Zn  Zn7  1  0.49440000  0.78582000  0.65038000  1
  Zn  Zn8  1  0.50560000  0.21418000  0.34962000  1
  Zn  Zn9  1  0.66602000  0.96958000  0.39157000  1
  Zn  Zn10  1  0.70127000  0.73208000  0.65743000  1
  Zn  Zn11  1  0.71250000  0.53087000  0.37314000  1
  Zn  Zn12  1  0.78750000  0.03087000  0.87314000  1
  Zn  Zn13  1  0.79873000  0.23208000  0.15743000  1
  Zn  Zn14  1  0.83398000  0.46958000  0.89157000  1
  Zn  Zn15  1  0.99440000  0.71418000  0.84962000  1
  H  H16  1  0.00160000  0.15970000  0.49240000  1
  H  H17  1  0.00240000  0.39370000  0.38410000  1
  H  H18  1  0.00700000  0.38520000  0.26840000  1
  H  H19  1  0.01250000  0.61290000  0.96810000  1
  H  H20  1  0.01340000  0.33090000  0.57830000  1
  H  H21  1  0.01530000  0.36310000  0.47040000  1
  H  H22  1  0.01840000  0.06030000  0.52050000  1
  H  H23  1  0.02130000  0.91000000  0.60490000  1
  H  H24  1  0.02350000  0.76420000  0.58800000  1
  H  H25  1  0.02560000  0.95670000  0.03730000  1
  H  H26  1  0.02620000  0.45500000  0.51260000  1
  H  H27  1  0.02640000  0.94890000  0.35730000  1
  H  H28  1  0.02730000  0.04680000  0.68650000  1
  H  H29  1  0.02790000  0.93160000  0.80010000  1
  H  H30  1  0.02830000  0.44740000  0.97770000  1
  H  H31  1  0.02920000  0.53330000  0.30560000  1
  H  H32  1  0.03000000  0.03200000  0.40710000  1
  H  H33  1  0.03350000  0.76050000  0.71650000  1
  H  H34  1  0.03620000  0.57410000  0.45210000  1
  H  H35  1  0.03640000  0.46160000  0.65390000  1
  H  H36  1  0.03860000  0.89940000  0.71880000  1
  H  H37  1  0.04340000  0.66600000  0.49300000  1
  H  H38  1  0.04790000  0.14550000  0.56600000  1
  H  H39  1  0.04930000  0.30410000  0.48960000  1
  H  H40  1  0.05050000  0.54810000  0.60450000  1
  H  H41  1  0.06040000  0.44810000  0.39990000  1
  H  H42  1  0.06180000  0.45420000  0.56020000  1
  H  H43  1  0.06730000  0.03720000  0.29760000  1
  H  H44  1  0.06900000  0.57220000  0.82120000  1
  H  H45  1  0.06940000  0.90750000  0.97740000  1
  H  H46  1  0.06950000  0.09060000  0.32930000  1
  H  H47  1  0.07060000  0.41530000  0.18500000  1
  H  H48  1  0.07200000  0.14490000  0.45490000  1
  H  H49  1  0.07440000  0.53630000  0.35150000  1
  H  H50  1  0.08140000  0.96470000  0.59270000  1
  H  H51  1  0.08510000  0.04990000  0.64370000  1
  H  H52  1  0.08680000  0.04500000  0.48230000  1
  H  H53  1  0.09180000  0.19840000  0.48520000  1
  H  H54  1  0.09500000  0.02780000  0.92820000  1
  H  H55  1  0.10910000  0.30160000  0.56400000  1
  H  H56  1  0.10970000  0.38910000  0.31830000  1
  H  H57  1  0.11080000  0.35860000  0.59210000  1
  H  H58  1  0.11560000  0.08920000  0.20380000  1
  H  H59  1  0.11800000  0.03200000  0.34200000  1
  H  H60  1  0.11890000  0.03360000  0.52950000  1
  H  H61  1  0.11980000  0.44450000  0.29010000  1
  H  H62  1  0.13040000  0.25070000  0.28120000  1
  H  H63  1  0.13700000  0.18500000  0.55860000  1
  H  H64  1  0.14050000  0.24700000  0.40970000  1
  H  H65  1  0.14630000  0.47240000  0.94440000  1
  H  H66  1  0.14950000  0.12330000  0.57840000  1
  H  H67  1  0.15820000  0.22980000  0.20280000  1
  H  H68  1  0.16140000  0.81940000  0.59840000  1
  H  H69  1  0.16370000  0.44390000  0.33620000  1
  H  H70  1  0.16580000  0.34760000  0.45640000  1
  H  H71  1  0.17410000  0.32730000  0.09740000  1
  H  H72  1  0.17730000  0.72200000  0.70380000  1
  H  H73  1  0.17930000  0.37650000  0.23080000  1
  H  H74  1  0.18390000  0.93960000  0.82360000  1
  H  H75  1  0.21750000  0.98770000  0.88770000  1
  H  H76  1  0.22010000  0.16820000  0.44860000  1
  H  H77  1  0.22500000  0.12830000  0.25020000  1
  H  H78  1  0.22630000  0.56670000  0.84330000  1
  H  H79  1  0.23510000  0.01690000  0.40490000  1
  H  H80  1  0.26490000  0.51690000  0.90490000  1
  H  H81  1  0.27370000  0.06670000  0.34330000  1
  H  H82  1  0.27500000  0.62830000  0.75020000  1
  H  H83  1  0.27990000  0.66820000  0.94860000  1
  H  H84  1  0.28250000  0.48770000  0.38770000  1
  H  H85  1  0.31610000  0.43960000  0.32360000  1
  H  H86  1  0.32070000  0.87650000  0.73080000  1
  H  H87  1  0.32270000  0.22200000  0.20380000  1
  H  H88  1  0.32590000  0.82730000  0.59740000  1
  H  H89  1  0.33420000  0.84760000  0.95640000  1
  H  H90  1  0.33630000  0.94390000  0.83620000  1
  H  H91  1  0.33860000  0.31940000  0.09840000  1
  H  H92  1  0.34180000  0.72980000  0.70280000  1
  H  H93  1  0.35050000  0.62330000  0.07840000  1
  H  H94  1  0.35370000  0.97240000  0.44440000  1
  H  H95  1  0.35950000  0.74700000  0.90970000  1
  H  H96  1  0.36300000  0.68500000  0.05860000  1
  H  H97  1  0.36960000  0.75070000  0.78120000  1
  H  H98  1  0.38020000  0.94450000  0.79010000  1
  H  H99  1  0.38110000  0.53360000  0.02950000  1
  H  H100  1  0.38200000  0.53200000  0.84200000  1
  H  H101  1  0.38440000  0.58920000  0.70380000  1
  H  H102  1  0.38920000  0.85860000  0.09210000  1
  H  H103  1  0.39030000  0.88910000  0.81830000  1
  H  H104  1  0.39090000  0.80160000  0.06400000  1
  H  H105  1  0.40500000  0.52780000  0.42820000  1
  H  H106  1  0.40820000  0.69840000  0.98520000  1
  H  H107  1  0.41320000  0.54500000  0.98230000  1
  H  H108  1  0.41490000  0.54990000  0.14370000  1
  H  H109  1  0.41860000  0.46470000  0.09270000  1
  H  H110  1  0.42560000  0.03630000  0.85150000  1
  H  H111  1  0.42800000  0.64490000  0.95490000  1
  H  H112  1  0.42940000  0.91530000  0.68500000  1
  H  H113  1  0.43050000  0.59060000  0.82930000  1
  H  H114  1  0.43060000  0.40750000  0.47740000  1
  H  H115  1  0.43100000  0.07220000  0.32120000  1
  H  H116  1  0.43270000  0.53720000  0.79760000  1
  H  H117  1  0.43820000  0.95420000  0.06020000  1
  H  H118  1  0.43960000  0.94810000  0.89990000  1
  H  H119  1  0.44950000  0.04810000  0.10450000  1
  H  H120  1  0.45070000  0.80410000  0.98960000  1
  H  H121  1  0.45210000  0.64550000  0.06600000  1
  H  H122  1  0.45660000  0.16600000  0.99300000  1
  H  H123  1  0.46140000  0.39940000  0.21880000  1
  H  H124  1  0.46360000  0.96160000  0.15390000  1
  H  H125  1  0.46380000  0.07410000  0.95210000  1
  H  H126  1  0.46650000  0.26050000  0.21650000  1
  H  H127  1  0.47000000  0.53200000  0.90710000  1
  H  H128  1  0.47080000  0.03330000  0.80560000  1
  H  H129  1  0.47170000  0.94740000  0.47770000  1
  H  H130  1  0.47210000  0.43160000  0.30010000  1
  H  H131  1  0.47270000  0.54680000  0.18650000  1
  H  H132  1  0.47360000  0.44890000  0.85730000  1
  H  H133  1  0.47380000  0.95500000  0.01260000  1
  H  H134  1  0.47440000  0.45670000  0.53730000  1
  H  H135  1  0.47650000  0.26420000  0.08800000  1
  H  H136  1  0.47870000  0.41000000  0.10490000  1
  H  H137  1  0.48160000  0.56030000  0.02050000  1
  H  H138  1  0.48470000  0.86310000  0.97040000  1
  H  H139  1  0.48660000  0.83090000  0.07830000  1
  H  H140  1  0.48750000  0.11290000  0.46810000  1
  H  H141  1  0.49300000  0.88520000  0.76840000  1
  H  H142  1  0.49760000  0.89370000  0.88410000  1
  H  H143  1  0.49840000  0.65970000  0.99240000  1
  H  H144  1  0.50160000  0.34030000  0.00760000  1
  H  H145  1  0.50240000  0.10630000  0.11590000  1
  H  H146  1  0.50700000  0.11480000  0.23160000  1
  H  H147  1  0.51250000  0.88710000  0.53190000  1
  H  H148  1  0.51340000  0.16910000  0.92170000  1
  H  H149  1  0.51530000  0.13690000  0.02960000  1
  H  H150  1  0.51840000  0.43970000  0.97950000  1
  H  H151  1  0.52130000  0.59000000  0.89510000  1
  H  H152  1  0.52350000  0.73580000  0.91200000  1
  H  H153  1  0.52560000  0.54330000  0.46270000  1
  H  H154  1  0.52620000  0.04500000  0.98740000  1
  H  H155  1  0.52640000  0.55110000  0.14270000  1
  H  H156  1  0.52730000  0.45320000  0.81350000  1
  H  H157  1  0.52790000  0.56840000  0.69990000  1
  H  H158  1  0.52830000  0.05260000  0.52230000  1
  H  H159  1  0.52920000  0.96670000  0.19440000  1
  H  H160  1  0.53000000  0.46800000  0.09290000  1
  H  H161  1  0.53350000  0.73950000  0.78350000  1
  H  H162  1  0.53620000  0.92590000  0.04790000  1
  H  H163  1  0.53640000  0.03840000  0.84610000  1
  H  H164  1  0.53860000  0.60060000  0.78120000  1
  H  H165  1  0.54340000  0.83400000  0.00700000  1
  H  H166  1  0.54790000  0.35450000  0.93400000  1
  H  H167  1  0.54930000  0.19590000  0.01040000  1
  H  H168  1  0.55050000  0.95190000  0.89550000  1
  H  H169  1  0.56040000  0.05190000  0.10010000  1
  H  H170  1  0.56180000  0.04580000  0.93980000  1
  H  H171  1  0.56730000  0.46280000  0.20240000  1
  H  H172  1  0.56900000  0.92780000  0.67880000  1
  H  H173  1  0.56940000  0.59250000  0.52260000  1
  H  H174  1  0.56950000  0.40940000  0.17070000  1
  H  H175  1  0.57060000  0.08470000  0.31500000  1
  H  H176  1  0.57200000  0.35510000  0.04510000  1
  H  H177  1  0.57440000  0.96370000  0.14850000  1
  H  H178  1  0.58140000  0.53530000  0.90730000  1
  H  H179  1  0.58510000  0.45010000  0.85630000  1
  H  H180  1  0.58680000  0.45500000  0.01770000  1
  H  H181  1  0.59180000  0.30160000  0.01480000  1
  H  H182  1  0.59500000  0.47220000  0.57180000  1
  H  H183  1  0.60910000  0.19840000  0.93600000  1
  H  H184  1  0.60970000  0.11090000  0.18170000  1
  H  H185  1  0.61080000  0.14140000  0.90790000  1
  H  H186  1  0.61560000  0.41080000  0.29620000  1
  H  H187  1  0.61800000  0.46800000  0.15800000  1
  H  H188  1  0.61890000  0.46640000  0.97050000  1
  H  H189  1  0.61980000  0.05550000  0.20990000  1
  H  H190  1  0.63040000  0.24930000  0.21880000  1
  H  H191  1  0.63700000  0.31500000  0.94140000  1
  H  H192  1  0.64050000  0.25300000  0.09030000  1
  H  H193  1  0.64630000  0.02760000  0.55560000  1
  H  H194  1  0.64950000  0.37670000  0.92160000  1
  H  H195  1  0.65820000  0.27020000  0.29720000  1
  H  H196  1  0.66140000  0.68060000  0.90160000  1
  H  H197  1  0.66370000  0.05610000  0.16380000  1
  H  H198  1  0.66580000  0.15240000  0.04360000  1
  H  H199  1  0.67410000  0.17270000  0.40260000  1
  H  H200  1  0.67730000  0.77800000  0.79620000  1
  H  H201  1  0.67930000  0.12350000  0.26920000  1
  H  H202  1  0.68390000  0.56040000  0.67640000  1
  H  H203  1  0.71750000  0.51230000  0.61230000  1
  H  H204  1  0.72010000  0.33180000  0.05140000  1
  H  H205  1  0.72500000  0.37170000  0.24980000  1
  H  H206  1  0.72630000  0.93330000  0.65670000  1
  H  H207  1  0.73510000  0.48310000  0.09510000  1
  H  H208  1  0.76490000  0.98310000  0.59510000  1
  H  H209  1  0.77370000  0.43330000  0.15670000  1
  H  H210  1  0.77500000  0.87170000  0.74980000  1
  H  H211  1  0.77990000  0.83180000  0.55140000  1
  H  H212  1  0.78250000  0.01230000  0.11230000  1
  H  H213  1  0.81610000  0.06040000  0.17640000  1
  H  H214  1  0.82070000  0.62350000  0.76920000  1
  H  H215  1  0.82270000  0.27800000  0.29620000  1
  H  H216  1  0.82590000  0.67270000  0.90260000  1
  H  H217  1  0.83420000  0.65240000  0.54360000  1
  H  H218  1  0.83630000  0.55610000  0.66380000  1
  H  H219  1  0.83860000  0.18060000  0.40160000  1
  H  H220  1  0.84180000  0.77020000  0.79720000  1
  H  H221  1  0.85050000  0.87670000  0.42160000  1
  H  H222  1  0.85370000  0.52760000  0.05560000  1
  H  H223  1  0.85950000  0.75300000  0.59030000  1
  H  H224  1  0.86300000  0.81500000  0.44140000  1
  H  H225  1  0.86960000  0.74930000  0.71880000  1
  H  H226  1  0.88020000  0.55550000  0.70990000  1
  H  H227  1  0.88110000  0.96640000  0.47050000  1
  H  H228  1  0.88200000  0.96800000  0.65800000  1
  H  H229  1  0.88440000  0.91080000  0.79620000  1
  H  H230  1  0.88920000  0.64140000  0.40790000  1
  H  H231  1  0.89030000  0.61090000  0.68170000  1
  H  H232  1  0.89090000  0.69840000  0.43600000  1
  H  H233  1  0.90500000  0.97220000  0.07180000  1
  H  H234  1  0.90820000  0.80160000  0.51480000  1
  H  H235  1  0.91320000  0.95500000  0.51770000  1
  H  H236  1  0.91490000  0.95010000  0.35630000  1
  H  H237  1  0.91860000  0.03530000  0.40730000  1
  H  H238  1  0.92560000  0.46370000  0.64850000  1
  H  H239  1  0.92800000  0.85510000  0.54510000  1
  H  H240  1  0.92940000  0.58470000  0.81500000  1
  H  H241  1  0.93050000  0.90940000  0.67070000  1
  H  H242  1  0.93060000  0.09250000  0.02260000  1
  H  H243  1  0.93100000  0.42780000  0.17880000  1
  H  H244  1  0.93270000  0.96280000  0.70240000  1
  H  H245  1  0.93820000  0.54580000  0.43980000  1
  H  H246  1  0.93960000  0.55190000  0.60010000  1
  H  H247  1  0.94950000  0.45190000  0.39550000  1
  H  H248  1  0.95070000  0.69590000  0.51040000  1
  H  H249  1  0.95210000  0.85450000  0.43400000  1
  H  H250  1  0.95660000  0.33400000  0.50700000  1
  H  H251  1  0.96140000  0.10060000  0.28120000  1
  H  H252  1  0.96360000  0.53840000  0.34610000  1
  H  H253  1  0.96380000  0.42590000  0.54790000  1
  H  H254  1  0.96650000  0.23950000  0.28350000  1
  H  H255  1  0.97000000  0.96800000  0.59290000  1
  H  H256  1  0.97080000  0.46670000  0.69440000  1
  H  H257  1  0.97170000  0.55260000  0.02230000  1
  H  H258  1  0.97210000  0.06840000  0.19990000  1
  H  H259  1  0.97270000  0.95320000  0.31350000  1
  H  H260  1  0.97360000  0.05110000  0.64270000  1
  H  H261  1  0.97380000  0.54500000  0.48740000  1
  H  H262  1  0.97440000  0.04330000  0.96270000  1
  H  H263  1  0.97650000  0.23580000  0.41200000  1
  H  H264  1  0.97870000  0.09000000  0.39510000  1
  H  H265  1  0.98160000  0.93970000  0.47950000  1
  H  H266  1  0.98470000  0.63690000  0.52960000  1
  H  H267  1  0.98660000  0.66910000  0.42170000  1
  H  H268  1  0.98750000  0.38710000  0.03190000  1
  H  H269  1  0.99300000  0.61480000  0.73160000  1
  H  H270  1  0.99760000  0.60630000  0.61590000  1
  H  H271  1  0.99840000  0.84030000  0.50760000  1
  C  C272  1  0.00140000  0.24100000  0.30884000  1
  C  C273  1  0.00640000  0.43530000  0.38350000  1
  C  C274  1  0.00740000  0.23880000  0.38582000  1
  C  C275  1  0.01200000  0.99630000  0.11150000  1
  C  C276  1  0.01350000  0.52560000  0.86950000  1
  C  C277  1  0.01730000  0.45480000  0.33730000  1
  C  C278  1  0.01940000  0.34070000  0.49600000  1
  C  C279  1  0.02160000  0.52210000  0.33490000  1
  C  C280  1  0.02470000  0.95170000  0.60670000  1
  C  C281  1  0.02650000  0.97100000  0.65310000  1
  C  C282  1  0.02770000  0.43290000  0.53840000  1
  C  C283  1  0.02830000  0.03540000  0.65680000  1
  C  C284  1  0.03120000  0.55450000  0.03530000  1
  C  C285  1  0.03210000  0.02510000  0.14990000  1
  C  C286  1  0.03660000  0.49570000  0.90640000  1
  C  C287  1  0.04130000  0.95090000  0.82578000  1
  C  C288  1  0.04470000  0.76350000  0.65199000  1
  C  C289  1  0.05480000  0.60460000  0.72400000  1
  C  C290  1  0.06540000  0.04900000  0.32710000  1
  C  C291  1  0.06710000  0.15950000  0.48370000  1
  C  C292  1  0.07060000  0.56590000  0.69010000  1
  C  C293  1  0.07600000  0.61420000  0.97620000  1
  C  C294  1  0.07780000  0.33800000  0.56970000  1
  C  C295  1  0.07820000  0.37390000  0.52950000  1
  C  C296  1  0.08150000  0.00850000  0.90250000  1
  C  C297  1  0.08360000  0.05910000  0.51140000  1
  C  C298  1  0.08390000  0.95180000  0.05090000  1
  C  C299  1  0.08450000  0.55220000  0.84590000  1
  C  C300  1  0.09960000  0.24770000  0.30746000  1
  C  C301  1  0.10030000  0.90740000  0.71000000  1
  C  C302  1  0.10560000  0.24550000  0.38444000  1
  C  C303  1  0.10590000  0.58460000  0.01230000  1
  C  C304  1  0.11060000  0.67680000  0.91320000  1
  C  C305  1  0.11150000  0.43080000  0.31870000  1
  C  C306  1  0.11400000  0.14570000  0.55830000  1
  C  C307  1  0.11490000  0.67000000  0.78310000  1
  C  C308  1  0.11520000  0.43790000  0.17090000  1
  C  C309  1  0.11570000  0.94490000  0.67620000  1
  C  C310  1  0.12580000  0.11980000  0.51420000  1
  C  C311  1  0.13080000  0.49240000  0.91970000  1
  C  C312  1  0.13140000  0.62790000  0.74649000  1
  C  C313  1  0.13170000  0.90240000  0.98660000  1
  C  C314  1  0.13480000  0.95570000  0.83990000  1
  C  C315  1  0.14130000  0.64550000  0.95238000  1
  C  C316  1  0.15300000  0.76990000  0.65120000  1
  C  C317  1  0.15490000  0.98450000  0.87820000  1
  C  C318  1  0.15520000  0.84230000  0.76720000  1
  C  C319  1  0.15930000  0.92300000  0.02680000  1
  C  C320  1  0.16010000  0.06590000  0.18980000  1
  C  C321  1  0.16290000  0.55060000  0.67872000  1
  C  C322  1  0.16720000  0.84870000  0.91760000  1
  C  C323  1  0.17710000  0.88170000  0.73041000  1
  C  C324  1  0.17870000  0.54890000  0.85910000  1
  C  C325  1  0.18210000  0.38710000  0.51430000  1
  C  C326  1  0.19440000  0.24780000  0.18191000  1
  C  C327  1  0.19720000  0.87410000  0.96026000  1
  C  C328  1  0.19750000  0.80150000  0.61934000  1
  C  C329  1  0.20090000  0.58640000  0.02460000  1
  C  C330  1  0.20190000  0.51900000  0.89600000  1
  C  C331  1  0.20390000  0.30620000  0.11875000  1
  C  C332  1  0.20710000  0.74310000  0.68250000  1
  C  C333  1  0.20800000  0.95690000  0.66294000  1
  C  C334  1  0.20970000  0.36650000  0.47408000  1
  C  C335  1  0.21530000  0.43120000  0.18340000  1
  C  C336  1  0.22380000  0.61260000  0.73512000  1
  C  C337  1  0.23070000  0.39370000  0.21712000  1
  C  C338  1  0.23390000  0.11780000  0.50070000  1
  C  C339  1  0.23630000  0.64730000  0.96460000  1
  C  C340  1  0.23950000  0.57400000  0.70120000  1
  C  C341  1  0.24760000  0.41530000  0.54063000  1
  C  C342  1  0.25240000  0.91530000  0.04063000  1
  C  C343  1  0.26050000  0.07400000  0.20120000  1
  C  C344  1  0.26370000  0.14730000  0.46460000  1
  C  C345  1  0.26610000  0.61780000  0.00070000  1
  C  C346  1  0.26930000  0.89370000  0.71712000  1
  C  C347  1  0.27620000  0.11260000  0.23512000  1
  C  C348  1  0.28470000  0.93120000  0.68340000  1
  C  C349  1  0.29030000  0.86650000  0.97408000  1
  C  C350  1  0.29200000  0.45690000  0.16294000  1
  C  C351  1  0.29290000  0.24310000  0.18250000  1
  C  C352  1  0.29610000  0.80620000  0.61875000  1
  C  C353  1  0.29810000  0.01900000  0.39600000  1
  C  C354  1  0.29910000  0.08640000  0.52460000  1
  C  C355  1  0.30250000  0.30150000  0.11934000  1
  C  C356  1  0.30280000  0.37410000  0.46026000  1
  C  C357  1  0.30560000  0.74780000  0.68191000  1
  C  C358  1  0.31790000  0.88710000  0.01430000  1
  C  C359  1  0.32130000  0.04890000  0.35910000  1
  C  C360  1  0.32290000  0.38170000  0.23041000  1
  C  C361  1  0.33280000  0.34870000  0.41760000  1
  C  C362  1  0.33710000  0.05060000  0.17872000  1
  C  C363  1  0.33990000  0.56590000  0.68980000  1
  C  C364  1  0.34070000  0.42300000  0.52680000  1
  C  C365  1  0.34480000  0.34230000  0.26720000  1
  C  C366  1  0.34510000  0.48450000  0.37820000  1
  C  C367  1  0.34700000  0.26990000  0.15120000  1
  C  C368  1  0.35870000  0.14550000  0.45238000  1
  C  C369  1  0.36520000  0.45570000  0.33990000  1
  C  C370  1  0.36830000  0.40240000  0.48660000  1
  C  C371  1  0.36860000  0.12790000  0.24649000  1
  C  C372  1  0.36920000  0.99240000  0.41970000  1
  C  C373  1  0.37420000  0.61980000  0.01420000  1
  C  C374  1  0.38430000  0.44490000  0.17620000  1
  C  C375  1  0.38480000  0.93790000  0.67090000  1
  C  C376  1  0.38510000  0.17000000  0.28310000  1
  C  C377  1  0.38600000  0.64570000  0.05830000  1
  C  C378  1  0.38850000  0.93080000  0.81870000  1
  C  C379  1  0.38940000  0.17680000  0.41320000  1
  C  C380  1  0.39410000  0.08460000  0.51230000  1
  C  C381  1  0.39440000  0.74550000  0.88444000  1
  C  C382  1  0.39970000  0.40740000  0.21000000  1
  C  C383  1  0.40040000  0.74770000  0.80746000  1
  C  C384  1  0.41550000  0.05220000  0.34590000  1
  C  C385  1  0.41610000  0.45180000  0.55090000  1
  C  C386  1  0.41640000  0.55910000  0.01140000  1
  C  C387  1  0.41850000  0.50850000  0.40250000  1
  C  C388  1  0.42180000  0.87390000  0.02950000  1
  C  C389  1  0.42220000  0.83800000  0.06970000  1
  C  C390  1  0.42400000  0.11420000  0.47620000  1
  C  C391  1  0.42940000  0.06590000  0.19010000  1
  C  C392  1  0.43290000  0.65950000  0.98370000  1
  C  C393  1  0.43460000  0.54900000  0.82710000  1
  C  C394  1  0.44520000  0.10460000  0.22400000  1
  C  C395  1  0.45530000  0.26350000  0.15199000  1
  C  C396  1  0.45870000  0.45090000  0.32578000  1
  C  C397  1  0.46340000  0.99570000  0.40640000  1
  C  C398  1  0.46790000  0.52510000  0.64990000  1
  C  C399  1  0.46880000  0.05450000  0.53530000  1
  C  C400  1  0.47170000  0.53540000  0.15680000  1
  C  C401  1  0.47230000  0.93290000  0.03840000  1
  C  C402  1  0.47350000  0.47100000  0.15310000  1
  C  C403  1  0.47530000  0.45170000  0.10670000  1
  C  C404  1  0.47840000  0.02210000  0.83490000  1
  C  C405  1  0.48060000  0.84070000  0.99600000  1
  C  C406  1  0.48270000  0.95480000  0.83730000  1
  C  C407  1  0.48650000  0.02560000  0.36950000  1
  C  C408  1  0.48800000  0.49630000  0.61150000  1
  C  C409  1  0.49260000  0.73880000  0.88582000  1
  C  C410  1  0.49360000  0.93530000  0.88350000  1
  C  C411  1  0.49860000  0.74100000  0.80884000  1
  C  C412  1  0.50140000  0.25900000  0.19116000  1
  C  C413  1  0.50640000  0.06470000  0.11650000  1
  C  C414  1  0.50740000  0.26120000  0.11418000  1
  C  C415  1  0.51200000  0.50370000  0.38850000  1
  C  C416  1  0.51350000  0.97440000  0.63050000  1
  C  C417  1  0.51730000  0.04520000  0.16270000  1
  C  C418  1  0.51940000  0.15930000  0.00400000  1
  C  C419  1  0.52160000  0.97790000  0.16510000  1
  C  C420  1  0.52470000  0.54830000  0.89330000  1
  C  C421  1  0.52650000  0.52900000  0.84690000  1
  C  C422  1  0.52770000  0.06710000  0.96160000  1
  C  C423  1  0.52830000  0.46460000  0.84320000  1
  C  C424  1  0.53120000  0.94550000  0.46470000  1
  C  C425  1  0.53210000  0.47490000  0.35010000  1
  C  C426  1  0.53660000  0.00430000  0.59360000  1
  C  C427  1  0.54130000  0.54910000  0.67422000  1
  C  C428  1  0.54470000  0.73650000  0.84801000  1
  C  C429  1  0.55480000  0.89540000  0.77600000  1
  C  C430  1  0.56540000  0.45100000  0.17290000  1
  C  C431  1  0.56710000  0.34050000  0.01630000  1
  C  C432  1  0.57060000  0.93410000  0.80990000  1
  C  C433  1  0.57600000  0.88580000  0.52380000  1
  C  C434  1  0.57780000  0.16200000  0.93030000  1
  C  C435  1  0.57820000  0.12610000  0.97050000  1
  C  C436  1  0.58150000  0.49150000  0.59750000  1
  C  C437  1  0.58360000  0.44090000  0.98860000  1
  C  C438  1  0.58390000  0.54820000  0.44910000  1
  C  C439  1  0.58450000  0.94780000  0.65410000  1
  C  C440  1  0.59960000  0.25230000  0.19254000  1
  C  C441  1  0.60030000  0.59260000  0.79000000  1
  C  C442  1  0.60560000  0.25450000  0.11556000  1
  C  C443  1  0.60590000  0.91540000  0.48770000  1
  C  C444  1  0.61060000  0.82320000  0.58680000  1
  C  C445  1  0.61150000  0.06920000  0.18130000  1
  C  C446  1  0.61400000  0.35430000  0.94170000  1
  C  C447  1  0.61490000  0.83000000  0.71690000  1
  C  C448  1  0.61520000  0.06210000  0.32910000  1
  C  C449  1  0.61570000  0.55510000  0.82380000  1
  C  C450  1  0.62580000  0.38020000  0.98580000  1
  C  C451  1  0.63080000  0.00760000  0.58030000  1
  C  C452  1  0.63140000  0.87210000  0.75351000  1
  C  C453  1  0.63170000  0.59760000  0.51340000  1
  C  C454  1  0.63480000  0.54430000  0.66010000  1
  C  C455  1  0.64130000  0.85450000  0.54762000  1
  C  C456  1  0.65300000  0.73010000  0.84880000  1
  C  C457  1  0.65490000  0.51550000  0.62180000  1
  C  C458  1  0.65520000  0.65770000  0.73280000  1
  C  C459  1  0.65930000  0.57700000  0.47320000  1
  C  C460  1  0.66010000  0.43410000  0.31020000  1
  C  C461  1  0.66290000  0.94940000  0.82128000  1
  C  C462  1  0.66720000  0.65130000  0.58240000  1
  C  C463  1  0.67710000  0.61830000  0.76959000  1
  C  C464  1  0.67870000  0.95110000  0.64090000  1
  C  C465  1  0.68210000  0.11290000  0.98570000  1
  C  C466  1  0.69440000  0.25220000  0.31809000  1
  C  C467  1  0.69720000  0.62590000  0.53974000  1
  C  C468  1  0.69750000  0.69850000  0.88066000  1
  C  C469  1  0.70090000  0.91360000  0.47540000  1
  C  C470  1  0.70190000  0.98100000  0.60400000  1
  C  C471  1  0.70390000  0.19380000  0.38125000  1
  C  C472  1  0.70710000  0.75690000  0.81750000  1
  C  C473  1  0.70800000  0.54310000  0.83706000  1
  C  C474  1  0.70970000  0.13350000  0.02592000  1
  C  C475  1  0.71530000  0.06880000  0.31660000  1
  C  C476  1  0.72380000  0.88740000  0.76488000  1
  C  C477  1  0.73070000  0.10630000  0.28288000  1
  C  C478  1  0.73390000  0.38220000  0.99930000  1
  C  C479  1  0.73630000  0.85270000  0.53540000  1
  C  C480  1  0.73950000  0.92600000  0.79880000  1
  C  C481  1  0.74760000  0.08470000  0.95937000  1
  C  C482  1  0.75240000  0.58470000  0.45937000  1
  C  C483  1  0.76050000  0.42600000  0.29880000  1
  C  C484  1  0.76370000  0.35270000  0.03540000  1
  C  C485  1  0.76610000  0.88220000  0.49930000  1
  C  C486  1  0.76930000  0.60630000  0.78288000  1
  C  C487  1  0.77620000  0.38740000  0.26488000  1
  C  C488  1  0.78470000  0.56880000  0.81660000  1
  C  C489  1  0.79030000  0.63350000  0.52592000  1
  C  C490  1  0.79200000  0.04310000  0.33706000  1
  C  C491  1  0.79290000  0.25690000  0.31750000  1
  C  C492  1  0.79610000  0.69380000  0.88125000  1
  C  C493  1  0.79810000  0.48100000  0.10400000  1
  C  C494  1  0.79910000  0.41360000  0.97540000  1
  C  C495  1  0.80250000  0.19850000  0.38066000  1
  C  C496  1  0.80280000  0.12590000  0.03974000  1
  C  C497  1  0.80560000  0.75220000  0.81809000  1
  C  C498  1  0.81790000  0.61290000  0.48570000  1
  C  C499  1  0.82130000  0.45110000  0.14090000  1
  C  C500  1  0.82290000  0.11830000  0.26959000  1
  C  C501  1  0.83280000  0.15130000  0.08240000  1
  C  C502  1  0.83710000  0.44940000  0.32128000  1
  C  C503  1  0.83990000  0.93410000  0.81020000  1
  C  C504  1  0.84070000  0.07700000  0.97320000  1
  C  C505  1  0.84480000  0.15770000  0.23280000  1
  C  C506  1  0.84510000  0.01550000  0.12180000  1
  C  C507  1  0.84700000  0.23010000  0.34880000  1
  C  C508  1  0.85870000  0.35450000  0.04762000  1
  C  C509  1  0.86520000  0.04430000  0.16010000  1
  C  C510  1  0.86830000  0.09760000  0.01340000  1
  C  C511  1  0.86860000  0.37210000  0.25351000  1
  C  C512  1  0.86920000  0.50760000  0.08030000  1
  C  C513  1  0.87420000  0.88020000  0.48580000  1
  C  C514  1  0.88430000  0.05510000  0.32380000  1
  C  C515  1  0.88480000  0.56210000  0.82910000  1
  C  C516  1  0.88510000  0.33000000  0.21690000  1
  C  C517  1  0.88600000  0.85430000  0.44170000  1
  C  C518  1  0.88850000  0.56920000  0.68130000  1
  C  C519  1  0.88940000  0.32320000  0.08680000  1
  C  C520  1  0.89410000  0.41540000  0.98770000  1
  C  C521  1  0.89440000  0.75450000  0.61556000  1
  C  C522  1  0.89970000  0.09260000  0.29000000  1
  C  C523  1  0.90040000  0.75230000  0.69254000  1
  C  C524  1  0.91550000  0.44780000  0.15410000  1
  C  C525  1  0.91610000  0.04820000  0.94910000  1
  C  C526  1  0.91640000  0.94090000  0.48860000  1
  C  C527  1  0.91850000  0.99150000  0.09750000  1
  C  C528  1  0.92180000  0.62610000  0.47050000  1
  C  C529  1  0.92220000  0.66200000  0.43030000  1
  C  C530  1  0.92400000  0.38580000  0.02380000  1
  C  C531  1  0.92940000  0.43410000  0.30990000  1
  C  C532  1  0.93290000  0.84050000  0.51630000  1
  C  C533  1  0.93460000  0.95100000  0.67290000  1
  C  C534  1  0.94520000  0.39540000  0.27600000  1
  C  C535  1  0.95530000  0.23650000  0.34801000  1
  C  C536  1  0.95870000  0.04910000  0.17422000  1
  C  C537  1  0.96340000  0.50430000  0.09360000  1
  C  C538  1  0.96790000  0.97490000  0.85010000  1
  C  C539  1  0.96880000  0.44550000  0.96470000  1
  C  C540  1  0.97170000  0.96460000  0.34320000  1
  C  C541  1  0.97230000  0.56710000  0.46160000  1
  C  C542  1  0.97350000  0.02900000  0.34690000  1
  C  C543  1  0.97530000  0.04830000  0.39330000  1
  C  C544  1  0.97840000  0.47790000  0.66510000  1
  C  C545  1  0.98060000  0.65930000  0.50400000  1
  C  C546  1  0.98270000  0.54520000  0.66270000  1
  C  C547  1  0.98650000  0.47440000  0.13050000  1
  C  C548  1  0.98800000  0.00370000  0.88850000  1
  C  C549  1  0.99260000  0.76120000  0.61418000  1
  C  C550  1  0.99360000  0.56470000  0.61650000  1
  C  C551  1  0.99860000  0.75900000  0.69116000  1
  N  N552  1  0.03990000  0.52990000  0.07210000  1
  N  N553  1  0.08380000  0.47250000  0.14200000  1
  N  N554  1  0.09180000  0.97120000  0.08990000  1
  N  N555  1  0.12870000  0.02830000  0.16150000  1
  N  N556  1  0.14980000  0.27940000  0.15003000  1
  N  N557  1  0.15170000  0.24990000  0.34526000  1
  N  N558  1  0.34830000  0.74990000  0.84526000  1
  N  N559  1  0.35020000  0.77940000  0.65003000  1
  N  N560  1  0.37130000  0.52830000  0.66150000  1
  N  N561  1  0.40820000  0.47120000  0.58990000  1
  N  N562  1  0.41620000  0.97250000  0.64200000  1
  N  N563  1  0.46010000  0.02990000  0.57210000  1
  N  N564  1  0.53990000  0.97010000  0.42790000  1
  N  N565  1  0.58380000  0.02750000  0.35800000  1
  N  N566  1  0.59180000  0.52880000  0.41010000  1
  N  N567  1  0.62870000  0.47170000  0.33850000  1
  N  N568  1  0.64980000  0.22060000  0.34997000  1
  N  N569  1  0.65170000  0.25010000  0.15474000  1
  N  N570  1  0.84830000  0.75010000  0.65474000  1
  N  N571  1  0.85020000  0.72060000  0.84997000  1
  N  N572  1  0.87130000  0.97170000  0.83850000  1
  N  N573  1  0.90820000  0.02880000  0.91010000  1
  N  N574  1  0.91620000  0.52750000  0.85800000  1
  N  N575  1  0.96010000  0.47010000  0.92790000  1
  O  O576  1  0.02350000  0.67510000  0.90180000  1
  O  O577  1  0.02700000  0.67400000  0.79590000  1
  O  O578  1  0.05410000  0.78960000  0.84620000  1
  O  O579  1  0.06830000  0.83100000  0.77320000  1
  O  O580  1  0.07690000  0.84850000  0.91030000  1
  O  O581  1  0.17510000  0.51180000  0.64740000  1
  O  O582  1  0.17550000  0.70460000  0.89280000  1
  O  O583  1  0.18250000  0.69880000  0.79810000  1
  O  O584  1  0.21890000  0.43320000  0.57840000  1
  O  O585  1  0.22000000  0.99420000  0.63160000  1
  O  O586  1  0.22220000  0.82270000  0.79020000  1
  O  O587  1  0.22680000  0.82790000  0.89280000  1
  O  O588  1  0.23270000  0.55540000  0.05760000  1
  O  O589  1  0.26730000  0.05540000  0.55760000  1
  O  O590  1  0.27320000  0.32790000  0.39280000  1
  O  O591  1  0.27780000  0.32270000  0.29020000  1
  O  O592  1  0.28000000  0.49420000  0.13160000  1
  O  O593  1  0.28110000  0.93320000  0.07840000  1
  O  O594  1  0.31750000  0.19880000  0.29810000  1
  O  O595  1  0.32450000  0.20460000  0.39280000  1
  O  O596  1  0.32490000  0.01180000  0.14740000  1
  O  O597  1  0.42310000  0.34850000  0.41030000  1
  O  O598  1  0.43170000  0.33100000  0.27320000  1
  O  O599  1  0.44590000  0.28960000  0.34620000  1
  O  O600  1  0.47300000  0.17400000  0.29590000  1
  O  O601  1  0.47650000  0.17510000  0.40180000  1
  O  O602  1  0.52350000  0.82490000  0.59820000  1
  O  O603  1  0.52700000  0.82600000  0.70410000  1
  O  O604  1  0.55410000  0.71040000  0.65380000  1
  O  O605  1  0.56830000  0.66900000  0.72680000  1
  O  O606  1  0.57690000  0.65150000  0.58970000  1
  O  O607  1  0.67510000  0.98820000  0.85260000  1
  O  O608  1  0.67550000  0.79540000  0.60720000  1
  O  O609  1  0.68250000  0.80120000  0.70190000  1
  O  O610  1  0.71890000  0.06680000  0.92160000  1
  O  O611  1  0.72000000  0.50580000  0.86840000  1
  O  O612  1  0.72220000  0.67730000  0.70980000  1
  O  O613  1  0.72680000  0.67210000  0.60720000  1
  O  O614  1  0.73270000  0.94460000  0.44240000  1
  O  O615  1  0.76730000  0.44460000  0.94240000  1
  O  O616  1  0.77320000  0.17210000  0.10720000  1
  O  O617  1  0.77780000  0.17730000  0.20980000  1
  O  O618  1  0.78000000  0.00580000  0.36840000  1
  O  O619  1  0.78110000  0.56680000  0.42160000  1
  O  O620  1  0.81750000  0.30120000  0.20190000  1
  O  O621  1  0.82450000  0.29540000  0.10720000  1
  O  O622  1  0.82490000  0.48820000  0.35260000  1
  O  O623  1  0.92310000  0.15150000  0.08970000  1
  O  O624  1  0.93170000  0.16900000  0.22680000  1
  O  O625  1  0.94590000  0.21040000  0.15380000  1
  O  O626  1  0.97300000  0.32600000  0.20410000  1
  O  O627  1  0.97650000  0.32490000  0.09820000  1
