# generated using pymatgen
data_Co3H16(C9O7)2
_symmetry_space_group_name_H-M   'P 1'
_cell_length_a   7.79900000
_cell_length_b   9.21200000
_cell_length_c   10.78400000
_cell_angle_alpha   107.59500000
_cell_angle_beta   92.87700000
_cell_angle_gamma   110.24800000
_symmetry_Int_Tables_number   1
_chemical_formula_structural   Co3H16(C9O7)2
_chemical_formula_sum   'Co3 H16 C18 O14'
_cell_volume   682.42552266
_cell_formula_units_Z   1
loop_
 _symmetry_equiv_pos_site_id
 _symmetry_equiv_pos_as_xyz
  1  'x, y, z'
loop_
 _atom_site_type_symbol
 _atom_site_label
 _atom_site_symmetry_multiplicity
 _atom_site_fract_x
 _atom_site_fract_y
 _atom_site_fract_z
 _atom_site_occupancy
  Co  Co0  1  0.00000000  0.00000000  0.00000000  1
  Co  Co1  1  0.34848000  0.85916000  0.87049000  1
  Co  Co2  1  0.65152000  0.14084000  0.12951000  1
  H  H3  1  0.03130000  0.57190000  0.36890000  1
  H  H4  1  0.06490000  0.60780000  0.13780000  1
  H  H5  1  0.12200000  0.85420000  0.35700000  1
  H  H6  1  0.15660000  0.00360000  0.78410000  1
  H  H7  1  0.17650000  0.52200000  0.43070000  1
  H  H8  1  0.23870000  0.59270000  0.08000000  1
  H  H9  1  0.30330000  0.13660000  0.90420000  1
  H  H10  1  0.32350000  0.98160000  0.41170000  1
  H  H11  1  0.67650000  0.01840000  0.58830000  1
  H  H12  1  0.69670000  0.86340000  0.09580000  1
  H  H13  1  0.76130000  0.40730000  0.92000000  1
  H  H14  1  0.82350000  0.47800000  0.56930000  1
  H  H15  1  0.84340000  0.99640000  0.21590000  1
  H  H16  1  0.87800000  0.14580000  0.64300000  1
  H  H17  1  0.93510000  0.39220000  0.86220000  1
  H  H18  1  0.96870000  0.42810000  0.63110000  1
  C  C19  1  0.07680000  0.34430000  0.16810000  1
  C  C20  1  0.15770000  0.58430000  0.37900000  1
  C  C21  1  0.19210000  0.62610000  0.15910000  1
  C  C22  1  0.20830000  0.52150000  0.24240000  1
  C  C23  1  0.24910000  0.86860000  0.36720000  1
  C  C24  1  0.25100000  0.82590000  0.58940000  1
  C  C25  1  0.25990000  0.89940000  0.14190000  1
  C  C26  1  0.28170000  0.76680000  0.44800000  1
  C  C27  1  0.30160000  0.81200000  0.23130000  1
  C  C28  1  0.69840000  0.18800000  0.76870000  1
  C  C29  1  0.71830000  0.23320000  0.55200000  1
  C  C30  1  0.74010000  0.10060000  0.85810000  1
  C  C31  1  0.74900000  0.17410000  0.41060000  1
  C  C32  1  0.75090000  0.13140000  0.63280000  1
  C  C33  1  0.79170000  0.47850000  0.75760000  1
  C  C34  1  0.80790000  0.37390000  0.84090000  1
  C  C35  1  0.84230000  0.41570000  0.62100000  1
  C  C36  1  0.92320000  0.65570000  0.83190000  1
  O  O37  1  0.09320000  0.68200000  0.84670000  1
  O  O38  1  0.10410000  0.90720000  0.12950000  1
  O  O39  1  0.13050000  0.88610000  0.61650000  1
  O  O40  1  0.14610000  0.23780000  0.12150000  1
  O  O41  1  0.21390000  0.02700000  0.87150000  1
  O  O42  1  0.35190000  0.80890000  0.67460000  1
  O  O43  1  0.38440000  0.95300000  0.07620000  1
  O  O44  1  0.61560000  0.04700000  0.92380000  1
  O  O45  1  0.64810000  0.19110000  0.32540000  1
  O  O46  1  0.78610000  0.97300000  0.12850000  1
  O  O47  1  0.85390000  0.76220000  0.87850000  1
  O  O48  1  0.86950000  0.11390000  0.38350000  1
  O  O49  1  0.89590000  0.09280000  0.87050000  1
  O  O50  1  0.90680000  0.31800000  0.15330000  1
