# generated using pymatgen
data_Co3H14C30N4O13
_symmetry_space_group_name_H-M   'P 1'
_cell_length_a   20.29370000
_cell_length_b   20.29370000
_cell_length_c   20.29370000
_cell_angle_alpha   85.00580000
_cell_angle_beta   85.00580000
_cell_angle_gamma   85.00580000
_symmetry_Int_Tables_number   1
_chemical_formula_structural   Co3H14C30N4O13
_chemical_formula_sum   'Co18 H84 C180 N24 O78'
_cell_volume   8267.66224946
_cell_formula_units_Z   6
loop_
 _symmetry_equiv_pos_site_id
 _symmetry_equiv_pos_as_xyz
  1  'x, y, z'
loop_
 _atom_site_type_symbol
 _atom_site_label
 _atom_site_symmetry_multiplicity
 _atom_site_fract_x
 _atom_site_fract_y
 _atom_site_fract_z
 _atom_site_occupancy
  Co  Co0  1  0.43757000  0.98680000  0.43757000  1
  Co  Co1  1  0.97461000  0.97461000  0.27793000  1
  Co  Co2  1  0.27793000  0.97461000  0.97461000  1
  Co  Co3  1  0.92337000  0.92337000  0.44428000  1
  Co  Co4  1  0.44428000  0.92337000  0.92337000  1
  Co  Co5  1  0.02539000  0.72207000  0.02539000  1
  Co  Co6  1  0.56243000  0.56243000  0.01320000  1
  Co  Co7  1  0.01320000  0.56243000  0.56243000  1
  Co  Co8  1  0.07663000  0.55572000  0.07663000  1
  Co  Co9  1  0.92337000  0.44428000  0.92337000  1
  Co  Co10  1  0.98680000  0.43757000  0.43757000  1
  Co  Co11  1  0.43757000  0.43757000  0.98680000  1
  Co  Co12  1  0.97461000  0.27793000  0.97461000  1
  Co  Co13  1  0.55572000  0.07663000  0.07663000  1
  Co  Co14  1  0.07663000  0.07663000  0.55572000  1
  Co  Co15  1  0.72207000  0.02539000  0.02539000  1
  Co  Co16  1  0.02539000  0.02539000  0.72207000  1
  Co  Co17  1  0.56243000  0.01320000  0.56243000  1
  H  H18  1  0.77690000  1.00000000  0.22310000  1
  H  H19  1  0.22310000  1.00000000  0.77690000  1
  H  H20  1  0.37050000  0.98390000  0.22370000  1
  H  H21  1  0.22370000  0.98390000  0.37050000  1
  H  H22  1  0.71770000  0.98360000  0.41720000  1
  H  H23  1  0.41720000  0.98360000  0.71770000  1
  H  H24  1  0.18200000  0.97200000  0.18200000  1
  H  H25  1  0.78830000  0.93020000  0.52240000  1
  H  H26  1  0.52240000  0.93020000  0.78830000  1
  H  H27  1  0.63860000  0.89490000  0.49620000  1
  H  H28  1  0.49620000  0.89490000  0.63860000  1
  H  H29  1  0.73260000  0.87900000  0.61310000  1
  H  H30  1  0.61310000  0.87900000  0.73260000  1
  H  H31  1  0.81800000  0.81800000  0.02800000  1
  H  H32  1  0.02800000  0.81800000  0.81800000  1
  H  H33  1  0.93020000  0.78830000  0.52240000  1
  H  H34  1  0.52240000  0.78830000  0.93020000  1
  H  H35  1  0.66480000  0.78460000  0.51820000  1
  H  H36  1  0.51820000  0.78460000  0.66480000  1
  H  H37  1  0.00000000  0.77690000  0.22310000  1
  H  H38  1  0.22310000  0.77690000  1.00000000  1
  H  H39  1  0.62950000  0.77630000  0.01610000  1
  H  H40  1  0.01610000  0.77630000  0.62950000  1
  H  H41  1  0.87900000  0.73260000  0.61310000  1
  H  H42  1  0.61310000  0.73260000  0.87900000  1
  H  H43  1  0.98360000  0.71770000  0.41720000  1
  H  H44  1  0.41720000  0.71770000  0.98360000  1
  H  H45  1  0.78460000  0.66480000  0.51820000  1
  H  H46  1  0.51820000  0.66480000  0.78460000  1
  H  H47  1  0.89490000  0.63860000  0.49620000  1
  H  H48  1  0.49620000  0.63860000  0.89490000  1
  H  H49  1  0.77630000  0.62950000  0.01610000  1
  H  H50  1  0.01610000  0.62950000  0.77630000  1
  H  H51  1  0.87900000  0.61310000  0.73260000  1
  H  H52  1  0.73260000  0.61310000  0.87900000  1
  H  H53  1  0.28230000  0.58280000  0.01640000  1
  H  H54  1  0.01640000  0.58280000  0.28230000  1
  H  H55  1  0.93020000  0.52240000  0.78830000  1
  H  H56  1  0.78830000  0.52240000  0.93020000  1
  H  H57  1  0.78460000  0.51820000  0.66480000  1
  H  H58  1  0.66480000  0.51820000  0.78460000  1
  H  H59  1  0.36140000  0.50380000  0.10510000  1
  H  H60  1  0.10510000  0.50380000  0.36140000  1
  H  H61  1  0.89490000  0.49620000  0.63860000  1
  H  H62  1  0.63860000  0.49620000  0.89490000  1
  H  H63  1  0.33520000  0.48180000  0.21540000  1
  H  H64  1  0.21540000  0.48180000  0.33520000  1
  H  H65  1  0.21170000  0.47760000  0.06980000  1
  H  H66  1  0.06980000  0.47760000  0.21170000  1
  H  H67  1  0.98360000  0.41720000  0.71770000  1
  H  H68  1  0.71770000  0.41720000  0.98360000  1
  H  H69  1  0.26740000  0.38690000  0.12100000  1
  H  H70  1  0.12100000  0.38690000  0.26740000  1
  H  H71  1  0.98390000  0.37050000  0.22370000  1
  H  H72  1  0.22370000  0.37050000  0.98390000  1
  H  H73  1  0.50380000  0.36140000  0.10510000  1
  H  H74  1  0.10510000  0.36140000  0.50380000  1
  H  H75  1  0.48180000  0.33520000  0.21540000  1
  H  H76  1  0.21540000  0.33520000  0.48180000  1
  H  H77  1  0.58280000  0.28230000  0.01640000  1
  H  H78  1  0.01640000  0.28230000  0.58280000  1
  H  H79  1  0.38690000  0.26740000  0.12100000  1
  H  H80  1  0.12100000  0.26740000  0.38690000  1
  H  H81  1  0.98390000  0.22370000  0.37050000  1
  H  H82  1  0.37050000  0.22370000  0.98390000  1
  H  H83  1  0.00000000  0.22310000  0.77690000  1
  H  H84  1  0.77690000  0.22310000  1.00000000  1
  H  H85  1  0.48180000  0.21540000  0.33520000  1
  H  H86  1  0.33520000  0.21540000  0.48180000  1
  H  H87  1  0.47760000  0.21170000  0.06980000  1
  H  H88  1  0.06980000  0.21170000  0.47760000  1
  H  H89  1  0.97200000  0.18200000  0.18200000  1
  H  H90  1  0.18200000  0.18200000  0.97200000  1
  H  H91  1  0.38690000  0.12100000  0.26740000  1
  H  H92  1  0.26740000  0.12100000  0.38690000  1
  H  H93  1  0.50380000  0.10510000  0.36140000  1
  H  H94  1  0.36140000  0.10510000  0.50380000  1
  H  H95  1  0.47760000  0.06980000  0.21170000  1
  H  H96  1  0.21170000  0.06980000  0.47760000  1
  H  H97  1  0.81800000  0.02800000  0.81800000  1
  H  H98  1  0.58280000  0.01640000  0.28230000  1
  H  H99  1  0.28230000  0.01640000  0.58280000  1
  H  H100  1  0.77630000  0.01610000  0.62950000  1
  H  H101  1  0.62950000  0.01610000  0.77630000  1
  C  C102  1  0.74300000  1.00000000  0.25700000  1
  C  C103  1  0.64200000  1.00000000  0.35800000  1
  C  C104  1  0.58610000  1.00000000  0.41390000  1
  C  C105  1  0.41390000  1.00000000  0.58610000  1
  C  C106  1  0.35800000  1.00000000  0.64200000  1
  C  C107  1  0.25700000  1.00000000  0.74300000  1
  C  C108  1  0.35260000  0.99260000  0.35260000  1
  C  C109  1  0.70769000  0.98968000  0.37316000  1
  C  C110  1  0.37316000  0.98968000  0.70769000  1
  C  C111  1  0.75866000  0.98844000  0.32244000  1
  C  C112  1  0.32244000  0.98844000  0.75866000  1
  C  C113  1  0.30468000  0.98518000  0.30468000  1
  C  C114  1  0.32575000  0.98203000  0.23771000  1
  C  C115  1  0.23771000  0.98203000  0.32575000  1
  C  C116  1  0.27981000  0.97621000  0.19161000  1
  C  C117  1  0.19161000  0.97621000  0.27981000  1
  C  C118  1  0.21285000  0.97450000  0.21285000  1
  C  C119  1  0.82993000  0.97357000  0.33771000  1
  C  C120  1  0.33771000  0.97357000  0.82993000  1
  C  C121  1  0.30279000  0.97319000  0.12029000  1
  C  C122  1  0.12029000  0.97319000  0.30279000  1
  C  C123  1  0.80708000  0.89055000  0.54186000  1
  C  C124  1  0.54186000  0.89055000  0.80708000  1
  C  C125  1  0.69721000  0.87971000  0.02681000  1
  C  C126  1  0.02681000  0.87971000  0.69721000  1
  C  C127  1  0.61483000  0.87223000  0.53103000  1
  C  C128  1  0.53103000  0.87223000  0.61483000  1
  C  C129  1  0.77297000  0.85980000  0.59580000  1
  C  C130  1  0.59580000  0.85980000  0.77297000  1
  C  C131  1  0.97357000  0.82993000  0.33771000  1
  C  C132  1  0.33771000  0.82993000  0.97357000  1
  C  C133  1  0.72019000  0.80839000  0.02379000  1
  C  C134  1  0.02379000  0.80839000  0.72019000  1
  C  C135  1  0.89055000  0.80708000  0.54186000  1
  C  C136  1  0.54186000  0.80708000  0.89055000  1
  C  C137  1  0.63090000  0.80630000  0.54390000  1
  C  C138  1  0.54390000  0.80630000  0.63090000  1
  C  C139  1  0.79958000  0.79958000  0.62413000  1
  C  C140  1  0.62413000  0.79958000  0.79958000  1
  C  C141  1  0.78715000  0.78715000  0.02550000  1
  C  C142  1  0.02550000  0.78715000  0.78715000  1
  C  C143  1  0.85980000  0.77297000  0.59580000  1
  C  C144  1  0.59580000  0.77297000  0.85980000  1
  C  C145  1  0.59608000  0.77118000  0.59608000  1
  C  C146  1  0.76688000  0.76688000  0.68443000  1
  C  C147  1  0.68443000  0.76688000  0.76688000  1
  C  C148  1  0.67425000  0.76229000  0.01797000  1
  C  C149  1  0.01797000  0.76229000  0.67425000  1
  C  C150  1  0.98844000  0.75866000  0.32244000  1
  C  C151  1  0.32244000  0.75866000  0.98844000  1
  C  C152  1  0.00000000  0.74300000  0.25700000  1
  C  C153  1  0.25700000  0.74300000  1.00000000  1
  C  C154  1  0.80839000  0.72019000  0.02379000  1
  C  C155  1  0.02379000  0.72019000  0.80839000  1
  C  C156  1  0.98968000  0.70769000  0.37316000  1
  C  C157  1  0.37316000  0.70769000  0.98968000  1
  C  C158  1  0.62180000  0.70300000  0.62180000  1
  C  C159  1  0.87971000  0.69721000  0.02681000  1
  C  C160  1  0.02681000  0.69721000  0.87971000  1
  C  C161  1  0.69532000  0.69532000  0.01482000  1
  C  C162  1  0.01482000  0.69532000  0.69532000  1
  C  C163  1  0.76688000  0.68443000  0.76688000  1
  C  C164  1  0.24134000  0.67756000  0.01156000  1
  C  C165  1  0.01156000  0.67756000  0.24134000  1
  C  C166  1  0.76229000  0.67425000  0.01797000  1
  C  C167  1  0.01797000  0.67425000  0.76229000  1
  C  C168  1  0.17007000  0.66229000  0.02643000  1
  C  C169  1  0.02643000  0.66229000  0.17007000  1
  C  C170  1  0.64740000  0.64740000  0.00740000  1
  C  C171  1  0.00740000  0.64740000  0.64740000  1
  C  C172  1  0.00000000  0.64200000  0.35800000  1
  C  C173  1  0.35800000  0.64200000  1.00000000  1
  C  C174  1  0.80630000  0.63090000  0.54390000  1
  C  C175  1  0.54390000  0.63090000  0.80630000  1
  C  C176  1  0.29231000  0.62684000  0.01032000  1
  C  C177  1  0.01032000  0.62684000  0.29231000  1
  C  C178  1  0.79958000  0.62413000  0.79958000  1
  C  C179  1  0.70300000  0.62180000  0.62180000  1
  C  C180  1  0.62180000  0.62180000  0.70300000  1
  C  C181  1  0.87223000  0.61483000  0.53103000  1
  C  C182  1  0.53103000  0.61483000  0.87223000  1
  C  C183  1  0.77118000  0.59608000  0.59608000  1
  C  C184  1  0.59608000  0.59608000  0.77118000  1
  C  C185  1  0.85980000  0.59580000  0.77297000  1
  C  C186  1  0.77297000  0.59580000  0.85980000  1
  C  C187  1  0.00000000  0.58610000  0.41390000  1
  C  C188  1  0.41390000  0.58610000  1.00000000  1
  C  C189  1  0.80630000  0.54390000  0.63090000  1
  C  C190  1  0.63090000  0.54390000  0.80630000  1
  C  C191  1  0.89055000  0.54186000  0.80708000  1
  C  C192  1  0.80708000  0.54186000  0.89055000  1
  C  C193  1  0.87223000  0.53103000  0.61483000  1
  C  C194  1  0.61483000  0.53103000  0.87223000  1
  C  C195  1  0.38517000  0.46897000  0.12777000  1
  C  C196  1  0.12777000  0.46897000  0.38517000  1
  C  C197  1  0.19292000  0.45814000  0.10945000  1
  C  C198  1  0.10945000  0.45814000  0.19292000  1
  C  C199  1  0.36910000  0.45610000  0.19370000  1
  C  C200  1  0.19370000  0.45610000  0.36910000  1
  C  C201  1  0.00000000  0.41390000  0.58610000  1
  C  C202  1  0.58610000  0.41390000  1.00000000  1
  C  C203  1  0.22703000  0.40420000  0.14020000  1
  C  C204  1  0.14020000  0.40420000  0.22703000  1
  C  C205  1  0.40392000  0.40392000  0.22882000  1
  C  C206  1  0.22882000  0.40392000  0.40392000  1
  C  C207  1  0.46897000  0.38517000  0.12777000  1
  C  C208  1  0.12777000  0.38517000  0.46897000  1
  C  C209  1  0.37820000  0.37820000  0.29700000  1
  C  C210  1  0.29700000  0.37820000  0.37820000  1
  C  C211  1  0.20042000  0.37587000  0.20042000  1
  C  C212  1  0.98968000  0.37316000  0.70769000  1
  C  C213  1  0.70769000  0.37316000  0.98968000  1
  C  C214  1  0.45610000  0.36910000  0.19370000  1
  C  C215  1  0.19370000  0.36910000  0.45610000  1
  C  C216  1  0.00000000  0.35800000  0.64200000  1
  C  C217  1  0.64200000  0.35800000  1.00000000  1
  C  C218  1  0.99260000  0.35260000  0.35260000  1
  C  C219  1  0.35260000  0.35260000  0.99260000  1
  C  C220  1  0.97357000  0.33771000  0.82993000  1
  C  C221  1  0.82993000  0.33771000  0.97357000  1
  C  C222  1  0.98203000  0.32575000  0.23771000  1
  C  C223  1  0.23771000  0.32575000  0.98203000  1
  C  C224  1  0.98844000  0.32244000  0.75866000  1
  C  C225  1  0.75866000  0.32244000  0.98844000  1
  C  C226  1  0.23312000  0.31557000  0.23312000  1
  C  C227  1  0.98518000  0.30468000  0.30468000  1
  C  C228  1  0.30468000  0.30468000  0.98518000  1
  C  C229  1  0.97319000  0.30279000  0.12029000  1
  C  C230  1  0.12029000  0.30279000  0.97319000  1
  C  C231  1  0.37820000  0.29700000  0.37820000  1
  C  C232  1  0.62684000  0.29231000  0.01032000  1
  C  C233  1  0.01032000  0.29231000  0.62684000  1
  C  C234  1  0.97621000  0.27981000  0.19161000  1
  C  C235  1  0.19161000  0.27981000  0.97621000  1
  C  C236  1  0.00000000  0.25700000  0.74300000  1
  C  C237  1  0.74300000  0.25700000  1.00000000  1
  C  C238  1  0.67756000  0.24134000  0.01156000  1
  C  C239  1  0.01156000  0.24134000  0.67756000  1
  C  C240  1  0.98203000  0.23771000  0.32575000  1
  C  C241  1  0.32575000  0.23771000  0.98203000  1
  C  C242  1  0.31557000  0.23312000  0.23312000  1
  C  C243  1  0.23312000  0.23312000  0.31557000  1
  C  C244  1  0.40392000  0.22882000  0.40392000  1
  C  C245  1  0.40420000  0.22703000  0.14020000  1
  C  C246  1  0.14020000  0.22703000  0.40420000  1
  C  C247  1  0.97450000  0.21285000  0.21285000  1
  C  C248  1  0.21285000  0.21285000  0.97450000  1
  C  C249  1  0.37587000  0.20042000  0.20042000  1
  C  C250  1  0.20042000  0.20042000  0.37587000  1
  C  C251  1  0.45610000  0.19370000  0.36910000  1
  C  C252  1  0.36910000  0.19370000  0.45610000  1
  C  C253  1  0.45814000  0.19292000  0.10945000  1
  C  C254  1  0.10945000  0.19292000  0.45814000  1
  C  C255  1  0.97621000  0.19161000  0.27981000  1
  C  C256  1  0.27981000  0.19161000  0.97621000  1
  C  C257  1  0.66229000  0.17007000  0.02643000  1
  C  C258  1  0.02643000  0.17007000  0.66229000  1
  C  C259  1  0.40420000  0.14020000  0.22703000  1
  C  C260  1  0.22703000  0.14020000  0.40420000  1
  C  C261  1  0.46897000  0.12777000  0.38517000  1
  C  C262  1  0.38517000  0.12777000  0.46897000  1
  C  C263  1  0.97319000  0.12029000  0.30279000  1
  C  C264  1  0.30279000  0.12029000  0.97319000  1
  C  C265  1  0.45814000  0.10945000  0.19292000  1
  C  C266  1  0.19292000  0.10945000  0.45814000  1
  C  C267  1  0.87971000  0.02681000  0.69721000  1
  C  C268  1  0.69721000  0.02681000  0.87971000  1
  C  C269  1  0.66229000  0.02643000  0.17007000  1
  C  C270  1  0.17007000  0.02643000  0.66229000  1
  C  C271  1  0.78715000  0.02550000  0.78715000  1
  C  C272  1  0.80839000  0.02379000  0.72019000  1
  C  C273  1  0.72019000  0.02379000  0.80839000  1
  C  C274  1  0.76229000  0.01797000  0.67425000  1
  C  C275  1  0.67425000  0.01797000  0.76229000  1
  C  C276  1  0.69532000  0.01482000  0.69532000  1
  C  C277  1  0.67756000  0.01156000  0.24134000  1
  C  C278  1  0.24134000  0.01156000  0.67756000  1
  C  C279  1  0.62684000  0.01032000  0.29231000  1
  C  C280  1  0.29231000  0.01032000  0.62684000  1
  C  C281  1  0.64740000  0.00740000  0.64740000  1
  N  N282  1  0.56610000  0.90620000  0.56610000  1
  N  N283  1  0.86595000  0.86596000  0.51625000  1
  N  N284  1  0.51625000  0.86595000  0.86595000  1
  N  N285  1  0.71052000  0.79682000  0.71052000  1
  N  N286  1  0.79682000  0.71052000  0.71052000  1
  N  N287  1  0.71052000  0.71052000  0.79682000  1
  N  N288  1  0.67776000  0.67776000  0.59000000  1
  N  N289  1  0.59000000  0.67776000  0.67776000  1
  N  N290  1  0.67776000  0.59000000  0.67776000  1
  N  N291  1  0.90620000  0.56610000  0.56610000  1
  N  N292  1  0.56610000  0.56610000  0.90620000  1
  N  N293  1  0.86595000  0.51625000  0.86595000  1
  N  N294  1  0.13404000  0.48375000  0.13404000  1
  N  N295  1  0.43390000  0.43390000  0.09380000  1
  N  N296  1  0.09380000  0.43390000  0.43390000  1
  N  N297  1  0.32224000  0.41000000  0.32224000  1
  N  N298  1  0.41000000  0.32224000  0.32224000  1
  N  N299  1  0.32224000  0.32224000  0.41000000  1
  N  N300  1  0.28948000  0.28948000  0.20318000  1
  N  N301  1  0.20318000  0.28948000  0.28948000  1
  N  N302  1  0.28948000  0.20318000  0.28948000  1
  N  N303  1  0.48375000  0.13404000  0.13404000  1
  N  N304  1  0.13404000  0.13404000  0.48375000  1
  N  N305  1  0.43390000  0.09380000  0.43390000  1
  O  O306  1  0.41397000  0.99357000  0.33325000  1
  O  O307  1  0.33325000  0.99357000  0.41397000  1
  O  O308  1  0.36556000  0.98896000  0.10166000  1
  O  O309  1  0.10166000  0.98896000  0.36556000  1
  O  O310  1  0.98295000  0.98296000  0.38152000  1
  O  O311  1  0.38152000  0.98296000  0.98295000  1
  O  O312  1  0.87282000  0.98234000  0.29043000  1
  O  O313  1  0.29043000  0.98234000  0.87282000  1
  O  O314  1  0.53272000  0.98008000  0.40080000  1
  O  O315  1  0.40080000  0.98008000  0.53272000  1
  O  O316  1  0.26166000  0.97278000  0.07855000  1
  O  O317  1  0.07855000  0.97278000  0.26166000  1
  O  O318  1  0.84012000  0.95302000  0.39655000  1
  O  O319  1  0.39655000  0.95302000  0.84012000  1
  O  O320  1  0.73834000  0.92145000  0.02722000  1
  O  O321  1  0.02722000  0.92145000  0.73834000  1
  O  O322  1  0.63444000  0.89834000  0.01104000  1
  O  O323  1  0.01104000  0.89834000  0.63444000  1
  O  O324  1  0.98234000  0.87282000  0.29043000  1
  O  O325  1  0.29043000  0.87282000  0.98234000  1
  O  O326  1  0.95302000  0.84012000  0.39655000  1
  O  O327  1  0.39655000  0.84012000  0.95302000  1
  O  O328  1  0.92145000  0.73834000  0.02722000  1
  O  O329  1  0.02722000  0.73834000  0.92145000  1
  O  O330  1  0.12718000  0.70957000  0.01766000  1
  O  O331  1  0.01766000  0.70957000  0.12718000  1
  O  O332  1  0.58603000  0.66675000  0.00643000  1
  O  O333  1  0.00643000  0.66675000  0.58603000  1
  O  O334  1  0.89834000  0.63444000  0.01104000  1
  O  O335  1  0.01104000  0.63444000  0.89834000  1
  O  O336  1  0.01704000  0.61848000  0.01704000  1
  O  O337  1  0.15988000  0.60345000  0.04698000  1
  O  O338  1  0.04698000  0.60345000  0.15988000  1
  O  O339  1  0.46728000  0.59920000  0.01992000  1
  O  O340  1  0.01992000  0.59920000  0.46728000  1
  O  O341  1  0.66675000  0.58603000  0.00643000  1
  O  O342  1  0.00643000  0.58603000  0.66675000  1
  O  O343  1  0.98008000  0.53272000  0.40080000  1
  O  O344  1  0.40080000  0.53272000  0.98008000  1
  O  O345  1  0.59920000  0.46728000  0.01992000  1
  O  O346  1  0.01992000  0.46728000  0.59920000  1
  O  O347  1  0.99357000  0.41397000  0.33325000  1
  O  O348  1  0.33325000  0.41397000  0.99357000  1
  O  O349  1  0.98008000  0.40080000  0.53272000  1
  O  O350  1  0.53272000  0.40080000  0.98008000  1
  O  O351  1  0.95302000  0.39655000  0.84012000  1
  O  O352  1  0.84012000  0.39655000  0.95302000  1
  O  O353  1  0.98295000  0.38152000  0.98295000  1
  O  O354  1  0.98896000  0.36556000  0.10166000  1
  O  O355  1  0.10166000  0.36556000  0.98896000  1
  O  O356  1  0.99357000  0.33325000  0.41397000  1
  O  O357  1  0.41397000  0.33325000  0.99357000  1
  O  O358  1  0.98234000  0.29043000  0.87282000  1
  O  O359  1  0.87282000  0.29043000  0.98234000  1
  O  O360  1  0.97278000  0.26166000  0.07855000  1
  O  O361  1  0.07855000  0.26166000  0.97278000  1
  O  O362  1  0.60345000  0.15988000  0.04698000  1
  O  O363  1  0.04698000  0.15988000  0.60345000  1
  O  O364  1  0.70957000  0.12718000  0.01766000  1
  O  O365  1  0.01766000  0.12718000  0.70957000  1
  O  O366  1  0.98896000  0.10166000  0.36556000  1
  O  O367  1  0.36556000  0.10166000  0.98896000  1
  O  O368  1  0.97278000  0.07855000  0.26166000  1
  O  O369  1  0.26166000  0.07855000  0.97278000  1
  O  O370  1  0.60345000  0.04698000  0.15988000  1
  O  O371  1  0.15988000  0.04698000  0.60345000  1
  O  O372  1  0.92145000  0.02722000  0.73834000  1
  O  O373  1  0.73834000  0.02722000  0.92145000  1
  O  O374  1  0.59920000  0.01992000  0.46728000  1
  O  O375  1  0.46728000  0.01992000  0.59920000  1
  O  O376  1  0.70957000  0.01766000  0.12718000  1
  O  O377  1  0.12718000  0.01766000  0.70957000  1
  O  O378  1  0.61848000  0.01704000  0.01704000  1
  O  O379  1  0.01704000  0.01704000  0.61848000  1
  O  O380  1  0.89834000  0.01104000  0.63444000  1
  O  O381  1  0.63444000  0.01104000  0.89834000  1
  O  O382  1  0.66675000  0.00643000  0.58603000  1
  O  O383  1  0.58603000  0.00643000  0.66675000  1
