# generated using pymatgen
data_In3Co2H6C30N9O25
_symmetry_space_group_name_H-M   'P 1'
_cell_length_a   13.89300000
_cell_length_b   13.89300000
_cell_length_c   18.36800000
_cell_angle_alpha   90.00000000
_cell_angle_beta   90.00000000
_cell_angle_gamma   120.00000000
_symmetry_Int_Tables_number   1
_chemical_formula_structural   In3Co2H6C30N9O25
_chemical_formula_sum   'In6 Co4 H12 C60 N18 O50'
_cell_volume   3070.32659066
_cell_formula_units_Z   2
loop_
 _symmetry_equiv_pos_site_id
 _symmetry_equiv_pos_as_xyz
  1  'x, y, z'
loop_
 _atom_site_type_symbol
 _atom_site_label
 _atom_site_symmetry_multiplicity
 _atom_site_fract_x
 _atom_site_fract_y
 _atom_site_fract_z
 _atom_site_occupancy
  In  In0  1  0.75152000  0.24848000  0.25000000  1
  In  In1  1  0.75152000  0.50304000  0.25000000  1
  In  In2  1  0.50304000  0.75152000  0.75000000  1
  In  In3  1  0.49696000  0.24848000  0.25000000  1
  In  In4  1  0.24848000  0.49696000  0.75000000  1
  In  In5  1  0.24848000  0.75152000  0.75000000  1
  Co  Co6  1  0.00000000  0.00000000  0.85323000  1
  Co  Co7  1  0.00000000  0.00000000  0.64677000  1
  Co  Co8  1  0.00000000  0.00000000  0.35323000  1
  Co  Co9  1  0.00000000  0.00000000  0.14677000  1
  H  H10  1  0.86070000  0.13930000  0.35090000  1
  H  H11  1  0.86070000  0.13930000  0.14910000  1
  H  H12  1  0.86070000  0.72140000  0.35090000  1
  H  H13  1  0.86070000  0.72140000  0.14910000  1
  H  H14  1  0.72140000  0.86070000  0.85090000  1
  H  H15  1  0.72140000  0.86070000  0.64910000  1
  H  H16  1  0.27860000  0.13930000  0.35090000  1
  H  H17  1  0.27860000  0.13930000  0.14910000  1
  H  H18  1  0.13930000  0.27860000  0.85090000  1
  H  H19  1  0.13930000  0.27860000  0.64910000  1
  H  H20  1  0.13930000  0.86070000  0.85090000  1
  H  H21  1  0.13930000  0.86070000  0.64910000  1
  C  C22  1  0.97160000  0.40030000  0.46590000  1
  C  C23  1  0.97160000  0.40030000  0.03410000  1
  C  C24  1  0.97160000  0.57130000  0.46590000  1
  C  C25  1  0.97160000  0.57130000  0.03410000  1
  C  C26  1  0.94490000  0.47245000  0.43240000  1
  C  C27  1  0.94490000  0.47245000  0.06760000  1
  C  C28  1  0.88540000  0.44270000  0.36160000  1
  C  C29  1  0.88540000  0.44270000  0.13840000  1
  C  C30  1  0.87370000  0.12630000  0.30330000  1
  C  C31  1  0.87370000  0.12630000  0.19670000  1
  C  C32  1  0.87370000  0.74740000  0.30330000  1
  C  C33  1  0.87370000  0.74740000  0.19670000  1
  C  C34  1  0.74740000  0.87370000  0.80330000  1
  C  C35  1  0.74740000  0.87370000  0.69670000  1
  C  C36  1  0.59970000  0.02840000  0.46590000  1
  C  C37  1  0.59970000  0.02840000  0.03410000  1
  C  C38  1  0.59970000  0.57130000  0.46590000  1
  C  C39  1  0.59970000  0.57130000  0.03410000  1
  C  C40  1  0.57130000  0.59970000  0.96590000  1
  C  C41  1  0.57130000  0.59970000  0.53410000  1
  C  C42  1  0.57130000  0.97160000  0.96590000  1
  C  C43  1  0.57130000  0.97160000  0.53410000  1
  C  C44  1  0.55730000  0.11460000  0.36160000  1
  C  C45  1  0.55730000  0.11460000  0.13840000  1
  C  C46  1  0.55730000  0.44270000  0.36160000  1
  C  C47  1  0.55730000  0.44270000  0.13840000  1
  C  C48  1  0.52755000  0.05510000  0.43240000  1
  C  C49  1  0.52755000  0.05510000  0.06760000  1
  C  C50  1  0.52755000  0.47245000  0.43240000  1
  C  C51  1  0.52755000  0.47245000  0.06760000  1
  C  C52  1  0.47245000  0.52755000  0.93240000  1
  C  C53  1  0.47245000  0.52755000  0.56760000  1
  C  C54  1  0.47245000  0.94490000  0.93240000  1
  C  C55  1  0.47245000  0.94490000  0.56760000  1
  C  C56  1  0.44270000  0.55730000  0.86160000  1
  C  C57  1  0.44270000  0.55730000  0.63840000  1
  C  C58  1  0.44270000  0.88540000  0.86160000  1
  C  C59  1  0.44270000  0.88540000  0.63840000  1
  C  C60  1  0.42870000  0.02840000  0.46590000  1
  C  C61  1  0.42870000  0.02840000  0.03410000  1
  C  C62  1  0.42870000  0.40030000  0.46590000  1
  C  C63  1  0.42870000  0.40030000  0.03410000  1
  C  C64  1  0.40030000  0.42870000  0.96590000  1
  C  C65  1  0.40030000  0.42870000  0.53410000  1
  C  C66  1  0.40030000  0.97160000  0.96590000  1
  C  C67  1  0.40030000  0.97160000  0.53410000  1
  C  C68  1  0.25260000  0.12630000  0.30330000  1
  C  C69  1  0.25260000  0.12630000  0.19670000  1
  C  C70  1  0.12630000  0.25260000  0.80330000  1
  C  C71  1  0.12630000  0.25260000  0.69670000  1
  C  C72  1  0.12630000  0.87370000  0.80330000  1
  C  C73  1  0.12630000  0.87370000  0.69670000  1
  C  C74  1  0.11460000  0.55730000  0.86160000  1
  C  C75  1  0.11460000  0.55730000  0.63840000  1
  C  C76  1  0.05510000  0.52755000  0.93240000  1
  C  C77  1  0.05510000  0.52755000  0.56760000  1
  C  C78  1  0.02840000  0.42870000  0.96590000  1
  C  C79  1  0.02840000  0.42870000  0.53410000  1
  C  C80  1  0.02840000  0.59970000  0.96590000  1
  C  C81  1  0.02840000  0.59970000  0.53410000  1
  N  N82  1  0.92760000  0.07240000  0.28840000  1
  N  N83  1  0.92760000  0.07240000  0.21160000  1
  N  N84  1  0.92760000  0.85520000  0.28840000  1
  N  N85  1  0.92760000  0.85520000  0.21160000  1
  N  N86  1  0.85520000  0.92760000  0.78840000  1
  N  N87  1  0.85520000  0.92760000  0.71160000  1
  N  N88  1  0.84100000  0.15900000  0.25000000  1
  N  N89  1  0.84100000  0.68200000  0.25000000  1
  N  N90  1  0.68200000  0.84100000  0.75000000  1
  N  N91  1  0.31800000  0.15900000  0.25000000  1
  N  N92  1  0.15900000  0.31800000  0.75000000  1
  N  N93  1  0.15900000  0.84100000  0.75000000  1
  N  N94  1  0.14480000  0.07240000  0.28840000  1
  N  N95  1  0.14480000  0.07240000  0.21160000  1
  N  N96  1  0.07240000  0.14480000  0.78840000  1
  N  N97  1  0.07240000  0.14480000  0.71160000  1
  N  N98  1  0.07240000  0.92760000  0.78840000  1
  N  N99  1  0.07240000  0.92760000  0.71160000  1
  O  O100  1  0.94400000  0.30300000  0.44220000  1
  O  O101  1  0.94400000  0.30300000  0.05780000  1
  O  O102  1  0.94400000  0.64100000  0.44220000  1
  O  O103  1  0.94400000  0.64100000  0.05780000  1
  O  O104  1  0.86100000  0.34990000  0.33470000  1
  O  O105  1  0.86100000  0.34990000  0.16530000  1
  O  O106  1  0.86100000  0.51110000  0.33470000  1
  O  O107  1  0.86100000  0.51110000  0.16530000  1
  O  O108  1  0.69700000  0.05600000  0.44220000  1
  O  O109  1  0.69700000  0.05600000  0.05780000  1
  O  O110  1  0.69700000  0.64100000  0.44220000  1
  O  O111  1  0.69700000  0.64100000  0.05780000  1
  O  O112  1  0.66666667  0.33333333  0.25000000  1
  O  O113  1  0.65010000  0.13900000  0.33470000  1
  O  O114  1  0.65010000  0.13900000  0.16530000  1
  O  O115  1  0.65010000  0.51110000  0.33470000  1
  O  O116  1  0.65010000  0.51110000  0.16530000  1
  O  O117  1  0.64100000  0.69700000  0.94220000  1
  O  O118  1  0.64100000  0.69700000  0.55780000  1
  O  O119  1  0.64100000  0.94400000  0.94220000  1
  O  O120  1  0.64100000  0.94400000  0.55780000  1
  O  O121  1  0.51110000  0.65010000  0.83470000  1
  O  O122  1  0.51110000  0.65010000  0.66530000  1
  O  O123  1  0.51110000  0.86100000  0.83470000  1
  O  O124  1  0.51110000  0.86100000  0.66530000  1
  O  O125  1  0.48890000  0.13900000  0.33470000  1
  O  O126  1  0.48890000  0.13900000  0.16530000  1
  O  O127  1  0.48890000  0.34990000  0.33470000  1
  O  O128  1  0.48890000  0.34990000  0.16530000  1
  O  O129  1  0.35900000  0.05600000  0.44220000  1
  O  O130  1  0.35900000  0.05600000  0.05780000  1
  O  O131  1  0.35900000  0.30300000  0.44220000  1
  O  O132  1  0.35900000  0.30300000  0.05780000  1
  O  O133  1  0.34990000  0.48890000  0.83470000  1
  O  O134  1  0.34990000  0.48890000  0.66530000  1
  O  O135  1  0.34990000  0.86100000  0.83470000  1
  O  O136  1  0.34990000  0.86100000  0.66530000  1
  O  O137  1  0.33333333  0.66666667  0.75000000  1
  O  O138  1  0.30300000  0.35900000  0.94220000  1
  O  O139  1  0.30300000  0.35900000  0.55780000  1
  O  O140  1  0.30300000  0.94400000  0.94220000  1
  O  O141  1  0.30300000  0.94400000  0.55780000  1
  O  O142  1  0.13900000  0.48890000  0.83470000  1
  O  O143  1  0.13900000  0.48890000  0.66530000  1
  O  O144  1  0.13900000  0.65010000  0.83470000  1
  O  O145  1  0.13900000  0.65010000  0.66530000  1
  O  O146  1  0.05600000  0.35900000  0.94220000  1
  O  O147  1  0.05600000  0.35900000  0.55780000  1
  O  O148  1  0.05600000  0.69700000  0.94220000  1
  O  O149  1  0.05600000  0.69700000  0.55780000  1
