# generated using pymatgen
data_ZnH10C17NO4
_symmetry_space_group_name_H-M   'P 1'
_cell_length_a   12.97580000
_cell_length_b   13.10950000
_cell_length_c   13.92580000
_cell_angle_alpha   85.31000000
_cell_angle_beta   70.71000000
_cell_angle_gamma   84.19300000
_symmetry_Int_Tables_number   1
_chemical_formula_structural   ZnH10C17NO4
_chemical_formula_sum   'Zn4 H40 C68 N4 O16'
_cell_volume   2221.45102907
_cell_formula_units_Z   4
loop_
 _symmetry_equiv_pos_site_id
 _symmetry_equiv_pos_as_xyz
  1  'x, y, z'
loop_
 _atom_site_type_symbol
 _atom_site_label
 _atom_site_symmetry_multiplicity
 _atom_site_fract_x
 _atom_site_fract_y
 _atom_site_fract_z
 _atom_site_occupancy
  Zn  Zn0  1  0.12893000  0.32562000  0.88645000  1
  Zn  Zn1  1  0.19248000  0.31891000  0.66323000  1
  Zn  Zn2  1  0.80752000  0.68109000  0.33677000  1
  Zn  Zn3  1  0.87107000  0.67438000  0.11355000  1
  H  H4  1  0.06520000  0.45020000  0.37310000  1
  H  H5  1  0.08160000  0.46630000  0.06040000  1
  H  H6  1  0.09090000  0.44830000  0.52860000  1
  H  H7  1  0.09900000  0.46760000  0.21630000  1
  H  H8  1  0.10560000  0.82340000  0.97650000  1
  H  H9  1  0.11710000  0.99890000  0.95720000  1
  H  H10  1  0.11960000  0.17490000  0.05830000  1
  H  H11  1  0.12470000  0.65550000  0.89840000  1
  H  H12  1  0.12790000  0.69490000  0.33170000  1
  H  H13  1  0.13530000  0.16720000  0.21750000  1
  H  H14  1  0.17040000  0.64970000  0.60100000  1
  H  H15  1  0.18410000  0.82000000  0.57340000  1
  H  H16  1  0.19620000  0.16800000  0.34260000  1
  H  H17  1  0.20100000  0.98860000  0.65080000  1
  H  H18  1  0.20900000  0.17060000  0.50410000  1
  H  H19  1  0.24000000  0.65260000  0.02930000  1
  H  H20  1  0.26280000  0.71210000  0.42350000  1
  H  H21  1  0.41800000  0.65020000  0.02790000  1
  H  H22  1  0.43940000  0.71360000  0.42150000  1
  H  H23  1  0.44900000  0.32940000  0.88050000  1
  H  H24  1  0.55100000  0.67060000  0.11950000  1
  H  H25  1  0.56060000  0.28640000  0.57850000  1
  H  H26  1  0.58200000  0.34980000  0.97210000  1
  H  H27  1  0.73720000  0.28790000  0.57650000  1
  H  H28  1  0.76000000  0.34740000  0.97070000  1
  H  H29  1  0.79100000  0.82940000  0.49590000  1
  H  H30  1  0.79900000  0.01140000  0.34920000  1
  H  H31  1  0.80380000  0.83200000  0.65740000  1
  H  H32  1  0.81590000  0.18000000  0.42660000  1
  H  H33  1  0.82960000  0.35030000  0.39900000  1
  H  H34  1  0.86470000  0.83280000  0.78250000  1
  H  H35  1  0.87210000  0.30510000  0.66830000  1
  H  H36  1  0.87530000  0.34450000  0.10160000  1
  H  H37  1  0.88040000  0.82510000  0.94170000  1
  H  H38  1  0.88290000  0.00110000  0.04280000  1
  H  H39  1  0.89440000  0.17660000  0.02350000  1
  H  H40  1  0.90100000  0.53240000  0.78370000  1
  H  H41  1  0.90910000  0.55170000  0.47140000  1
  H  H42  1  0.91840000  0.53370000  0.93960000  1
  H  H43  1  0.93480000  0.54980000  0.62690000  1
  C  C44  1  0.05161000  0.67168000  0.18473000  1
  C  C45  1  0.10862000  0.40440000  0.08729000  1
  C  C46  1  0.11110000  0.39680000  0.39198000  1
  C  C47  1  0.11798000  0.40591000  0.18094000  1
  C  C48  1  0.12525000  0.85621000  0.91027000  1
  C  C49  1  0.12580000  0.39399000  0.48513000  1
  C  C50  1  0.12950000  0.23595000  0.08545000  1
  C  C51  1  0.13174000  0.96021000  0.89872000  1
  C  C52  1  0.13860000  0.23120000  0.17975000  1
  C  C53  1  0.14218000  0.68976000  0.83284000  1
  C  C54  1  0.14766000  0.79746000  0.82417000  1
  C  C55  1  0.15326000  0.32222000  0.22350000  1
  C  C56  1  0.15746000  0.51922000  0.76033000  1
  C  C57  1  0.15991000  0.01121000  0.80109000  1
  C  C58  1  0.16133000  0.63410000  0.74972000  1
  C  C59  1  0.16280000  0.12564000  0.79067000  1
  C  C60  1  0.16399000  0.32067000  0.32588000  1
  C  C61  1  0.16702000  0.67306000  0.18291000  1
  C  C62  1  0.17000000  0.68825000  0.65604000  1
  C  C63  1  0.17558000  0.84751000  0.72662000  1
  C  C64  1  0.17760000  0.78769000  0.63848000  1
  C  C65  1  0.18166000  0.95484000  0.71665000  1
  C  C66  1  0.18660000  0.23133000  0.37423000  1
  C  C67  1  0.18748000  0.68673000  0.27029000  1
  C  C68  1  0.19540000  0.23400000  0.47046000  1
  C  C69  1  0.25461000  0.66078000  0.09066000  1
  C  C70  1  0.29565000  0.68906000  0.27169000  1
  C  C71  1  0.32093000  0.70314000  0.36121000  1
  C  C72  1  0.35976000  0.66072000  0.08984000  1
  C  C73  1  0.37024000  0.31186000  0.73314000  1
  C  C74  1  0.38429000  0.67592000  0.17867000  1
  C  C75  1  0.42512000  0.70414000  0.36031000  1
  C  C76  1  0.48739000  0.30886000  0.73100000  1
  C  C77  1  0.49134000  0.67825000  0.18101000  1
  C  C78  1  0.50866000  0.32175000  0.81899000  1
  C  C79  1  0.51261000  0.69114000  0.26900000  1
  C  C80  1  0.57488000  0.29586000  0.63969000  1
  C  C81  1  0.61571000  0.32408000  0.82133000  1
  C  C82  1  0.62976000  0.68814000  0.26686000  1
  C  C83  1  0.64024000  0.33928000  0.91016000  1
  C  C84  1  0.67907000  0.29686000  0.63879000  1
  C  C85  1  0.70435000  0.31094000  0.72831000  1
  C  C86  1  0.74539000  0.33922000  0.90934000  1
  C  C87  1  0.80460000  0.76600000  0.52954000  1
  C  C88  1  0.81252000  0.31327000  0.72971000  1
  C  C89  1  0.81340000  0.76867000  0.62577000  1
  C  C90  1  0.81834000  0.04516000  0.28335000  1
  C  C91  1  0.82240000  0.21231000  0.36152000  1
  C  C92  1  0.82442000  0.15249000  0.27338000  1
  C  C93  1  0.83000000  0.31175000  0.34396000  1
  C  C94  1  0.83298000  0.32694000  0.81709000  1
  C  C95  1  0.83601000  0.67933000  0.67412000  1
  C  C96  1  0.83720000  0.87436000  0.20933000  1
  C  C97  1  0.83867000  0.36590000  0.25028000  1
  C  C98  1  0.84009000  0.98879000  0.19891000  1
  C  C99  1  0.84254000  0.48078000  0.23967000  1
  C  C100  1  0.84674000  0.67778000  0.77650000  1
  C  C101  1  0.85234000  0.20254000  0.17583000  1
  C  C102  1  0.85782000  0.31024000  0.16716000  1
  C  C103  1  0.86140000  0.76880000  0.82025000  1
  C  C104  1  0.86826000  0.03979000  0.10128000  1
  C  C105  1  0.87050000  0.76405000  0.91455000  1
  C  C106  1  0.87420000  0.60601000  0.51487000  1
  C  C107  1  0.87475000  0.14379000  0.08973000  1
  C  C108  1  0.88202000  0.59409000  0.81906000  1
  C  C109  1  0.88890000  0.60320000  0.60802000  1
  C  C110  1  0.89138000  0.59560000  0.91271000  1
  C  C111  1  0.94839000  0.32832000  0.81527000  1
  N  N112  1  0.13399000  0.32378000  0.02964000  1
  N  N113  1  0.18601000  0.32008000  0.51920000  1
  N  N114  1  0.81399000  0.67992000  0.48080000  1
  N  N115  1  0.86601000  0.67622000  0.97036000  1
  O  O116  1  0.02260000  0.32630000  0.72878000  1
  O  O117  1  0.03390000  0.66515000  0.10177000  1
  O  O118  1  0.13121000  0.47804000  0.84895000  1
  O  O119  1  0.13347000  0.17274000  0.87144000  1
  O  O120  1  0.18100000  0.47280000  0.67859000  1
  O  O121  1  0.19199000  0.16632000  0.70096000  1
  O  O122  1  0.29685000  0.31456000  0.81760000  1
  O  O123  1  0.35438000  0.31195000  0.64860000  1
  O  O124  1  0.64562000  0.68805000  0.35140000  1
  O  O125  1  0.70315000  0.68544000  0.18240000  1
  O  O126  1  0.80801000  0.83368000  0.29904000  1
  O  O127  1  0.81900000  0.52720000  0.32141000  1
  O  O128  1  0.86653000  0.82726000  0.12856000  1
  O  O129  1  0.86879000  0.52196000  0.15105000  1
  O  O130  1  0.96610000  0.33485000  0.89823000  1
  O  O131  1  0.97740000  0.67370000  0.27122000  1
