# generated using pymatgen
data_Zn3Si2H32(C7O2)8
_symmetry_space_group_name_H-M   'P 1'
_cell_length_a   13.70100000
_cell_length_b   14.34410000
_cell_length_c   24.53470000
_cell_angle_alpha   78.36860000
_cell_angle_beta   73.78650000
_cell_angle_gamma   61.47220000
_symmetry_Int_Tables_number   1
_chemical_formula_structural   Zn3Si2H32(C7O2)8
_chemical_formula_sum   'Zn6 Si4 H64 C112 O32'
_cell_volume   4054.50868119
_cell_formula_units_Z   2
loop_
 _symmetry_equiv_pos_site_id
 _symmetry_equiv_pos_as_xyz
  1  'x, y, z'
loop_
 _atom_site_type_symbol
 _atom_site_label
 _atom_site_symmetry_multiplicity
 _atom_site_fract_x
 _atom_site_fract_y
 _atom_site_fract_z
 _atom_site_occupancy
  Zn  Zn0  1  0.26935000  0.58307000  0.45633000  1
  Zn  Zn1  1  0.30875000  0.91693000  0.04367000  1
  Zn  Zn2  1  0.50000000  0.00000000  0.00000000  1
  Zn  Zn3  1  0.50000000  0.50000000  0.50000000  1
  Zn  Zn4  1  0.69125000  0.08307000  0.95633000  1
  Zn  Zn5  1  0.73065000  0.41693000  0.54367000  1
  Si  Si6  1  0.07080000  0.44863000  0.82721000  1
  Si  Si7  1  0.34664000  0.05137000  0.67279000  1
  Si  Si8  1  0.65336000  0.94863000  0.32721000  1
  Si  Si9  1  0.92920000  0.55137000  0.17279000  1
  H  H10  1  0.01660000  0.45940000  0.71680000  1
  H  H11  1  0.02010000  0.85000000  0.09580000  1
  H  H12  1  0.03410000  0.35000000  0.59580000  1
  H  H13  1  0.04080000  0.88680000  0.31540000  1
  H  H14  1  0.05320000  0.66350000  0.81010000  1
  H  H15  1  0.06880000  0.17580000  0.14800000  1
  H  H16  1  0.08420000  0.50160000  0.62200000  1
  H  H17  1  0.09130000  0.24050000  0.88390000  1
  H  H18  1  0.13150000  0.52270000  0.20490000  1
  H  H19  1  0.14090000  0.02270000  0.70490000  1
  H  H20  1  0.14450000  0.47050000  0.08970000  1
  H  H21  1  0.14980000  0.50550000  0.90890000  1
  H  H22  1  0.19280000  0.04060000  0.78320000  1
  H  H23  1  0.20780000  0.99840000  0.87800000  1
  H  H24  1  0.21570000  0.25950000  0.61610000  1
  H  H25  1  0.24300000  0.61320000  0.18460000  1
  H  H26  1  0.25790000  0.49180000  0.76280000  1
  H  H27  1  0.26640000  0.30990000  0.04770000  1
  H  H28  1  0.27070000  0.23940000  0.82980000  1
  H  H29  1  0.29530000  0.97050000  0.58970000  1
  H  H30  1  0.30540000  0.42750000  0.95190000  1
  H  H31  1  0.31520000  0.92750000  0.45190000  1
  H  H32  1  0.33200000  0.52570000  0.66830000  1
  H  H33  1  0.33990000  0.26060000  0.67020000  1
  H  H34  1  0.37600000  0.80990000  0.54770000  1
  H  H35  1  0.39260000  0.32420000  0.35200000  1
  H  H36  1  0.41980000  0.15620000  0.87700000  1
  H  H37  1  0.43580000  0.00550000  0.40890000  1
  H  H38  1  0.45300000  0.34380000  0.62300000  1
  H  H39  1  0.47320000  0.16350000  0.31010000  1
  H  H40  1  0.47400000  0.02570000  0.16830000  1
  H  H41  1  0.48750000  0.99180000  0.26280000  1
  H  H42  1  0.51250000  0.00820000  0.73720000  1
  H  H43  1  0.52600000  0.97430000  0.83170000  1
  H  H44  1  0.52680000  0.83650000  0.68990000  1
  H  H45  1  0.54700000  0.65620000  0.37700000  1
  H  H46  1  0.56420000  0.99450000  0.59110000  1
  H  H47  1  0.58020000  0.84380000  0.12300000  1
  H  H48  1  0.60740000  0.67580000  0.64800000  1
  H  H49  1  0.62400000  0.19010000  0.45230000  1
  H  H50  1  0.66010000  0.73940000  0.32980000  1
  H  H51  1  0.66800000  0.47430000  0.33170000  1
  H  H52  1  0.68480000  0.07250000  0.54810000  1
  H  H53  1  0.69460000  0.57250000  0.04810000  1
  H  H54  1  0.70470000  0.02950000  0.41030000  1
  H  H55  1  0.72930000  0.76060000  0.17020000  1
  H  H56  1  0.73360000  0.69010000  0.95230000  1
  H  H57  1  0.74210000  0.50820000  0.23720000  1
  H  H58  1  0.75700000  0.38680000  0.81540000  1
  H  H59  1  0.78430000  0.74050000  0.38390000  1
  H  H60  1  0.79220000  0.00160000  0.12200000  1
  H  H61  1  0.80720000  0.95940000  0.21680000  1
  H  H62  1  0.85020000  0.49450000  0.09110000  1
  H  H63  1  0.85550000  0.52950000  0.91030000  1
  H  H64  1  0.85910000  0.97730000  0.29510000  1
  H  H65  1  0.86850000  0.47730000  0.79510000  1
  H  H66  1  0.90870000  0.75950000  0.11610000  1
  H  H67  1  0.91580000  0.49840000  0.37800000  1
  H  H68  1  0.93120000  0.82420000  0.85200000  1
  H  H69  1  0.94680000  0.33650000  0.18990000  1
  H  H70  1  0.95920000  0.11320000  0.68460000  1
  H  H71  1  0.96590000  0.65000000  0.40420000  1
  H  H72  1  0.97990000  0.15000000  0.90420000  1
  H  H73  1  0.98340000  0.54060000  0.28320000  1
  C  C74  1  0.00963000  0.63251000  0.16243000  1
  C  C75  1  0.01130000  0.14290000  0.67070000  1
  C  C76  1  0.01173000  0.33104000  0.16110000  1
  C  C77  1  0.02041000  0.75991000  0.36167000  1
  C  C78  1  0.02350000  0.27020000  0.87000000  1
  C  C79  1  0.03424000  0.41856000  0.14376000  1
  C  C80  1  0.04270000  0.78360000  0.11800000  1
  C  C81  1  0.05570000  0.28360000  0.61800000  1
  C  C82  1  0.07970000  0.47510000  0.70710000  1
  C  C83  1  0.08408000  0.23564000  0.13620000  1
  C  C84  1  0.10900000  0.58902000  0.18278000  1
  C  C85  1  0.11920000  0.08902000  0.68278000  1
  C  C86  1  0.12070000  0.49850000  0.65050000  1
  C  C87  1  0.12861000  0.47360000  0.75018000  1
  C  C88  1  0.12911000  0.41068000  0.10150000  1
  C  C89  1  0.13410000  0.70400000  0.37760000  1
  C  C90  1  0.14199000  0.74009000  0.13833000  1
  C  C91  1  0.16370000  0.22980000  0.63000000  1
  C  C92  1  0.17510000  0.64290000  0.17070000  1
  C  C93  1  0.17904000  0.22782000  0.09390000  1
  C  C94  1  0.19304000  0.38167000  0.86505000  1
  C  C95  1  0.19543000  0.13251000  0.66243000  1
  C  C96  1  0.20156000  0.31528000  0.07660000  1
  C  C97  1  0.20570000  0.43450000  0.90170000  1
  C  C98  1  0.21570000  0.79600000  0.12240000  1
  C  C99  1  0.21632000  0.51781000  0.63555000  1
  C  C100  1  0.22250000  0.49292000  0.73428000  1
  C  C101  1  0.25315000  0.12247000  0.06523000  1
  C  C102  1  0.26190000  0.02490000  0.79290000  1
  C  C103  1  0.26640000  0.51386000  0.67794000  1
  C  C104  1  0.26766000  0.53477000  0.57431000  1
  C  C105  1  0.26970000  0.00150000  0.84950000  1
  C  C106  1  0.27600000  0.27720000  0.85560000  1
  C  C107  1  0.29740000  0.38780000  0.92820000  1
  C  C108  1  0.34551000  0.72931000  0.44867000  1
  C  C109  1  0.35239000  0.02640000  0.74982000  1
  C  C110  1  0.35871000  0.91068000  0.60150000  1
  C  C111  1  0.36586000  0.22798000  0.88330000  1
  C  C112  1  0.36968000  0.98219000  0.86445000  1
  C  C113  1  0.37674000  0.96523000  0.92569000  1
  C  C114  1  0.37868000  0.28126000  0.91998000  1
  C  C115  1  0.38660000  0.88780000  0.42820000  1
  C  C116  1  0.40344000  0.91856000  0.64376000  1
  C  C117  1  0.40656000  0.81528000  0.57660000  1
  C  C118  1  0.40880000  0.22280000  0.64440000  1
  C  C119  1  0.42008000  0.78126000  0.41998000  1
  C  C120  1  0.43976000  0.11833000  0.63495000  1
  C  C121  1  0.44085000  0.37753000  0.43477000  1
  C  C122  1  0.44970000  0.00708000  0.76572000  1
  C  C123  1  0.45592000  0.26436000  0.36380000  1
  C  C124  1  0.45810000  0.93450000  0.40170000  1
  C  C125  1  0.45820000  0.98614000  0.82206000  1
  C  C126  1  0.47651000  0.22931000  0.94867000  1
  C  C127  1  0.47714000  0.27202000  0.61670000  1
  C  C128  1  0.49613000  0.83104000  0.66110000  1
  C  C129  1  0.49924000  0.72782000  0.59390000  1
  C  C130  1  0.50076000  0.27218000  0.40610000  1
  C  C131  1  0.50387000  0.16896000  0.33890000  1
  C  C132  1  0.52286000  0.72798000  0.38330000  1
  C  C133  1  0.52349000  0.77069000  0.05133000  1
  C  C134  1  0.54180000  0.01386000  0.17794000  1
  C  C135  1  0.54190000  0.06550000  0.59830000  1
  C  C136  1  0.54408000  0.73564000  0.63620000  1
  C  C137  1  0.55030000  0.99292000  0.23428000  1
  C  C138  1  0.55915000  0.62247000  0.56523000  1
  C  C139  1  0.56024000  0.88167000  0.36505000  1
  C  C140  1  0.57992000  0.21874000  0.58002000  1
  C  C141  1  0.59120000  0.77720000  0.35560000  1
  C  C142  1  0.59344000  0.18472000  0.42340000  1
  C  C143  1  0.59656000  0.08144000  0.35624000  1
  C  C144  1  0.61340000  0.11220000  0.57180000  1
  C  C145  1  0.62132000  0.71874000  0.08002000  1
  C  C146  1  0.62326000  0.03477000  0.07431000  1
  C  C147  1  0.63032000  0.01781000  0.13555000  1
  C  C148  1  0.63414000  0.77202000  0.11670000  1
  C  C149  1  0.64129000  0.08932000  0.39850000  1
  C  C150  1  0.64761000  0.97360000  0.25018000  1
  C  C151  1  0.65449000  0.27069000  0.55133000  1
  C  C152  1  0.70260000  0.61220000  0.07180000  1
  C  C153  1  0.72400000  0.72280000  0.14440000  1
  C  C154  1  0.73030000  0.99850000  0.15050000  1
  C  C155  1  0.73234000  0.46523000  0.42569000  1
  C  C156  1  0.73360000  0.48614000  0.32206000  1
  C  C157  1  0.73810000  0.97510000  0.20710000  1
  C  C158  1  0.74685000  0.87753000  0.93477000  1
  C  C159  1  0.77750000  0.50708000  0.26572000  1
  C  C160  1  0.78368000  0.48219000  0.36445000  1
  C  C161  1  0.78430000  0.20400000  0.87760000  1
  C  C162  1  0.79430000  0.56550000  0.09830000  1
  C  C163  1  0.79844000  0.68472000  0.92340000  1
  C  C164  1  0.80457000  0.86749000  0.33757000  1
  C  C165  1  0.80696000  0.61833000  0.13495000  1
  C  C166  1  0.82096000  0.77218000  0.90610000  1
  C  C167  1  0.82490000  0.35710000  0.82930000  1
  C  C168  1  0.83630000  0.77020000  0.37000000  1
  C  C169  1  0.85801000  0.25991000  0.86167000  1
  C  C170  1  0.86590000  0.29600000  0.62240000  1
  C  C171  1  0.87089000  0.58932000  0.89850000  1
  C  C172  1  0.87139000  0.52640000  0.24982000  1
  C  C173  1  0.87930000  0.50150000  0.34950000  1
  C  C174  1  0.88080000  0.91098000  0.31722000  1
  C  C175  1  0.89100000  0.41098000  0.81722000  1
  C  C176  1  0.91592000  0.76436000  0.86380000  1
  C  C177  1  0.92030000  0.52490000  0.29290000  1
  C  C178  1  0.94430000  0.71640000  0.38200000  1
  C  C179  1  0.95730000  0.21640000  0.88200000  1
  C  C180  1  0.96576000  0.58144000  0.85624000  1
  C  C181  1  0.97650000  0.72980000  0.13000000  1
  C  C182  1  0.97959000  0.24009000  0.63833000  1
  C  C183  1  0.98827000  0.66896000  0.83890000  1
  C  C184  1  0.98870000  0.85710000  0.32930000  1
  C  C185  1  0.99037000  0.36749000  0.83757000  1
  O  O186  1  0.13220000  0.65100000  0.42700000  1
  O  O187  1  0.21020000  0.84900000  0.07300000  1
  O  O188  1  0.21261000  0.55021000  0.53737000  1
  O  O189  1  0.21420000  0.72520000  0.35340000  1
  O  O190  1  0.22331000  0.05058000  0.08180000  1
  O  O191  1  0.24709000  0.78136000  0.47366000  1
  O  O192  1  0.29280000  0.77480000  0.14660000  1
  O  O193  1  0.30019000  0.94979000  0.96263000  1
  O  O194  1  0.33870000  0.11740000  0.02780000  1
  O  O195  1  0.35569000  0.44942000  0.41820000  1
  O  O196  1  0.36475000  0.53153000  0.56517000  1
  O  O197  1  0.38946000  0.62706000  0.44422000  1
  O  O198  1  0.46074000  0.87294000  0.05578000  1
  O  O199  1  0.46145000  0.96847000  0.93483000  1
  O  O200  1  0.48390000  0.38260000  0.47220000  1
  O  O201  1  0.49789000  0.28136000  0.97366000  1
  O  O202  1  0.50211000  0.71864000  0.02634000  1
  O  O203  1  0.51610000  0.61740000  0.52780000  1
  O  O204  1  0.53855000  0.03153000  0.06517000  1
  O  O205  1  0.53926000  0.12706000  0.94422000  1
  O  O206  1  0.61054000  0.37294000  0.55578000  1
  O  O207  1  0.63525000  0.46847000  0.43483000  1
  O  O208  1  0.64431000  0.55058000  0.58180000  1
  O  O209  1  0.66130000  0.88260000  0.97220000  1
  O  O210  1  0.69981000  0.05021000  0.03737000  1
  O  O211  1  0.70720000  0.22520000  0.85340000  1
  O  O212  1  0.75291000  0.21864000  0.52634000  1
  O  O213  1  0.77669000  0.94942000  0.91820000  1
  O  O214  1  0.78580000  0.27480000  0.64660000  1
  O  O215  1  0.78739000  0.44979000  0.46263000  1
  O  O216  1  0.78980000  0.15100000  0.92700000  1
  O  O217  1  0.86780000  0.34900000  0.57300000  1
