# generated using pymatgen
data_EuH6C15NO8
_symmetry_space_group_name_H-M   'P 1'
_cell_length_a   12.78000000
_cell_length_b   13.35800000
_cell_length_c   28.66800000
_cell_angle_alpha   90.00000000
_cell_angle_beta   90.00000000
_cell_angle_gamma   90.00000000
_symmetry_Int_Tables_number   1
_chemical_formula_structural   EuH6C15NO8
_chemical_formula_sum   'Eu8 H48 C120 N8 O64'
_cell_volume   4894.06450032
_cell_formula_units_Z   8
loop_
 _symmetry_equiv_pos_site_id
 _symmetry_equiv_pos_as_xyz
  1  'x, y, z'
loop_
 _atom_site_type_symbol
 _atom_site_label
 _atom_site_symmetry_multiplicity
 _atom_site_fract_x
 _atom_site_fract_y
 _atom_site_fract_z
 _atom_site_occupancy
  Eu  Eu0  1  0.08915000  0.04199000  0.06996000  1
  Eu  Eu1  1  0.08915000  0.95801000  0.56996000  1
  Eu  Eu2  1  0.41085000  0.45801000  0.56996000  1
  Eu  Eu3  1  0.41085000  0.54199000  0.06996000  1
  Eu  Eu4  1  0.58915000  0.45801000  0.93004000  1
  Eu  Eu5  1  0.58915000  0.54199000  0.43004000  1
  Eu  Eu6  1  0.91085000  0.04199000  0.43004000  1
  Eu  Eu7  1  0.91085000  0.95801000  0.93004000  1
  H  H8  1  0.10160000  0.10290000  0.87150000  1
  H  H9  1  0.10160000  0.89710000  0.37150000  1
  H  H10  1  0.13300000  0.01650000  0.71540000  1
  H  H11  1  0.13300000  0.98350000  0.21540000  1
  H  H12  1  0.16760000  0.03610000  0.79400000  1
  H  H13  1  0.16760000  0.96390000  0.29400000  1
  H  H14  1  0.17400000  0.33450000  0.77720000  1
  H  H15  1  0.17400000  0.66550000  0.27720000  1
  H  H16  1  0.18230000  0.19690000  0.33280000  1
  H  H17  1  0.18230000  0.80310000  0.83280000  1
  H  H18  1  0.21040000  0.27230000  0.46740000  1
  H  H19  1  0.21040000  0.72770000  0.96740000  1
  H  H20  1  0.28960000  0.22770000  0.96740000  1
  H  H21  1  0.28960000  0.77230000  0.46740000  1
  H  H22  1  0.31770000  0.30310000  0.83280000  1
  H  H23  1  0.31770000  0.69690000  0.33280000  1
  H  H24  1  0.32600000  0.16550000  0.27720000  1
  H  H25  1  0.32600000  0.83450000  0.77720000  1
  H  H26  1  0.33240000  0.46390000  0.29400000  1
  H  H27  1  0.33240000  0.53610000  0.79400000  1
  H  H28  1  0.36700000  0.48350000  0.21540000  1
  H  H29  1  0.36700000  0.51650000  0.71540000  1
  H  H30  1  0.39840000  0.39710000  0.37150000  1
  H  H31  1  0.39840000  0.60290000  0.87150000  1
  H  H32  1  0.60160000  0.39710000  0.12850000  1
  H  H33  1  0.60160000  0.60290000  0.62850000  1
  H  H34  1  0.63300000  0.48350000  0.28460000  1
  H  H35  1  0.63300000  0.51650000  0.78460000  1
  H  H36  1  0.66760000  0.46390000  0.20600000  1
  H  H37  1  0.66760000  0.53610000  0.70600000  1
  H  H38  1  0.67400000  0.16550000  0.22280000  1
  H  H39  1  0.67400000  0.83450000  0.72280000  1
  H  H40  1  0.68230000  0.30310000  0.66720000  1
  H  H41  1  0.68230000  0.69690000  0.16720000  1
  H  H42  1  0.71040000  0.22770000  0.53260000  1
  H  H43  1  0.71040000  0.77230000  0.03260000  1
  H  H44  1  0.78960000  0.27230000  0.03260000  1
  H  H45  1  0.78960000  0.72770000  0.53260000  1
  H  H46  1  0.81770000  0.19690000  0.16720000  1
  H  H47  1  0.81770000  0.80310000  0.66720000  1
  H  H48  1  0.82600000  0.33450000  0.72280000  1
  H  H49  1  0.82600000  0.66550000  0.22280000  1
  H  H50  1  0.83240000  0.03610000  0.70600000  1
  H  H51  1  0.83240000  0.96390000  0.20600000  1
  H  H52  1  0.86700000  0.01650000  0.78460000  1
  H  H53  1  0.86700000  0.98350000  0.28460000  1
  H  H54  1  0.89840000  0.10290000  0.62850000  1
  H  H55  1  0.89840000  0.89710000  0.12850000  1
  C  C56  1  0.08940000  0.15930000  0.41260000  1
  C  C57  1  0.08940000  0.84070000  0.91260000  1
  C  C58  1  0.13000000  0.14470000  0.64560000  1
  C  C59  1  0.13000000  0.85530000  0.14560000  1
  C  C60  1  0.13140000  0.10350000  0.96460000  1
  C  C61  1  0.13140000  0.89650000  0.46460000  1
  C  C62  1  0.13460000  0.16340000  0.69770000  1
  C  C63  1  0.13460000  0.83660000  0.19770000  1
  C  C64  1  0.14210000  0.08050000  0.72750000  1
  C  C65  1  0.14210000  0.91950000  0.22750000  1
  C  C66  1  0.14310000  0.25590000  0.71860000  1
  C  C67  1  0.14310000  0.74410000  0.21860000  1
  C  C68  1  0.15570000  0.14660000  0.87900000  1
  C  C69  1  0.15570000  0.85340000  0.37900000  1
  C  C70  1  0.16280000  0.09240000  0.77500000  1
  C  C71  1  0.16280000  0.90760000  0.27500000  1
  C  C72  1  0.16580000  0.27010000  0.76530000  1
  C  C73  1  0.16580000  0.72990000  0.26530000  1
  C  C74  1  0.17630000  0.18690000  0.79450000  1
  C  C75  1  0.17630000  0.81310000  0.29450000  1
  C  C76  1  0.18050000  0.22460000  0.40200000  1
  C  C77  1  0.18050000  0.77540000  0.90200000  1
  C  C78  1  0.18710000  0.15780000  0.92610000  1
  C  C79  1  0.18710000  0.84220000  0.42610000  1
  C  C80  1  0.20510000  0.20030000  0.84420000  1
  C  C81  1  0.20510000  0.79970000  0.34420000  1
  C  C82  1  0.21440000  0.23460000  0.35610000  1
  C  C83  1  0.21440000  0.76540000  0.85610000  1
  C  C84  1  0.23170000  0.27900000  0.43660000  1
  C  C85  1  0.23170000  0.72100000  0.93660000  1
  C  C86  1  0.26830000  0.22100000  0.93660000  1
  C  C87  1  0.26830000  0.77900000  0.43660000  1
  C  C88  1  0.28560000  0.26540000  0.85610000  1
  C  C89  1  0.28560000  0.73460000  0.35610000  1
  C  C90  1  0.29490000  0.29970000  0.34420000  1
  C  C91  1  0.29490000  0.70030000  0.84420000  1
  C  C92  1  0.31290000  0.34220000  0.42610000  1
  C  C93  1  0.31290000  0.65780000  0.92610000  1
  C  C94  1  0.31950000  0.27540000  0.90200000  1
  C  C95  1  0.31950000  0.72460000  0.40200000  1
  C  C96  1  0.32370000  0.31310000  0.29450000  1
  C  C97  1  0.32370000  0.68690000  0.79450000  1
  C  C98  1  0.33420000  0.22990000  0.26530000  1
  C  C99  1  0.33420000  0.77010000  0.76530000  1
  C  C100  1  0.33720000  0.40760000  0.27500000  1
  C  C101  1  0.33720000  0.59240000  0.77500000  1
  C  C102  1  0.34430000  0.35340000  0.37900000  1
  C  C103  1  0.34430000  0.64660000  0.87900000  1
  C  C104  1  0.35690000  0.24410000  0.21860000  1
  C  C105  1  0.35690000  0.75590000  0.71860000  1
  C  C106  1  0.35790000  0.41950000  0.22750000  1
  C  C107  1  0.35790000  0.58050000  0.72750000  1
  C  C108  1  0.36540000  0.33660000  0.19770000  1
  C  C109  1  0.36540000  0.66340000  0.69770000  1
  C  C110  1  0.36860000  0.39650000  0.46460000  1
  C  C111  1  0.36860000  0.60350000  0.96460000  1
  C  C112  1  0.37000000  0.35530000  0.14560000  1
  C  C113  1  0.37000000  0.64470000  0.64560000  1
  C  C114  1  0.41060000  0.34070000  0.91260000  1
  C  C115  1  0.41060000  0.65930000  0.41260000  1
  C  C116  1  0.58940000  0.34070000  0.58740000  1
  C  C117  1  0.58940000  0.65930000  0.08740000  1
  C  C118  1  0.63000000  0.35530000  0.35440000  1
  C  C119  1  0.63000000  0.64470000  0.85440000  1
  C  C120  1  0.63140000  0.39650000  0.03540000  1
  C  C121  1  0.63140000  0.60350000  0.53540000  1
  C  C122  1  0.63460000  0.33660000  0.30230000  1
  C  C123  1  0.63460000  0.66340000  0.80230000  1
  C  C124  1  0.64210000  0.41950000  0.27250000  1
  C  C125  1  0.64210000  0.58050000  0.77250000  1
  C  C126  1  0.64310000  0.24410000  0.28140000  1
  C  C127  1  0.64310000  0.75590000  0.78140000  1
  C  C128  1  0.65570000  0.35340000  0.12100000  1
  C  C129  1  0.65570000  0.64660000  0.62100000  1
  C  C130  1  0.66280000  0.40760000  0.22500000  1
  C  C131  1  0.66280000  0.59240000  0.72500000  1
  C  C132  1  0.66580000  0.22990000  0.23470000  1
  C  C133  1  0.66580000  0.77010000  0.73470000  1
  C  C134  1  0.67630000  0.31310000  0.20550000  1
  C  C135  1  0.67630000  0.68690000  0.70550000  1
  C  C136  1  0.68050000  0.27540000  0.59800000  1
  C  C137  1  0.68050000  0.72460000  0.09800000  1
  C  C138  1  0.68710000  0.34220000  0.07390000  1
  C  C139  1  0.68710000  0.65780000  0.57390000  1
  C  C140  1  0.70510000  0.29970000  0.15580000  1
  C  C141  1  0.70510000  0.70030000  0.65580000  1
  C  C142  1  0.71440000  0.26540000  0.64390000  1
  C  C143  1  0.71440000  0.73460000  0.14390000  1
  C  C144  1  0.73170000  0.22100000  0.56340000  1
  C  C145  1  0.73170000  0.77900000  0.06340000  1
  C  C146  1  0.76830000  0.27900000  0.06340000  1
  C  C147  1  0.76830000  0.72100000  0.56340000  1
  C  C148  1  0.78560000  0.23460000  0.14390000  1
  C  C149  1  0.78560000  0.76540000  0.64390000  1
  C  C150  1  0.79490000  0.20030000  0.65580000  1
  C  C151  1  0.79490000  0.79970000  0.15580000  1
  C  C152  1  0.81290000  0.15780000  0.57390000  1
  C  C153  1  0.81290000  0.84220000  0.07390000  1
  C  C154  1  0.81950000  0.22460000  0.09800000  1
  C  C155  1  0.81950000  0.77540000  0.59800000  1
  C  C156  1  0.82370000  0.18690000  0.70550000  1
  C  C157  1  0.82370000  0.81310000  0.20550000  1
  C  C158  1  0.83420000  0.27010000  0.73470000  1
  C  C159  1  0.83420000  0.72990000  0.23470000  1
  C  C160  1  0.83720000  0.09240000  0.72500000  1
  C  C161  1  0.83720000  0.90760000  0.22500000  1
  C  C162  1  0.84430000  0.14660000  0.62100000  1
  C  C163  1  0.84430000  0.85340000  0.12100000  1
  C  C164  1  0.85690000  0.25590000  0.78140000  1
  C  C165  1  0.85690000  0.74410000  0.28140000  1
  C  C166  1  0.85790000  0.08050000  0.77250000  1
  C  C167  1  0.85790000  0.91950000  0.27250000  1
  C  C168  1  0.86540000  0.16340000  0.80230000  1
  C  C169  1  0.86540000  0.83660000  0.30230000  1
  C  C170  1  0.86860000  0.10350000  0.53540000  1
  C  C171  1  0.86860000  0.89650000  0.03540000  1
  C  C172  1  0.87000000  0.14470000  0.85440000  1
  C  C173  1  0.87000000  0.85530000  0.35440000  1
  C  C174  1  0.91060000  0.15930000  0.08740000  1
  C  C175  1  0.91060000  0.84070000  0.58740000  1
  N  N176  1  0.12260000  0.34710000  0.69170000  1
  N  N177  1  0.12260000  0.65290000  0.19170000  1
  N  N178  1  0.37740000  0.15290000  0.19170000  1
  N  N179  1  0.37740000  0.84710000  0.69170000  1
  N  N180  1  0.62260000  0.15290000  0.30830000  1
  N  N181  1  0.62260000  0.84710000  0.80830000  1
  N  N182  1  0.87740000  0.34710000  0.80830000  1
  N  N183  1  0.87740000  0.65290000  0.30830000  1
  O  O184  1  0.03960000  0.35360000  0.67100000  1
  O  O185  1  0.03960000  0.64640000  0.17100000  1
  O  O186  1  0.04860000  0.16150000  0.45288000  1
  O  O187  1  0.04860000  0.83850000  0.95288000  1
  O  O188  1  0.05270000  0.05310000  0.95550000  1
  O  O189  1  0.05270000  0.94690000  0.45550000  1
  O  O190  1  0.05310000  0.10350000  0.38092000  1
  O  O191  1  0.05310000  0.89650000  0.88092000  1
  O  O192  1  0.09050000  0.06290000  0.63400000  1
  O  O193  1  0.09050000  0.93710000  0.13400000  1
  O  O194  1  0.16420000  0.21150000  0.61910000  1
  O  O195  1  0.16420000  0.78850000  0.11910000  1
  O  O196  1  0.16680000  0.11150000  0.00480000  1
  O  O197  1  0.16680000  0.88850000  0.50480000  1
  O  O198  1  0.18660000  0.41410000  0.69280000  1
  O  O199  1  0.18660000  0.58590000  0.19280000  1
  O  O200  1  0.31340000  0.08590000  0.19280000  1
  O  O201  1  0.31340000  0.91410000  0.69280000  1
  O  O202  1  0.33320000  0.38850000  0.50480000  1
  O  O203  1  0.33320000  0.61150000  0.00480000  1
  O  O204  1  0.33580000  0.28850000  0.11910000  1
  O  O205  1  0.33580000  0.71150000  0.61910000  1
  O  O206  1  0.40950000  0.43710000  0.13400000  1
  O  O207  1  0.40950000  0.56290000  0.63400000  1
  O  O208  1  0.44690000  0.39650000  0.88092000  1
  O  O209  1  0.44690000  0.60350000  0.38092000  1
  O  O210  1  0.44730000  0.44690000  0.45550000  1
  O  O211  1  0.44730000  0.55310000  0.95550000  1
  O  O212  1  0.45140000  0.33850000  0.95288000  1
  O  O213  1  0.45140000  0.66150000  0.45288000  1
  O  O214  1  0.46040000  0.14640000  0.17100000  1
  O  O215  1  0.46040000  0.85360000  0.67100000  1
  O  O216  1  0.53960000  0.14640000  0.32900000  1
  O  O217  1  0.53960000  0.85360000  0.82900000  1
  O  O218  1  0.54860000  0.33850000  0.54712000  1
  O  O219  1  0.54860000  0.66150000  0.04712000  1
  O  O220  1  0.55270000  0.44690000  0.04450000  1
  O  O221  1  0.55270000  0.55310000  0.54450000  1
  O  O222  1  0.55310000  0.39650000  0.61908000  1
  O  O223  1  0.55310000  0.60350000  0.11908000  1
  O  O224  1  0.59050000  0.43710000  0.36600000  1
  O  O225  1  0.59050000  0.56290000  0.86600000  1
  O  O226  1  0.66420000  0.28850000  0.38090000  1
  O  O227  1  0.66420000  0.71150000  0.88090000  1
  O  O228  1  0.66680000  0.38850000  0.99520000  1
  O  O229  1  0.66680000  0.61150000  0.49520000  1
  O  O230  1  0.68660000  0.08590000  0.30720000  1
  O  O231  1  0.68660000  0.91410000  0.80720000  1
  O  O232  1  0.81340000  0.41410000  0.80720000  1
  O  O233  1  0.81340000  0.58590000  0.30720000  1
  O  O234  1  0.83320000  0.11150000  0.49520000  1
  O  O235  1  0.83320000  0.88850000  0.99520000  1
  O  O236  1  0.83580000  0.21150000  0.88090000  1
  O  O237  1  0.83580000  0.78850000  0.38090000  1
  O  O238  1  0.90950000  0.06290000  0.86600000  1
  O  O239  1  0.90950000  0.93710000  0.36600000  1
  O  O240  1  0.94690000  0.10350000  0.11908000  1
  O  O241  1  0.94690000  0.89650000  0.61908000  1
  O  O242  1  0.94730000  0.05310000  0.54450000  1
  O  O243  1  0.94730000  0.94690000  0.04450000  1
  O  O244  1  0.95140000  0.16150000  0.04712000  1
  O  O245  1  0.95140000  0.83850000  0.54712000  1
  O  O246  1  0.96040000  0.35360000  0.82900000  1
  O  O247  1  0.96040000  0.64640000  0.32900000  1
