# generated using pymatgen
data_Cu6H32WC40S4(BrN4)4
_symmetry_space_group_name_H-M   'P 1'
_cell_length_a   26.32178668
_cell_length_b   26.32150000
_cell_length_c   26.32150000
_cell_angle_alpha   109.47100000
_cell_angle_beta   109.47144127
_cell_angle_gamma   109.47144127
_symmetry_Int_Tables_number   1
_chemical_formula_structural   Cu6H32WC40S4(BrN4)4
_chemical_formula_sum   'Cu36 H192 W6 C240 S24 Br24 N96'
_cell_volume   14038.26906375
_cell_formula_units_Z   6
loop_
 _symmetry_equiv_pos_site_id
 _symmetry_equiv_pos_as_xyz
  1  'x, y, z'
loop_
 _atom_site_type_symbol
 _atom_site_label
 _atom_site_symmetry_multiplicity
 _atom_site_fract_x
 _atom_site_fract_y
 _atom_site_fract_z
 _atom_site_occupancy
  Cu  Cu0  1  0.75000000  0.53739000  0.78739000  1
  Cu  Cu1  1  0.76143000  0.69943000  0.82248000  1
  Cu  Cu2  1  0.87695000  0.67752000  0.93895000  1
  Cu  Cu3  1  0.93800000  0.23857000  0.06105000  1
  Cu  Cu4  1  0.62305000  0.56200000  0.80057000  1
  Cu  Cu5  1  0.73857000  0.56105000  0.93800000  1
  Cu  Cu6  1  0.75000000  0.71261000  0.96261000  1
  Cu  Cu7  1  0.93895000  0.37695000  0.17752000  1
  Cu  Cu8  1  0.96261000  0.25000000  0.21261000  1
  Cu  Cu9  1  0.78739000  0.25000000  0.03739000  1
  Cu  Cu10  1  0.80057000  0.12305000  0.06200000  1
  Cu  Cu11  1  0.25000000  0.78739000  0.53739000  1
  Cu  Cu12  1  0.37695000  0.93895000  0.67752000  1
  Cu  Cu13  1  0.23857000  0.93800000  0.56105000  1
  Cu  Cu14  1  0.82248000  0.26143000  0.19943000  1
  Cu  Cu15  1  0.26143000  0.82248000  0.69943000  1
  Cu  Cu16  1  0.12305000  0.80057000  0.56200000  1
  Cu  Cu17  1  0.25000000  0.96261000  0.71261000  1
  Cu  Cu18  1  0.21261000  0.46261000  0.75000000  1
  Cu  Cu19  1  0.06200000  0.30057000  0.62305000  1
  Cu  Cu20  1  0.19943000  0.32248000  0.76143000  1
  Cu  Cu21  1  0.69943000  0.76143000  0.32248000  1
  Cu  Cu22  1  0.06105000  0.43800000  0.73857000  1
  Cu  Cu23  1  0.17752000  0.43895000  0.87695000  1
  Cu  Cu24  1  0.03739000  0.28739000  0.75000000  1
  Cu  Cu25  1  0.56200000  0.62305000  0.30057000  1
  Cu  Cu26  1  0.71261000  0.75000000  0.46261000  1
  Cu  Cu27  1  0.53739000  0.75000000  0.28739000  1
  Cu  Cu28  1  0.67752000  0.87695000  0.43895000  1
  Cu  Cu29  1  0.46261000  0.21261000  0.25000000  1
  Cu  Cu30  1  0.43800000  0.06105000  0.23857000  1
  Cu  Cu31  1  0.30057000  0.06200000  0.12305000  1
  Cu  Cu32  1  0.56105000  0.73857000  0.43800000  1
  Cu  Cu33  1  0.43895000  0.17752000  0.37695000  1
  Cu  Cu34  1  0.32248000  0.19943000  0.26143000  1
  Cu  Cu35  1  0.28739000  0.03739000  0.25000000  1
  H  H36  1  0.06580000  0.25050000  0.06630000  1
  H  H37  1  0.02910000  0.43950000  0.03720000  1
  H  H38  1  0.17100000  0.90980000  0.18060000  1
  H  H39  1  0.89930000  0.31770000  0.91760000  1
  H  H40  1  0.89800000  0.82410000  0.92030000  1
  H  H41  1  0.46280000  0.40230000  0.49190000  1
  H  H42  1  0.17720000  0.06770000  0.20730000  1
  H  H43  1  0.56050000  0.58960000  0.59770000  1
  H  H44  1  0.56040000  0.67540000  0.59940000  1
  H  H45  1  0.82460000  0.92400000  0.88500000  1
  H  H46  1  0.91040000  0.00810000  0.97090000  1
  H  H47  1  0.35160000  0.74530000  0.41650000  1
  H  H48  1  0.43370000  0.18420000  0.49950000  1
  H  H49  1  0.74950000  0.81530000  0.81580000  1
  H  H50  1  0.79270000  0.46990000  0.86040000  1
  H  H51  1  0.90380000  0.57970000  0.97770000  1
  H  H52  1  0.53900000  0.93960000  0.61500000  1
  H  H53  1  0.59620000  0.57390000  0.67590000  1
  H  H54  1  0.81770000  0.41760000  0.89930000  1
  H  H55  1  0.09990000  0.08160000  0.18230000  1
  H  H56  1  0.06490000  0.89370000  0.14840000  1
  H  H57  1  0.93950000  0.53720000  0.02910000  1
  H  H58  1  0.22920000  0.99040000  0.31940000  1
  H  H59  1  0.92610000  0.10200000  0.02230000  1
  H  H60  1  0.43950000  0.02910000  0.53720000  1
  H  H61  1  0.43960000  0.11500000  0.53900000  1
  H  H62  1  0.31770000  0.89930000  0.41760000  1
  H  H63  1  0.98170000  0.90010000  0.08240000  1
  H  H64  1  0.97770000  0.40380000  0.07970000  1
  H  H65  1  0.24530000  0.91650000  0.35160000  1
  H  H66  1  0.86040000  0.29270000  0.96990000  1
  H  H67  1  0.46100000  0.40060000  0.57600000  1
  H  H68  1  0.89050000  0.82280000  0.03010000  1
  H  H69  1  0.10630000  0.17120000  0.25470000  1
  H  H70  1  0.31940000  0.72920000  0.49040000  1
  H  H71  1  0.74530000  0.35160000  0.91650000  1
  H  H72  1  0.93960000  0.53900000  0.11500000  1
  H  H73  1  0.40380000  0.97770000  0.57970000  1
  H  H74  1  0.29270000  0.86040000  0.46990000  1
  H  H75  1  0.09020000  0.26120000  0.27080000  1
  H  H76  1  0.91840000  0.01830000  0.10070000  1
  H  H77  1  0.50050000  0.43420000  0.68470000  1
  H  H78  1  0.49950000  0.93370000  0.68420000  1
  H  H79  1  0.93230000  0.10950000  0.13960000  1
  H  H80  1  0.18060000  0.67100000  0.40980000  1
  H  H81  1  0.67100000  0.18060000  0.90980000  1
  H  H82  1  0.14840000  0.56490000  0.39370000  1
  H  H83  1  0.68470000  0.00050000  0.93420000  1
  H  H84  1  0.93370000  0.49950000  0.18420000  1
  H  H85  1  0.82880000  0.93510000  0.08350000  1
  H  H86  1  0.72920000  0.31940000  0.99040000  1
  H  H87  1  0.73880000  0.82900000  0.00960000  1
  H  H88  1  0.03010000  0.39050000  0.32280000  1
  H  H89  1  0.75050000  0.56630000  0.06580000  1
  H  H90  1  0.25050000  0.06580000  0.56630000  1
  H  H91  1  0.08240000  0.48170000  0.40010000  1
  H  H92  1  0.00960000  0.23880000  0.32900000  1
  H  H93  1  0.60950000  0.63960000  0.93230000  1
  H  H94  1  0.60200000  0.52230000  0.92610000  1
  H  H95  1  0.57600000  0.96100000  0.90060000  1
  H  H96  1  0.56490000  0.14840000  0.89370000  1
  H  H97  1  0.76120000  0.77080000  0.09020000  1
  H  H98  1  0.08350000  0.32880000  0.43510000  1
  H  H99  1  0.20730000  0.67720000  0.56770000  1
  H  H100  1  0.17540000  0.09940000  0.56040000  1
  H  H101  1  0.67720000  0.20730000  0.06770000  1
  H  H102  1  0.43510000  0.58350000  0.82880000  1
  H  H103  1  0.67590000  0.09620000  0.07390000  1
  H  H104  1  0.18230000  0.59990000  0.58160000  1
  H  H105  1  0.51830000  0.60070000  0.91840000  1
  H  H106  1  0.42400000  0.38500000  0.82460000  1
  H  H107  1  0.50810000  0.47090000  0.91040000  1
  H  H108  1  0.92030000  0.39800000  0.32410000  1
  H  H109  1  0.32900000  0.50960000  0.73880000  1
  H  H110  1  0.49190000  0.96280000  0.90230000  1
  H  H111  1  0.25470000  0.60630000  0.67120000  1
  H  H112  1  0.10070000  0.41840000  0.51830000  1
  H  H113  1  0.48170000  0.08240000  0.90010000  1
  H  H114  1  0.10200000  0.92610000  0.52230000  1
  H  H115  1  0.67540000  0.56040000  0.09940000  1
  H  H116  1  0.39800000  0.92030000  0.82410000  1
  H  H117  1  0.39050000  0.03010000  0.82280000  1
  H  H118  1  0.00050000  0.68470000  0.43420000  1
  H  H119  1  0.31530000  0.31580000  0.74950000  1
  H  H120  1  0.67120000  0.75470000  0.10630000  1
  H  H121  1  0.96280000  0.49190000  0.40230000  1
  H  H122  1  0.96100000  0.57600000  0.40060000  1
  H  H123  1  0.92400000  0.82460000  0.38500000  1
  H  H124  1  0.00810000  0.91040000  0.47090000  1
  H  H125  1  0.13960000  0.43230000  0.60950000  1
  H  H126  1  0.08960000  0.09770000  0.56050000  1
  H  H127  1  0.09620000  0.67590000  0.57390000  1
  H  H128  1  0.59990000  0.18230000  0.08160000  1
  H  H129  1  0.27080000  0.59020000  0.76120000  1
  H  H130  1  0.59770000  0.06050000  0.08960000  1
  H  H131  1  0.81580000  0.24950000  0.31530000  1
  H  H132  1  0.81530000  0.74950000  0.31580000  1
  H  H133  1  0.58960000  0.56050000  0.09770000  1
  H  H134  1  0.26120000  0.09020000  0.77080000  1
  H  H135  1  0.58160000  0.68230000  0.09990000  1
  H  H136  1  0.07390000  0.17590000  0.59620000  1
  H  H137  1  0.06050000  0.59770000  0.58960000  1
  H  H138  1  0.10950000  0.93230000  0.63960000  1
  H  H139  1  0.97090000  0.41040000  0.50810000  1
  H  H140  1  0.88500000  0.32460000  0.42400000  1
  H  H141  1  0.90060000  0.07600000  0.46100000  1
  H  H142  1  0.90230000  0.99190000  0.46280000  1
  H  H143  1  0.60630000  0.25470000  0.17120000  1
  H  H144  1  0.24950000  0.81580000  0.81530000  1
  H  H145  1  0.93420000  0.18470000  0.50050000  1
  H  H146  1  0.32280000  0.53010000  0.89050000  1
  H  H147  1  0.32410000  0.42030000  0.89800000  1
  H  H148  1  0.59940000  0.06040000  0.17540000  1
  H  H149  1  0.02230000  0.42610000  0.60200000  1
  H  H150  1  0.40010000  0.58240000  0.98170000  1
  H  H151  1  0.01830000  0.91840000  0.60070000  1
  H  H152  1  0.17120000  0.10630000  0.75470000  1
  H  H153  1  0.40230000  0.46280000  0.99190000  1
  H  H154  1  0.23880000  0.00960000  0.82900000  1
  H  H155  1  0.82410000  0.89800000  0.42030000  1
  H  H156  1  0.41040000  0.97090000  0.00810000  1
  H  H157  1  0.32460000  0.88500000  0.92400000  1
  H  H158  1  0.41840000  0.10070000  0.01830000  1
  H  H159  1  0.08160000  0.09990000  0.68230000  1
  H  H160  1  0.57390000  0.59620000  0.17590000  1
  H  H161  1  0.32880000  0.08350000  0.93510000  1
  H  H162  1  0.56770000  0.70730000  0.17720000  1
  H  H163  1  0.06040000  0.59940000  0.67540000  1
  H  H164  1  0.06770000  0.17720000  0.70730000  1
  H  H165  1  0.93510000  0.82880000  0.58350000  1
  H  H166  1  0.59020000  0.27080000  0.26120000  1
  H  H167  1  0.39370000  0.64840000  0.06490000  1
  H  H168  1  0.40060000  0.46100000  0.07600000  1
  H  H169  1  0.42610000  0.02230000  0.10200000  1
  H  H170  1  0.43230000  0.13960000  0.10950000  1
  H  H171  1  0.82900000  0.73880000  0.50960000  1
  H  H172  1  0.90010000  0.98170000  0.58240000  1
  H  H173  1  0.06630000  0.56580000  0.75050000  1
  H  H174  1  0.56580000  0.06630000  0.25050000  1
  H  H175  1  0.82280000  0.89050000  0.53010000  1
  H  H176  1  0.50960000  0.32900000  0.23880000  1
  H  H177  1  0.49040000  0.81940000  0.22920000  1
  H  H178  1  0.58350000  0.43510000  0.32880000  1
  H  H179  1  0.68420000  0.99950000  0.43370000  1
  H  H180  1  0.43420000  0.50050000  0.18470000  1
  H  H181  1  0.89370000  0.06490000  0.64840000  1
  H  H182  1  0.40980000  0.68060000  0.17100000  1
  H  H183  1  0.90980000  0.17100000  0.68060000  1
  H  H184  1  0.63960000  0.60950000  0.43230000  1
  H  H185  1  0.18420000  0.43370000  0.99950000  1
  H  H186  1  0.18470000  0.93420000  0.00050000  1
  H  H187  1  0.60070000  0.51830000  0.41840000  1
  H  H188  1  0.77080000  0.76120000  0.59020000  1
  H  H189  1  0.96990000  0.36040000  0.79270000  1
  H  H190  1  0.07970000  0.47770000  0.90380000  1
  H  H191  1  0.61500000  0.03900000  0.43960000  1
  H  H192  1  0.41650000  0.85160000  0.24530000  1
  H  H193  1  0.99040000  0.22920000  0.81940000  1
  H  H194  1  0.75470000  0.67120000  0.60630000  1
  H  H195  1  0.53010000  0.32280000  0.39050000  1
  H  H196  1  0.07600000  0.90060000  0.96100000  1
  H  H197  1  0.46990000  0.79270000  0.36040000  1
  H  H198  1  0.85160000  0.41650000  0.74530000  1
  H  H199  1  0.57970000  0.90380000  0.47770000  1
  H  H200  1  0.58240000  0.40010000  0.48170000  1
  H  H201  1  0.91760000  0.39930000  0.81770000  1
  H  H202  1  0.03900000  0.61500000  0.93960000  1
  H  H203  1  0.03720000  0.52910000  0.93950000  1
  H  H204  1  0.52230000  0.60200000  0.42610000  1
  H  H205  1  0.81940000  0.49040000  0.72920000  1
  H  H206  1  0.52910000  0.03720000  0.43950000  1
  H  H207  1  0.64840000  0.39370000  0.56490000  1
  H  H208  1  0.68230000  0.58160000  0.59990000  1
  H  H209  1  0.39930000  0.91760000  0.31770000  1
  H  H210  1  0.17590000  0.07390000  0.09620000  1
  H  H211  1  0.11500000  0.43960000  0.03900000  1
  H  H212  1  0.47770000  0.07970000  0.40380000  1
  H  H213  1  0.36040000  0.96990000  0.29270000  1
  H  H214  1  0.31580000  0.31530000  0.24950000  1
  H  H215  1  0.99950000  0.68420000  0.93370000  1
  H  H216  1  0.91650000  0.24530000  0.85160000  1
  H  H217  1  0.47090000  0.50810000  0.41040000  1
  H  H218  1  0.38500000  0.42400000  0.32460000  1
  H  H219  1  0.09940000  0.17540000  0.06040000  1
  H  H220  1  0.09770000  0.08960000  0.06050000  1
  H  H221  1  0.70730000  0.56770000  0.67720000  1
  H  H222  1  0.99190000  0.90230000  0.96280000  1
  H  H223  1  0.42030000  0.32410000  0.39800000  1
  H  H224  1  0.41760000  0.81770000  0.39930000  1
  H  H225  1  0.68060000  0.40980000  0.67100000  1
  H  H226  1  0.53720000  0.93950000  0.52910000  1
  H  H227  1  0.56630000  0.75050000  0.56580000  1
  W  W228  1  0.75000000  0.62500000  0.87500000  1
  W  W229  1  0.87500000  0.25000000  0.12500000  1
  W  W230  1  0.25000000  0.87500000  0.62500000  1
  W  W231  1  0.12500000  0.37500000  0.75000000  1
  W  W232  1  0.62500000  0.75000000  0.37500000  1
  W  W233  1  0.37500000  0.12500000  0.25000000  1
  C  C234  1  0.47870000  0.03650000  0.48340000  1
  C  C235  1  0.01690000  0.46310000  0.02180000  1
  C  C236  1  0.55360000  0.67010000  0.56050000  1
  C  C237  1  0.33800000  0.89860000  0.34860000  1
  C  C238  1  0.88170000  0.33220000  0.89290000  1
  C  C239  1  0.00470000  0.05780000  0.02130000  1
  C  C240  1  0.47820000  0.44130000  0.49510000  1
  C  C241  1  0.04210000  0.21120000  0.05930000  1
  C  C242  1  0.94220000  0.94690000  0.96350000  1
  C  C243  1  0.53690000  0.55380000  0.55870000  1
  C  C244  1  0.15910000  0.93980000  0.18450000  1
  C  C245  1  0.80130000  0.46340000  0.82810000  1
  C  C246  1  0.93150000  0.59590000  0.96520000  1
  C  C247  1  0.86930000  0.83560000  0.90410000  1
  C  C248  1  0.51660000  0.49530000  0.55310000  1
  C  C249  1  0.16210000  0.02680000  0.19870000  1
  C  C250  1  0.94620000  0.00490000  0.98310000  1
  C  C251  1  0.44070000  0.15190000  0.48280000  1
  C  C252  1  0.83220000  0.39290000  0.88170000  1
  C  C253  1  0.34860000  0.83800000  0.39860000  1
  C  C254  1  0.48340000  0.97870000  0.53650000  1
  C  C255  1  0.82990000  0.89040000  0.88350000  1
  C  C256  1  0.96310000  0.52180000  0.01690000  1
  C  C257  1  0.97870000  0.48340000  0.03650000  1
  C  C258  1  0.46310000  0.01690000  0.52180000  1
  C  C259  1  0.78880000  0.83090000  0.84810000  1
  C  C260  1  0.25530000  0.97460000  0.31550000  1
  C  C261  1  0.44640000  0.11650000  0.50690000  1
  C  C262  1  0.83800000  0.34860000  0.89860000  1
  C  C263  1  0.33220000  0.88170000  0.39290000  1
  C  C264  1  0.10090000  0.93070000  0.16480000  1
  C  C265  1  0.96630000  0.13070000  0.03480000  1
  C  C266  1  0.26590000  0.93610000  0.33520000  1
  C  C267  1  0.56850000  0.53370000  0.66440000  1
  C  C268  1  0.33520000  0.76590000  0.43610000  1
  C  C269  1  0.05000000  0.98940000  0.15140000  1
  C  C270  1  0.06070000  0.04950000  0.16780000  1
  C  C271  1  0.50690000  0.94640000  0.61650000  1
  C  C272  1  0.49310000  0.43950000  0.60960000  1
  C  C273  1  0.98880000  0.93930000  0.10710000  1
  C  C274  1  0.96520000  0.43150000  0.09590000  1
  C  C275  1  0.82810000  0.30130000  0.96340000  1
  C  C276  1  0.01060000  0.06060000  0.16200000  1
  C  C277  1  0.51720000  0.45790000  0.66910000  1
  C  C278  1  0.31550000  0.75530000  0.47460000  1
  C  C279  1  0.93940000  0.95000000  0.10140000  1
  C  C280  1  0.30130000  0.82810000  0.46340000  1
  C  C281  1  0.43150000  0.96520000  0.59590000  1
  C  C282  1  0.06930000  0.17020000  0.23410000  1
  C  C283  1  0.95050000  0.01120000  0.11830000  1
  C  C284  1  0.48280000  0.94070000  0.65190000  1
  C  C285  1  0.94640000  0.50690000  0.11650000  1
  C  C286  1  0.76590000  0.33520000  0.93610000  1
  C  C287  1  0.86470000  0.83790000  0.03660000  1
  C  C288  1  0.06020000  0.21930000  0.24470000  1
  C  C289  1  0.97320000  0.13530000  0.17190000  1
  C  C290  1  0.94070000  0.48280000  0.15190000  1
  C  C291  1  0.75530000  0.31550000  0.97460000  1
  C  C292  1  0.82980000  0.89910000  0.06390000  1
  C  C293  1  0.78070000  0.84090000  0.02540000  1
  C  C294  1  0.18450000  0.65910000  0.43980000  1
  C  C295  1  0.16480000  0.60090000  0.43070000  1
  C  C296  1  0.65910000  0.18450000  0.93980000  1
  C  C297  1  0.66910000  0.01720000  0.95790000  1
  C  C298  1  0.03660000  0.36470000  0.33790000  1
  C  C299  1  0.02540000  0.28070000  0.34090000  1
  C  C300  1  0.19870000  0.66210000  0.52680000  1
  C  C301  1  0.60090000  0.16480000  0.93070000  1
  C  C302  1  0.60960000  0.99310000  0.93950000  1
  C  C303  1  0.71120000  0.55930000  0.04210000  1
  C  C304  1  0.10710000  0.48880000  0.43930000  1
  C  C305  1  0.06390000  0.32980000  0.39910000  1
  C  C306  1  0.63070000  0.53480000  0.96630000  1
  C  C307  1  0.63530000  0.67190000  0.97320000  1
  C  C308  1  0.15140000  0.55000000  0.48940000  1
  C  C309  1  0.71930000  0.74470000  0.06020000  1
  C  C310  1  0.21120000  0.04210000  0.55930000  1
  C  C311  1  0.10140000  0.43940000  0.45000000  1
  C  C312  1  0.66210000  0.19870000  0.02680000  1
  C  C313  1  0.66440000  0.06850000  0.03370000  1
  C  C314  1  0.16780000  0.56070000  0.54950000  1
  C  C315  1  0.17010000  0.06050000  0.55360000  1
  C  C316  1  0.67010000  0.55360000  0.06050000  1
  C  C317  1  0.11830000  0.45050000  0.51120000  1
  C  C318  1  0.16200000  0.51060000  0.56060000  1
  C  C319  1  0.67020000  0.73410000  0.06930000  1
  C  C320  1  0.13070000  0.96630000  0.53480000  1
  C  C321  1  0.39910000  0.56390000  0.82980000  1
  C  C322  1  0.90410000  0.36930000  0.33560000  1
  C  C323  1  0.23410000  0.56930000  0.67020000  1
  C  C324  1  0.51120000  0.61830000  0.95050000  1
  C  C325  1  0.55000000  0.15140000  0.98940000  1
  C  C326  1  0.39040000  0.38350000  0.82990000  1
  C  C327  1  0.34090000  0.52540000  0.78070000  1
  C  C328  1  0.01720000  0.66910000  0.45790000  1
  C  C329  1  0.50490000  0.48310000  0.94620000  1
  C  C330  1  0.55310000  0.01660000  0.99530000  1
  C  C331  1  0.49510000  0.97820000  0.94130000  1
  C  C332  1  0.99310000  0.60960000  0.43950000  1
  C  C333  1  0.55780000  0.52130000  0.00470000  1
  C  C334  1  0.56060000  0.66200000  0.01060000  1
  C  C335  1  0.48880000  0.10710000  0.93930000  1
  C  C336  1  0.33090000  0.34810000  0.78880000  1
  C  C337  1  0.97820000  0.49510000  0.44130000  1
  C  C338  1  0.17190000  0.47320000  0.63530000  1
  C  C339  1  0.05780000  0.00470000  0.52130000  1
  C  C340  1  0.06850000  0.66440000  0.53370000  1
  C  C341  1  0.36930000  0.90410000  0.83560000  1
  C  C342  1  0.36470000  0.03660000  0.83790000  1
  C  C343  1  0.24470000  0.56020000  0.71930000  1
  C  C344  1  0.00490000  0.94620000  0.48310000  1
  C  C345  1  0.01660000  0.55310000  0.49530000  1
  C  C346  1  0.84810000  0.28880000  0.33090000  1
  C  C347  1  0.05380000  0.05870000  0.53690000  1
  C  C348  1  0.96350000  0.44220000  0.44690000  1
  C  C349  1  0.56070000  0.16780000  0.04950000  1
  C  C350  1  0.45000000  0.60140000  0.93940000  1
  C  C351  1  0.89040000  0.82990000  0.38350000  1
  C  C352  1  0.55870000  0.03690000  0.05380000  1
  C  C353  1  0.44690000  0.46350000  0.94220000  1
  C  C354  1  0.44220000  0.96350000  0.94690000  1
  C  C355  1  0.55380000  0.53690000  0.05870000  1
  C  C356  1  0.88350000  0.32990000  0.39040000  1
  C  C357  1  0.43940000  0.10140000  0.95000000  1
  C  C358  1  0.54950000  0.66780000  0.06070000  1
  C  C359  1  0.94690000  0.94220000  0.46350000  1
  C  C360  1  0.03690000  0.55870000  0.55380000  1
  C  C361  1  0.83090000  0.78880000  0.34810000  1
  C  C362  1  0.99530000  0.05310000  0.51660000  1
  C  C363  1  0.98310000  0.44620000  0.50490000  1
  C  C364  1  0.21930000  0.06020000  0.74470000  1
  C  C365  1  0.33790000  0.53660000  0.86470000  1
  C  C366  1  0.33560000  0.40410000  0.86930000  1
  C  C367  1  0.03370000  0.16440000  0.56850000  1
  C  C368  1  0.02130000  0.50470000  0.55780000  1
  C  C369  1  0.13530000  0.97320000  0.67190000  1
  C  C370  1  0.94130000  0.99510000  0.47820000  1
  C  C371  1  0.28880000  0.84810000  0.83090000  1
  C  C372  1  0.43930000  0.60710000  0.98880000  1
  C  C373  1  0.51060000  0.16200000  0.06060000  1
  C  C374  1  0.50470000  0.02130000  0.05780000  1
  C  C375  1  0.93950000  0.10960000  0.49310000  1
  C  C376  1  0.44130000  0.47820000  0.99510000  1
  C  C377  1  0.49530000  0.51660000  0.05310000  1
  C  C378  1  0.44620000  0.98310000  0.00490000  1
  C  C379  1  0.95790000  0.16910000  0.51720000  1
  C  C380  1  0.28070000  0.02540000  0.84090000  1
  C  C381  1  0.32990000  0.88350000  0.89040000  1
  C  C382  1  0.48940000  0.65140000  0.05000000  1
  C  C383  1  0.45050000  0.11830000  0.01120000  1
  C  C384  1  0.17020000  0.06930000  0.73410000  1
  C  C385  1  0.83560000  0.86930000  0.40410000  1
  C  C386  1  0.32980000  0.06390000  0.89910000  1
  C  C387  1  0.03480000  0.46630000  0.63070000  1
  C  C388  1  0.56930000  0.23410000  0.17020000  1
  C  C389  1  0.06060000  0.01060000  0.66200000  1
  C  C390  1  0.01120000  0.95050000  0.61830000  1
  C  C391  1  0.56050000  0.05360000  0.17010000  1
  C  C392  1  0.05360000  0.56050000  0.67010000  1
  C  C393  1  0.04950000  0.06070000  0.66780000  1
  C  C394  1  0.53370000  0.56850000  0.16440000  1
  C  C395  1  0.52680000  0.69870000  0.16210000  1
  C  C396  1  0.95000000  0.93940000  0.60140000  1
  C  C397  1  0.05930000  0.54210000  0.71120000  1
  C  C398  1  0.56020000  0.24470000  0.21930000  1
  C  C399  1  0.98940000  0.05000000  0.65140000  1
  C  C400  1  0.47320000  0.17190000  0.13530000  1
  C  C401  1  0.46630000  0.03480000  0.13070000  1
  C  C402  1  0.89910000  0.82980000  0.56390000  1
  C  C403  1  0.93930000  0.98880000  0.60710000  1
  C  C404  1  0.54210000  0.05930000  0.21120000  1
  C  C405  1  0.43950000  0.49310000  0.10960000  1
  C  C406  1  0.43070000  0.66480000  0.10090000  1
  C  C407  1  0.02680000  0.16210000  0.69870000  1
  C  C408  1  0.84090000  0.78070000  0.52540000  1
  C  C409  1  0.83790000  0.86470000  0.53660000  1
  C  C410  1  0.45790000  0.51720000  0.16910000  1
  C  C411  1  0.43980000  0.68450000  0.15910000  1
  C  C412  1  0.93070000  0.10090000  0.66480000  1
  C  C413  1  0.93980000  0.15910000  0.68450000  1
  C  C414  1  0.52540000  0.34090000  0.28070000  1
  C  C415  1  0.56390000  0.39910000  0.32980000  1
  C  C416  1  0.47460000  0.81550000  0.25530000  1
  C  C417  1  0.65190000  0.98280000  0.44070000  1
  C  C418  1  0.67190000  0.63530000  0.47320000  1
  C  C419  1  0.74470000  0.71930000  0.56020000  1
  C  C420  1  0.53660000  0.33790000  0.36470000  1
  C  C421  1  0.43610000  0.83520000  0.26590000  1
  C  C422  1  0.61650000  0.00690000  0.44640000  1
  C  C423  1  0.15190000  0.44070000  0.98280000  1
  C  C424  1  0.61830000  0.51120000  0.45050000  1
  C  C425  1  0.73410000  0.67020000  0.56930000  1
  C  C426  1  0.09590000  0.46520000  0.93150000  1
  C  C427  1  0.96340000  0.32810000  0.80130000  1
  C  C428  1  0.60140000  0.45000000  0.43940000  1
  C  C429  1  0.97460000  0.25530000  0.81550000  1
  C  C430  1  0.16910000  0.95790000  0.01720000  1
  C  C431  1  0.66200000  0.56060000  0.51060000  1
  C  C432  1  0.46340000  0.80130000  0.32810000  1
  C  C433  1  0.59590000  0.93150000  0.46520000  1
  C  C434  1  0.60710000  0.43930000  0.48880000  1
  C  C435  1  0.10960000  0.93950000  0.99310000  1
  C  C436  1  0.11650000  0.44640000  0.00690000  1
  C  C437  1  0.66780000  0.54950000  0.56070000  1
  C  C438  1  0.65140000  0.48940000  0.55000000  1
  C  C439  1  0.93610000  0.26590000  0.83520000  1
  C  C440  1  0.16440000  0.03370000  0.06850000  1
  C  C441  1  0.83520000  0.43610000  0.76590000  1
  C  C442  1  0.53480000  0.63070000  0.46630000  1
  C  C443  1  0.66480000  0.43070000  0.60090000  1
  C  C444  1  0.89290000  0.38170000  0.83220000  1
  C  C445  1  0.39860000  0.84860000  0.33800000  1
  C  C446  1  0.00690000  0.61650000  0.94640000  1
  C  C447  1  0.81550000  0.47460000  0.75530000  1
  C  C448  1  0.34810000  0.33090000  0.28880000  1
  C  C449  1  0.02180000  0.51690000  0.96310000  1
  C  C450  1  0.53650000  0.98340000  0.47870000  1
  C  C451  1  0.51690000  0.02180000  0.46310000  1
  C  C452  1  0.38350000  0.39040000  0.32990000  1
  C  C453  1  0.03650000  0.47870000  0.98340000  1
  C  C454  1  0.89860000  0.33800000  0.84860000  1
  C  C455  1  0.38170000  0.89290000  0.33220000  1
  C  C456  1  0.98280000  0.65190000  0.94070000  1
  C  C457  1  0.48310000  0.50490000  0.44620000  1
  C  C458  1  0.69870000  0.52680000  0.66210000  1
  C  C459  1  0.05310000  0.99530000  0.01660000  1
  C  C460  1  0.40410000  0.33560000  0.36930000  1
  C  C461  1  0.46520000  0.09590000  0.43150000  1
  C  C462  1  0.32810000  0.96340000  0.30130000  1
  C  C463  1  0.68450000  0.43980000  0.65910000  1
  C  C464  1  0.05870000  0.05380000  0.03690000  1
  C  C465  1  0.46350000  0.44690000  0.44220000  1
  C  C466  1  0.55930000  0.71120000  0.54210000  1
  C  C467  1  0.99510000  0.94130000  0.97820000  1
  C  C468  1  0.52130000  0.55780000  0.50470000  1
  C  C469  1  0.39290000  0.83220000  0.38170000  1
  C  C470  1  0.84860000  0.39860000  0.83800000  1
  C  C471  1  0.06050000  0.17010000  0.05360000  1
  C  C472  1  0.52180000  0.96310000  0.51690000  1
  C  C473  1  0.98340000  0.53650000  0.97870000  1
  S  S474  1  0.81108000  0.64252000  0.83462000  1
  S  S475  1  0.68892000  0.52354000  0.83144000  1
  S  S476  1  0.69210000  0.66856000  0.85748000  1
  S  S477  1  0.80790000  0.66538000  0.97646000  1
  S  S478  1  0.97646000  0.30790000  0.16538000  1
  S  S479  1  0.83144000  0.18892000  0.02354000  1
  S  S480  1  0.83462000  0.31108000  0.14252000  1
  S  S481  1  0.85748000  0.19210000  0.16856000  1
  S  S482  1  0.31108000  0.83462000  0.64252000  1
  S  S483  1  0.18892000  0.83144000  0.52354000  1
  S  S484  1  0.30790000  0.97646000  0.66538000  1
  S  S485  1  0.19210000  0.85748000  0.66856000  1
  S  S486  1  0.16856000  0.35748000  0.69210000  1
  S  S487  1  0.16538000  0.47646000  0.80790000  1
  S  S488  1  0.02354000  0.33144000  0.68892000  1
  S  S489  1  0.14252000  0.33462000  0.81108000  1
  S  S490  1  0.66856000  0.69210000  0.35748000  1
  S  S491  1  0.64252000  0.81108000  0.33462000  1
  S  S492  1  0.52354000  0.68892000  0.33144000  1
  S  S493  1  0.66538000  0.80790000  0.47646000  1
  S  S494  1  0.47646000  0.16538000  0.30790000  1
  S  S495  1  0.35748000  0.16856000  0.19210000  1
  S  S496  1  0.33144000  0.02354000  0.18892000  1
  S  S497  1  0.33462000  0.14252000  0.31108000  1
  Br  Br498  1  0.70612000  0.67386000  0.71440000  1
  Br  Br499  1  0.95946000  0.78560000  0.99172000  1
  Br  Br500  1  0.96774000  0.29388000  0.00828000  1
  Br  Br501  1  0.79388000  0.50828000  0.96774000  1
  Br  Br502  1  0.82614000  0.04054000  0.03226000  1
  Br  Br503  1  0.29388000  0.96774000  0.50828000  1
  Br  Br504  1  0.54054000  0.53226000  0.82614000  1
  Br  Br505  1  0.99172000  0.45946000  0.28560000  1
  Br  Br506  1  0.45946000  0.99172000  0.78560000  1
  Br  Br507  1  0.71440000  0.20612000  0.17386000  1
  Br  Br508  1  0.20612000  0.71440000  0.67386000  1
  Br  Br509  1  0.04054000  0.82614000  0.53226000  1
  Br  Br510  1  0.03226000  0.32614000  0.54054000  1
  Br  Br511  1  0.17386000  0.21440000  0.70612000  1
  Br  Br512  1  0.67386000  0.70612000  0.21440000  1
  Br  Br513  1  0.28560000  0.49172000  0.95946000  1
  Br  Br514  1  0.78560000  0.95946000  0.49172000  1
  Br  Br515  1  0.32614000  0.03226000  0.04054000  1
  Br  Br516  1  0.00828000  0.46774000  0.79388000  1
  Br  Br517  1  0.53226000  0.54054000  0.32614000  1
  Br  Br518  1  0.46774000  0.00828000  0.29388000  1
  Br  Br519  1  0.50828000  0.79388000  0.46774000  1
  Br  Br520  1  0.49172000  0.28560000  0.45946000  1
  Br  Br521  1  0.21440000  0.17386000  0.20612000  1
  N  N522  1  0.78978000  0.48531000  0.78981000  1
  N  N523  1  0.46549000  0.08034000  0.47183000  1
  N  N524  1  0.31247000  0.93163000  0.32638000  1
  N  N525  1  0.19553000  0.00003000  0.21022000  1
  N  N526  1  0.93011000  0.63617000  0.94606000  1
  N  N527  1  0.00634000  0.11485000  0.03451000  1
  N  N528  1  0.88515000  0.89149000  0.91966000  1
  N  N529  1  0.80989000  0.79394000  0.86383000  1
  N  N530  1  0.10525000  0.98609000  0.17362000  1
  N  N531  1  0.98405000  0.19011000  0.05394000  1
  N  N532  1  0.52817000  0.49366000  0.60851000  1
  N  N533  1  0.32638000  0.81247000  0.43163000  1
  N  N534  1  0.47183000  0.96549000  0.58034000  1
  N  N535  1  0.96549000  0.47183000  0.08034000  1
  N  N536  1  0.81247000  0.32638000  0.93163000  1
  N  N537  1  0.56989000  0.51595000  0.70606000  1
  N  N538  1  0.01391000  0.11916000  0.18753000  1
  N  N539  1  0.88084000  0.89475000  0.06837000  1
  N  N540  1  0.94606000  0.43011000  0.13617000  1
  N  N541  1  0.78981000  0.28978000  0.98531000  1
  N  N542  1  0.28978000  0.78981000  0.48531000  1
  N  N543  1  0.43011000  0.94606000  0.63617000  1
  N  N544  1  0.80450000  0.80447000  0.01469000  1
  N  N545  1  0.99997000  0.19550000  0.21019000  1
  N  N546  1  0.01469000  0.30450000  0.30447000  1
  N  N547  1  0.21022000  0.69553000  0.50003000  1
  N  N548  1  0.69011000  0.55394000  0.98405000  1
  N  N549  1  0.69550000  0.71019000  0.99997000  1
  N  N550  1  0.69553000  0.21022000  0.00003000  1
  N  N551  1  0.70606000  0.06989000  0.01595000  1
  N  N552  1  0.17362000  0.60525000  0.48609000  1
  N  N553  1  0.06837000  0.38084000  0.39475000  1
  N  N554  1  0.19011000  0.98405000  0.55394000  1
  N  N555  1  0.60525000  0.17362000  0.98609000  1
  N  N556  1  0.60851000  0.02817000  0.99366000  1
  N  N557  1  0.61485000  0.53451000  0.00634000  1
  N  N558  1  0.61916000  0.68753000  0.01391000  1
  N  N559  1  0.11485000  0.00634000  0.53451000  1
  N  N560  1  0.86383000  0.30989000  0.29394000  1
  N  N561  1  0.18753000  0.51391000  0.61916000  1
  N  N562  1  0.06989000  0.70606000  0.51595000  1
  N  N563  1  0.02817000  0.60851000  0.49366000  1
  N  N564  1  0.91966000  0.38515000  0.39149000  1
  N  N565  1  0.30989000  0.86383000  0.79394000  1
  N  N566  1  0.21019000  0.49997000  0.69550000  1
  N  N567  1  0.39475000  0.56837000  0.88084000  1
  N  N568  1  0.39149000  0.41966000  0.88515000  1
  N  N569  1  0.30450000  0.01469000  0.80447000  1
  N  N570  1  0.30447000  0.51469000  0.80450000  1
  N  N571  1  0.38515000  0.91966000  0.89149000  1
  N  N572  1  0.38084000  0.06837000  0.89475000  1
  N  N573  1  0.19550000  0.99997000  0.71019000  1
  N  N574  1  0.29394000  0.36383000  0.80989000  1
  N  N575  1  0.89149000  0.88515000  0.41966000  1
  N  N576  1  0.99366000  0.10851000  0.52817000  1
  N  N577  1  0.01595000  0.20606000  0.56989000  1
  N  N578  1  0.11916000  0.01391000  0.68753000  1
  N  N579  1  0.79394000  0.80989000  0.36383000  1
  N  N580  1  0.03451000  0.50634000  0.61485000  1
  N  N581  1  0.51391000  0.18753000  0.11916000  1
  N  N582  1  0.50634000  0.03451000  0.11485000  1
  N  N583  1  0.49366000  0.52817000  0.10851000  1
  N  N584  1  0.48609000  0.67362000  0.10525000  1
  N  N585  1  0.05394000  0.48405000  0.69011000  1
  N  N586  1  0.89475000  0.88084000  0.56837000  1
  N  N587  1  0.98609000  0.10525000  0.67362000  1
  N  N588  1  0.51595000  0.56989000  0.20606000  1
  N  N589  1  0.50003000  0.71022000  0.19553000  1
  N  N590  1  0.49997000  0.21019000  0.19550000  1
  N  N591  1  0.48405000  0.05394000  0.19011000  1
  N  N592  1  0.00003000  0.19553000  0.71022000  1
  N  N593  1  0.80447000  0.80450000  0.51469000  1
  N  N594  1  0.71019000  0.69550000  0.49997000  1
  N  N595  1  0.51469000  0.30447000  0.30450000  1
  N  N596  1  0.13617000  0.44606000  0.93011000  1
  N  N597  1  0.98531000  0.28981000  0.78978000  1
  N  N598  1  0.48531000  0.78978000  0.28981000  1
  N  N599  1  0.63617000  0.93011000  0.44606000  1
  N  N600  1  0.56837000  0.39475000  0.38084000  1
  N  N601  1  0.68753000  0.61916000  0.51391000  1
  N  N602  1  0.20606000  0.01595000  0.06989000  1
  N  N603  1  0.43163000  0.82638000  0.31247000  1
  N  N604  1  0.58034000  0.97183000  0.46549000  1
  N  N605  1  0.08034000  0.46549000  0.97183000  1
  N  N606  1  0.93163000  0.31247000  0.82638000  1
  N  N607  1  0.10851000  0.99366000  0.02817000  1
  N  N608  1  0.55394000  0.69011000  0.48405000  1
  N  N609  1  0.67362000  0.48609000  0.60525000  1
  N  N610  1  0.36383000  0.29394000  0.30989000  1
  N  N611  1  0.41966000  0.39149000  0.38515000  1
  N  N612  1  0.53451000  0.61485000  0.50634000  1
  N  N613  1  0.44606000  0.13617000  0.43011000  1
  N  N614  1  0.71022000  0.50003000  0.69553000  1
  N  N615  1  0.82638000  0.43163000  0.81247000  1
  N  N616  1  0.97183000  0.58034000  0.96549000  1
  N  N617  1  0.28981000  0.98531000  0.28978000  1
