# generated using pymatgen
data_Cu3H58C90(N2O3)4
_symmetry_space_group_name_H-M   'P 1'
_cell_length_a   20.84172594
_cell_length_b   20.84172594
_cell_length_c   40.28999717
_cell_angle_alpha   104.89140949
_cell_angle_beta   104.89140949
_cell_angle_gamma   90.36739776
_symmetry_Int_Tables_number   1
_chemical_formula_structural   Cu3H58C90(N2O3)4
_chemical_formula_sum   'Cu12 H232 C360 N32 O48'
_cell_volume   16295.98995706
_cell_formula_units_Z   4
loop_
 _symmetry_equiv_pos_site_id
 _symmetry_equiv_pos_as_xyz
  1  'x, y, z'
loop_
 _atom_site_type_symbol
 _atom_site_label
 _atom_site_symmetry_multiplicity
 _atom_site_fract_x
 _atom_site_fract_y
 _atom_site_fract_z
 _atom_site_occupancy
  C  C0  1  0.56608000  0.98968000  0.99996000  1
  C  C1  1  0.67342000  0.79402000  0.99724000  1
  C  C2  1  0.96927000  0.37747000  0.98794000  1
  C  C3  1  0.72042000  0.77622000  0.98084000  1
  C  C4  1  0.02690000  0.46570000  0.97700000  1
  C  C5  1  0.60995000  0.80155000  0.97570000  1
  C  C6  1  0.18641000  0.31401000  0.96442000  1
  C  C7  1  0.53675000  0.95455000  0.95970000  1
  C  C8  1  0.93970000  0.35230000  0.94880000  1
  C  C9  1  0.47401000  0.93581000  0.94762000  1
  C  C10  1  0.14459000  0.34619000  0.94678000  1
  C  C11  1  0.22177000  0.26557000  0.94474000  1
  C  C12  1  0.70874000  0.76674000  0.94268000  1
  C  C13  1  0.99768000  0.44288000  0.94056000  1
  C  C14  1  0.59654000  0.79294000  0.93968000  1
  C  C15  1  0.58033000  0.95233000  0.93706000  1
  C  C16  1  0.95171000  0.38791000  0.92742000  1
  C  C17  1  0.64817000  0.77577000  0.92414000  1
  C  C18  1  0.44455000  0.90875000  0.91090000  1
  C  C19  1  0.12801000  0.33081000  0.90842000  1
  C  C20  1  0.20462000  0.25142000  0.90824000  1
  C  C21  1  0.54921000  0.92161000  0.89902000  1
  C  C22  1  0.16094000  0.28454000  0.89148000  1
  C  C23  1  0.48381000  0.89741000  0.88922000  1
  C  C24  1  0.63802000  0.76582000  0.88364000  1
  C  C25  1  0.94440000  0.25040000  0.87880000  1
  C  C26  1  0.88415000  0.46575000  0.87610000  1
  C  C27  1  0.90457333  0.30077333  0.87198000  1
  C  C28  1  0.91604000  0.41404000  0.87008000  1
  C  C29  1  0.89624000  0.73124000  0.86028000  1
  C  C30  1  0.92852000  0.18512000  0.85944000  1
  C  C31  1  0.87377000  0.51197000  0.85774000  1
  C  C32  1  0.82589000  0.73109000  0.85678000  1
  C  C33  1  0.45284000  0.85884000  0.84908000  1
  C  C34  1  0.21150000  0.80350000  0.84880000  1
  C  C35  1  0.99124000  0.75704000  0.84468000  1
  C  C36  1  0.17014000  0.37394000  0.84468000  1
  C  C37  1  0.84668000  0.28248000  0.84396000  1
  C  C38  1  0.94494000  0.40694000  0.84188000  1
  C  C39  1  0.92428000  0.76408000  0.84176000  1
  C  C40  1  0.26970000  0.82390000  0.84160000  1
  C  C41  1  0.09333000  0.76573000  0.84026000  1
  C  C42  1  0.09622000  0.15562000  0.83984000  1
  C  C43  1  0.13779000  0.31639000  0.83398000  1
  C  C44  1  0.12996000  0.20036000  0.83272000  1
  C  C45  1  0.87576000  0.16896000  0.83132000  1
  C  C46  1  0.90548000  0.50448000  0.82936000  1
  C  C47  1  0.16067000  0.42247000  0.82714000  1
  C  C48  1  0.15090000  0.77290000  0.82660000  1
  C  C49  1  0.83169000  0.21929000  0.82398000  1
  C  C50  1  0.93876000  0.44856000  0.82352000  1
  C  C51  1  0.88098000  0.79638000  0.82076000  1
  C  C52  1  0.08769000  0.08829000  0.82018000  1
  C  C53  1  0.88415000  0.04835000  0.81890000  1
  C  C54  1  0.81707000  0.79507000  0.81734000  1
  C  C55  1  0.90018000  0.55538000  0.80676000  1
  C  C56  1  0.86108000  0.09708000  0.80676000  1
  C  C57  1  0.08515000  0.30555000  0.80210000  1
  C  C58  1  0.15965000  0.18025000  0.80130000  1
  C  C59  1  0.87064000  0.98364000  0.79708000  1
  C  C60  1  0.95102000  0.56922000  0.79664000  1
  C  C61  1  0.84011000  0.57951000  0.79622000  1
  C  C62  1  0.11422000  0.41502000  0.79524000  1
  C  C63  1  0.14740000  0.75440000  0.79060000  1
  C  C64  1  0.10801000  0.06781000  0.78942000  1
  C  C65  1  0.61063000  0.83563000  0.78926000  1
  C  C66  1  0.61262000  0.64262000  0.78844000  1
  C  C67  1  0.07538000  0.35058000  0.78436000  1
  C  C68  1  0.21190000  0.76150000  0.78280000  1
  C  C69  1  0.14503000  0.11863000  0.78206000  1
  C  C70  1  0.15087000  0.51047000  0.77794000  1
  C  C71  1  0.94457000  0.61417000  0.77594000  1
  C  C72  1  0.83247000  0.62407000  0.77434000  1
  C  C73  1  0.10179000  0.46079000  0.77378000  1
  C  C74  1  0.82596000  0.08696000  0.77012000  1
  C  C75  1  0.59857000  0.88457000  0.76994000  1
  C  C76  1  0.55647000  0.52827000  0.76954000  1
  C  C77  1  0.09777000  0.99997000  0.76814000  1
  C  C78  1  0.65380000  0.92280000  0.76800000  1
  C  C79  1  0.60105000  0.57085000  0.76610000  1
  C  C80  1  0.88713000  0.63693000  0.76446000  1
  C  C81  1  0.03839000  0.96059000  0.76158000  1
  C  C82  1  0.83385000  0.97185000  0.76050000  1
  C  C83  1  0.33143000  0.91303000  0.75926000  1
  C  C84  1  0.13786000  0.55466000  0.75912000  1
  C  C85  1  0.39070000  0.69390000  0.75800000  1
  C  C86  1  0.53866000  0.90146000  0.75672000  1
  C  C87  1  0.14556000  0.97096000  0.75192000  1
  C  C88  1  0.54464000  0.46044000  0.75128000  1
  C  C89  1  0.31489000  0.02409000  0.75058000  1
  C  C90  1  0.81431000  0.02351000  0.74942000  1
  C  C91  1  0.04336000  0.45916000  0.74872000  1
  C  C92  1  0.64364000  0.96904000  0.74808000  1
  C  C93  1  0.03194000  0.89474000  0.74328000  1
  C  C94  1  0.88270000  0.68590000  0.74200000  1
  C  C95  1  0.62874000  0.54554000  0.74088000  1
  C  C96  1  0.82217000  0.90377000  0.74074000  1
  C  C97  1  0.32335000  0.96135000  0.73950000  1
  C  C98  1  0.52681000  0.94901000  0.73842000  1
  C  C99  1  0.37267000  0.62247000  0.73554000  1
  C  C100  1  0.08495000  0.55475000  0.73390000  1
  C  C101  1  0.13580000  0.90480000  0.73200000  1
  C  C102  1  0.57963000  0.98183000  0.73186000  1
  C  C103  1  0.03693000  0.50873000  0.73046000  1
  C  C104  1  0.07863000  0.86463000  0.73006000  1
  C  C105  1  0.30584000  0.06684000  0.72988000  1
  C  C106  1  0.57801000  0.43701000  0.72622000  1
  C  C107  1  0.30813000  0.59973000  0.72566000  1
  C  C108  1  0.41863000  0.58823000  0.72406000  1
  C  C109  1  0.62293000  0.48253000  0.72206000  1
  C  C110  1  0.61297000  0.08657000  0.71794000  1
  C  C111  1  0.67910000  0.72870000  0.71720000  1
  C  C112  1  0.54102000  0.31622000  0.71564000  1
  C  C113  1  0.07418000  0.60418000  0.71156000  1
  C  C114  1  0.07137000  0.79637000  0.71074000  1
  C  C115  1  0.56859000  0.02839000  0.71058000  1
  C  C116  1  0.60680000  0.71380000  0.70940000  1
  C  C117  1  0.56898000  0.36978000  0.70476000  1
  C  C118  1  0.29389000  0.53329000  0.70378000  1
  C  C119  1  0.40438000  0.52258000  0.70336000  1
  C  C120  1  0.32356000  0.93656000  0.70292000  1
  C  C121  1  0.60835000  0.12895000  0.69870000  1
  C  C122  1  0.53305000  0.25345000  0.69790000  1
  C  C123  1  0.30432000  0.04032000  0.69324000  1
  C  C124  1  0.34342000  0.49862000  0.69324000  1
  C  C125  1  0.24973000  0.72773000  0.68266000  1
  C  C126  1  0.31525000  0.97945000  0.68110000  1
  C  C127  1  0.51751000  0.01811000  0.67982000  1
  C  C128  1  0.31022000  0.72562000  0.67924000  1
  C  C129  1  0.36524000  0.37504000  0.67648000  1
  C  C130  1  0.25771000  0.14531000  0.67602000  1
  C  C131  1  0.57430000  0.69630000  0.67340000  1
  C  C132  1  0.58353000  0.34533000  0.67286000  1
  C  C133  1  0.32612000  0.42512000  0.67064000  1
  C  C134  1  0.29444000  0.08764000  0.66868000  1
  C  C135  1  0.54724000  0.11764000  0.66728000  1
  C  C136  1  0.55381000  0.23241000  0.66602000  1
  C  C137  1  0.50638000  0.06578000  0.66016000  1
  C  C138  1  0.50307000  0.67547000  0.65974000  1
  C  C139  1  0.67810000  0.73230000  0.65840000  1
  C  C140  1  0.33252000  0.67232000  0.65824000  1
  C  C141  1  0.35306000  0.31506000  0.65812000  1
  C  C142  1  0.25272000  0.18852000  0.65604000  1
  C  C143  1  0.39656000  0.66236000  0.65532000  1
  C  C144  1  0.57546000  0.27926000  0.65532000  1
  C  C145  1  0.61270000  0.70470000  0.65120000  1
  C  C146  1  0.85376000  0.75976000  0.65092000  1
  C  C147  1  0.21911000  0.62431000  0.64322000  1
  C  C148  1  0.26603000  0.40423000  0.64226000  1
  C  C149  1  0.31908000  0.07568000  0.64056000  1
  C  C150  1  0.28596000  0.62096000  0.63972000  1
  C  C151  1  0.29596000  0.29396000  0.62992000  1
  C  C152  1  0.28261000  0.17881000  0.62802000  1
  C  C153  1  0.25805000  0.33965000  0.62390000  1
  C  C154  1  0.31560000  0.12160000  0.62120000  1
  C  C155  1  0.00438000  0.63218000  0.61636000  1
  C  C156  1  0.84459000  0.75819000  0.61078000  1
  C  C157  1  0.51946000  0.14306000  0.60852000  1
  C  C158  1  0.90019000  0.77259000  0.60098000  1
  C  C159  1  0.54638000  0.09318000  0.59176000  1
  C  C160  1  0.46959000  0.17239000  0.59158000  1
  C  C161  1  0.78365000  0.74785000  0.58910000  1
  C  C162  1  0.97403000  0.60163000  0.57586000  1
  C  C163  1  0.27429000  0.21049000  0.57258000  1
  C  C164  1  0.89327000  0.76527000  0.56294000  1
  C  C165  1  0.90686000  0.60326000  0.56032000  1
  C  C166  1  0.30712000  0.25232000  0.55944000  1
  C  C167  1  0.01606000  0.57406000  0.55732000  1
  C  C168  1  0.52703000  0.07083000  0.55526000  1
  C  C169  1  0.44781000  0.14941000  0.55322000  1
  C  C170  1  0.77639000  0.73819000  0.55238000  1
  C  C171  1  0.24090000  0.15350000  0.55120000  1
  C  C172  1  0.82705000  0.74485000  0.54030000  1
  C  C173  1  0.47199000  0.09959000  0.53558000  1
  C  C174  1  0.88425000  0.57585000  0.52430000  1
  C  C175  1  0.29990000  0.23870000  0.52300000  1
  C  C176  1  0.98958000  0.54538000  0.51916000  1
  C  C177  1  0.23133000  0.13953000  0.51206000  1
  C  C178  1  0.92618000  0.54678000  0.50276000  1
  C  C179  1  0.81612000  0.73972000  0.50004000  1
  C  C180  1  0.26028000  0.18388000  0.49996000  1
  C  C181  1  0.45322000  0.07382000  0.49724000  1
  C  C182  1  0.86047000  0.76867000  0.48794000  1
  C  C183  1  0.45462000  0.01042000  0.48084000  1
  C  C184  1  0.76130000  0.70010000  0.47700000  1
  C  C185  1  0.42415000  0.11575000  0.47570000  1
  C  C186  1  0.90041000  0.52801000  0.46442000  1
  C  C187  1  0.25515000  0.17295000  0.45970000  1
  C  C188  1  0.84650000  0.75910000  0.44880000  1
  C  C189  1  0.26181000  0.22361000  0.44762000  1
  C  C190  1  0.85059000  0.55219000  0.44678000  1
  C  C191  1  0.92917000  0.47297000  0.44474000  1
  C  C192  1  0.42594000  0.98394000  0.44268000  1
  C  C193  1  0.74768000  0.69288000  0.44056000  1
  C  C194  1  0.39674000  0.09314000  0.43968000  1
  C  C195  1  0.23473000  0.10673000  0.43706000  1
  C  C196  1  0.78951000  0.72571000  0.42742000  1
  C  C197  1  0.39837000  0.02597000  0.42414000  1
  C  C198  1  0.25215000  0.21635000  0.41090000  1
  C  C199  1  0.82761000  0.53041000  0.40842000  1
  C  C200  1  0.90682000  0.45362000  0.40824000  1
  C  C201  1  0.22741000  0.09981000  0.39902000  1
  C  C202  1  0.85694000  0.48054000  0.39148000  1
  C  C203  1  0.24181000  0.15541000  0.38922000  1
  C  C204  1  0.36782000  0.99562000  0.38364000  1
  C  C205  1  0.87840000  0.68440000  0.37880000  1
  C  C206  1  0.66035000  0.74195000  0.37610000  1
  C  C207  1  0.82119000  0.71739000  0.37198000  1
  C  C208  1  0.70604000  0.70404000  0.37008000  1
  C  C209  1  0.37904000  0.71404000  0.36028000  1
  C  C210  1  0.92432000  0.68092000  0.35944000  1
  C  C211  1  0.59577000  0.73397000  0.35774000  1
  C  C212  1  0.37569000  0.78089000  0.35678000  1
  C  C213  1  0.24024000  0.14624000  0.34908000  1
  C  C214  1  0.29530000  0.38730000  0.34880000  1
  C  C215  1  0.72074000  0.42454000  0.34468000  1
  C  C216  1  0.33764000  0.60344000  0.34468000  1
  C  C217  1  0.81148000  0.74728000  0.34396000  1
  C  C218  1  0.68494000  0.64694000  0.34188000  1
  C  C219  1  0.32768000  0.66748000  0.34176000  1
  C  C220  1  0.26770000  0.32190000  0.34160000  1
  C  C221  1  0.32453000  0.49693000  0.34026000  1
  C  C222  1  0.93422000  0.49362000  0.33984000  1
  C  C223  1  0.76759000  0.44619000  0.33398000  1
  C  C224  1  0.88236000  0.45276000  0.33272000  1
  C  C225  1  0.91236000  0.70556000  0.33132000  1
  C  C226  1  0.57488000  0.67388000  0.32936000  1
  C  C227  1  0.65467000  0.41647000  0.32714000  1
  C  C228  1  0.30370000  0.42570000  0.32660000  1
  C  C229  1  0.85469000  0.74229000  0.32398000  1
  C  C230  1  0.62496000  0.63476000  0.32352000  1
  C  C231  1  0.27438000  0.68978000  0.32076000  1
  C  C232  1  0.98189000  0.48249000  0.32018000  1
  C  C233  1  0.02055000  0.68475000  0.31890000  1
  C  C234  1  0.27227000  0.75027000  0.31734000  1
  C  C235  1  0.50138000  0.65658000  0.30676000  1
  C  C236  1  0.95968000  0.69568000  0.30676000  1
  C  C237  1  0.74655000  0.46695000  0.30210000  1
  C  C238  1  0.87105000  0.39165000  0.30130000  1
  C  C239  1  0.06344000  0.67644000  0.29708000  1
  C  C240  1  0.47742000  0.59562000  0.29664000  1
  C  C241  1  0.46671000  0.70611000  0.29622000  1
  C  C242  1  0.63022000  0.43102000  0.29524000  1
  C  C243  1  0.28620000  0.39320000  0.29060000  1
  C  C244  1  0.97161000  0.43141000  0.28942000  1
  C  C245  1  0.20363000  0.92863000  0.28926000  1
  C  C246  1  0.39582000  0.92582000  0.28844000  1
  C  C247  1  0.68378000  0.45898000  0.28436000  1
  C  C248  1  0.27130000  0.32090000  0.28280000  1
  C  C249  1  0.91343000  0.38703000  0.28206000  1
  C  C250  1  0.51747000  0.37707000  0.27794000  1
  C  C251  1  0.41177000  0.58137000  0.27594000  1
  C  C252  1  0.40027000  0.69187000  0.27434000  1
  C  C253  1  0.56299000  0.42199000  0.27378000  1
  C  C254  1  0.93316000  0.69416000  0.27012000  1
  C  C255  1  0.13537000  0.92137000  0.26994000  1
  C  C256  1  0.49127000  0.96307000  0.26954000  1
  C  C257  1  0.01817000  0.42037000  0.26814000  1
  C  C258  1  0.09520000  0.86420000  0.26800000  1
  C  C259  1  0.44525000  0.91505000  0.26610000  1
  C  C260  1  0.37753000  0.62733000  0.26446000  1
  C  C261  1  0.05099000  0.47319000  0.26158000  1
  C  C262  1  0.03865000  0.67665000  0.26050000  1
  C  C263  1  0.09623000  0.17783000  0.25926000  1
  C  C264  1  0.45446000  0.37126000  0.25912000  1
  C  C265  1  0.31410000  0.11730000  0.25800000  1
  C  C266  1  0.10526000  0.96806000  0.25672000  1
  C  C267  1  0.03096000  0.35636000  0.25192000  1
  C  C268  1  0.54084000  0.95664000  0.25128000  1
  C  C269  1  0.97649000  0.18569000  0.25058000  1
  C  C270  1  0.97591000  0.68511000  0.24942000  1
  C  C271  1  0.53956000  0.45536000  0.24872000  1
  C  C272  1  0.02904000  0.85444000  0.24808000  1
  C  C273  1  0.09854000  0.46134000  0.24328000  1
  C  C274  1  0.30610000  0.60930000  0.24200000  1
  C  C275  1  0.44534000  0.86214000  0.24088000  1
  C  C276  1  0.08697000  0.66857000  0.24074000  1
  C  C277  1  0.02815000  0.16615000  0.23950000  1
  C  C278  1  0.03941000  0.96161000  0.23842000  1
  C  C279  1  0.36307000  0.11287000  0.23554000  1
  C  C280  1  0.42915000  0.39895000  0.23390000  1
  C  C281  1  0.07720000  0.34620000  0.23200000  1
  C  C282  1  0.00003000  0.90223000  0.23186000  1
  C  C283  1  0.47173000  0.44353000  0.23046000  1
  C  C284  1  0.11543000  0.40143000  0.23006000  1
  C  C285  1  0.91304000  0.17404000  0.22988000  1
  C  C286  1  0.53921000  0.89821000  0.22622000  1
  C  C287  1  0.37593000  0.16753000  0.22566000  1
  C  C288  1  0.38583000  0.05543000  0.22406000  1
  C  C289  1  0.48953000  0.84913000  0.22206000  1
  C  C290  1  0.88137000  0.85497000  0.21794000  1
  C  C291  1  0.23850000  0.78810000  0.21720000  1
  C  C292  1  0.64942000  0.92462000  0.21564000  1
  C  C293  1  0.35738000  0.38738000  0.21156000  1
  C  C294  1  0.16437000  0.38937000  0.21074000  1
  C  C295  1  0.93219000  0.89199000  0.21058000  1
  C  C296  1  0.24560000  0.85260000  0.20940000  1
  C  C297  1  0.58498000  0.88578000  0.20476000  1
  C  C298  1  0.42049000  0.15989000  0.20378000  1
  C  C299  1  0.43078000  0.04898000  0.20336000  1
  C  C300  1  0.01636000  0.12936000  0.20292000  1
  C  C301  1  0.81975000  0.84035000  0.19870000  1
  C  C302  1  0.69445000  0.91485000  0.19790000  1
  C  C303  1  0.90292000  0.13892000  0.19324000  1
  C  C304  1  0.44462000  0.09982000  0.19324000  1
  C  C305  1  0.20493000  0.18293000  0.18266000  1
  C  C306  1  0.95165000  0.11585000  0.18110000  1
  C  C307  1  0.91171000  0.91231000  0.17982000  1
  C  C308  1  0.20362000  0.11902000  0.17924000  1
  C  C309  1  0.55144000  0.06124000  0.17648000  1
  C  C310  1  0.78071000  0.16831000  0.17602000  1
  C  C311  1  0.22710000  0.84910000  0.17340000  1
  C  C312  1  0.57753000  0.83933000  0.17286000  1
  C  C313  1  0.49552000  0.09452000  0.17064000  1
  C  C314  1  0.83104000  0.12424000  0.16868000  1
  C  C315  1  0.79964000  0.87004000  0.16728000  1
  C  C316  1  0.68361000  0.86221000  0.16602000  1
  C  C317  1  0.84438000  0.90378000  0.16016000  1
  C  C318  1  0.23427000  0.90667000  0.15974000  1
  C  C319  1  0.17610000  0.73030000  0.15840000  1
  C  C320  1  0.23592000  0.07572000  0.15824000  1
  C  C321  1  0.59306000  0.05506000  0.15812000  1
  C  C322  1  0.71752000  0.15332000  0.15604000  1
  C  C323  1  0.62606000  0.82986000  0.15532000  1
  C  C324  1  0.24296000  0.00876000  0.15532000  1
  C  C325  1  0.19650000  0.78850000  0.15120000  1
  C  C326  1  0.14116000  0.54716000  0.15092000  1
  C  C327  1  0.26891000  0.17411000  0.14322000  1
  C  C328  1  0.48803000  0.12623000  0.14226000  1
  C  C329  1  0.81488000  0.07148000  0.14056000  1
  C  C330  1  0.26876000  0.10376000  0.13972000  1
  C  C331  1  0.58596000  0.08396000  0.12992000  1
  C  C332  1  0.69922667  0.09542667  0.12802000  1
  C  C333  1  0.53425000  0.11585000  0.12390000  1
  C  C334  1  0.74960000  0.05560000  0.12120000  1
  C  C335  1  0.23418000  0.36198000  0.11636000  1
  C  C336  1  0.10259000  0.51619000  0.11078000  1
  C  C337  1  0.71546000  0.83906000  0.10852000  1
  C  C338  1  0.07839000  0.45079000  0.10098000  1
  C  C339  1  0.74858000  0.79538000  0.09176000  1
  C  C340  1  0.66919000  0.87199000  0.09158000  1
  C  C341  1  0.09125000  0.55545000  0.08910000  1
  C  C342  1  0.22423000  0.35183000  0.07586000  1
  C  C343  1  0.61209000  0.04829000  0.07258000  1
  C  C344  1  0.04767000  0.41967000  0.06294000  1
  C  C345  1  0.20706000  0.40346000  0.06032000  1
  C  C346  1  0.55712000  0.00232000  0.05944000  1
  C  C347  1  0.23326000  0.29126000  0.05732000  1
  C  C348  1  0.73443000  0.77823000  0.05526000  1
  C  C349  1  0.65381000  0.85541000  0.05322000  1
  C  C350  1  0.06419000  0.52599000  0.05238000  1
  C  C351  1  0.64770000  0.06030000  0.05120000  1
  C  C352  1  0.04545000  0.46325000  0.04030000  1
  C  C353  1  0.68599000  0.81359000  0.03558000  1
  C  C354  1  0.19845000  0.39005000  0.02430000  1
  C  C355  1  0.53430000  0.97310000  0.02300000  1
  C  C356  1  0.22378000  0.27958000  0.01916000  1
  C  C357  1  0.62253000  0.03073000  0.01206000  1
  C  C358  1  0.20598000  0.32658000  0.00276000  1
  C  C359  1  0.01032000  0.43392000  0.00004000  1
  Cu  Cu360  1  0.68838000  0.75638000  0.82610000  1
  Cu  Cu361  1  0.51926000  0.75138000  0.81400000  1
  Cu  Cu362  1  0.34583000  0.81803000  0.79108000  1
  Cu  Cu363  1  0.80475000  0.77695000  0.70892000  1
  Cu  Cu364  1  0.95526000  0.68738000  0.68600000  1
  Cu  Cu365  1  0.11228000  0.68028000  0.67390000  1
  Cu  Cu366  1  0.31972000  0.88772000  0.32610000  1
  Cu  Cu367  1  0.31262000  0.04474000  0.31400000  1
  Cu  Cu368  1  0.22305000  0.19525000  0.29108000  1
  Cu  Cu369  1  0.18197000  0.65417000  0.20892000  1
  Cu  Cu370  1  0.24862000  0.48074000  0.18600000  1
  Cu  Cu371  1  0.24361500  0.31161500  0.17389000  1
  H  H372  1  0.64520000  0.04020000  0.99600000  1
  H  H373  1  0.76310000  0.76950000  0.99440000  1
  H  H374  1  0.57500000  0.81320000  0.98680000  1
  H  H375  1  0.05830000  0.50330000  0.98600000  1
  H  H376  1  0.44720000  0.94020000  0.96380000  1
  H  H377  1  0.12410000  0.38130000  0.95940000  1
  H  H378  1  0.25650000  0.24390000  0.95700000  1
  H  H379  1  0.62570000  0.96930000  0.94600000  1
  H  H380  1  0.91260000  0.31160000  0.93920000  1
  H  H381  1  0.74310000  0.75430000  0.93120000  1
  H  H382  1  0.55360000  0.79860000  0.92600000  1
  H  H383  1  0.00930000  0.46490000  0.92480000  1
  H  H384  1  0.39780000  0.89900000  0.90200000  1
  H  H385  1  0.98430000  0.26150000  0.89760000  1
  H  H386  1  0.86560000  0.47240000  0.89580000  1
  H  H387  1  0.09450000  0.35290000  0.89560000  1
  H  H388  1  0.22490000  0.21690000  0.89500000  1
  H  H389  1  0.57350000  0.91870000  0.88180000  1
  H  H390  1  0.92310000  0.70830000  0.87560000  1
  H  H391  1  0.21430000  0.81270000  0.87360000  1
  H  H392  1  0.80570000  0.70830000  0.86960000  1
  H  H393  1  0.20350000  0.38330000  0.86660000  1
  H  H394  1  0.95540000  0.15140000  0.86620000  1
  H  H395  1  0.84680000  0.54760000  0.86320000  1
  H  H396  1  0.07650000  0.16870000  0.85920000  1
  H  H397  1  0.30750000  0.84750000  0.85920000  1
  H  H398  1  0.91070000  0.05650000  0.84280000  1
  H  H399  1  0.81730000  0.31550000  0.83880000  1
  H  H400  1  0.18750000  0.46330000  0.83760000  1
  H  H401  1  0.96990000  0.36970000  0.83620000  1
  H  H402  1  0.06760000  0.05640000  0.82820000  1
  H  H403  1  0.89880000  0.82120000  0.80800000  1
  H  H404  1  0.88570000  0.94730000  0.80640000  1
  H  H405  1  0.79200000  0.20780000  0.80500000  1
  H  H406  1  0.95890000  0.44030000  0.80440000  1
  H  H407  1  0.80320000  0.56640000  0.80340000  1
  H  H408  1  0.99170000  0.54930000  0.80300000  1
  H  H409  1  0.79010000  0.81690000  0.80140000  1
  H  H410  1  0.18710000  0.21070000  0.79600000  1
  H  H411  1  0.19330000  0.51250000  0.79420000  1
  H  H412  1  0.05700000  0.26540000  0.79380000  1
  H  H413  1  0.96580000  0.81940000  0.79320000  1
  H  H414  1  0.03690000  0.82770000  0.79060000  1
  H  H415  1  0.53050000  0.54550000  0.78560000  1
  H  H416  1  0.69780000  0.91660000  0.78040000  1
  H  H417  1  0.31510000  0.04110000  0.77480000  1
  H  H418  1  0.10690000  0.73850000  0.77240000  1
  H  H419  1  0.98250000  0.62850000  0.77000000  1
  H  H420  1  0.00250000  0.97990000  0.77000000  1
  H  H421  1  0.79190000  0.64350000  0.76720000  1
  H  H422  1  0.17120000  0.59020000  0.76480000  1
  H  H423  1  0.04050000  0.34090000  0.76280000  1
  H  H424  1  0.16050000  0.10610000  0.76120000  1
  H  H425  1  0.21690000  0.73350000  0.76100000  1
  H  H426  1  0.81150000  0.12330000  0.76060000  1
  H  H427  1  0.50160000  0.87940000  0.76000000  1
  H  H428  1  0.51460000  0.43200000  0.75620000  1
  H  H429  1  0.18530000  0.99650000  0.75440000  1
  H  H430  1  0.68090000  0.99210000  0.74560000  1
  H  H431  1  0.00840000  0.42580000  0.74380000  1
  H  H432  1  0.99160000  0.86940000  0.74000000  1
  H  H433  1  0.30090000  0.11270000  0.73940000  1
  H  H434  1  0.70590000  0.72250000  0.73900000  1
  H  H435  1  0.64930000  0.09490000  0.73880000  1
  H  H436  1  0.52770000  0.32810000  0.73720000  1
  H  H437  1  0.65640000  0.57540000  0.73520000  1
  H  H438  1  0.27470000  0.62630000  0.73280000  1
  H  H439  1  0.48250000  0.95990000  0.73000000  1
  H  H440  1  0.46250000  0.60850000  0.73000000  1
  H  H441  1  0.58450000  0.71610000  0.72760000  1
  H  H442  1  0.79030000  0.01630000  0.72520000  1
  H  H443  1  0.16740000  0.88620000  0.71960000  1
  H  H444  1  0.99490000  0.50990000  0.71440000  1
  H  H445  1  0.49630000  0.78710000  0.70940000  1
  H  H446  1  0.42260000  0.77620000  0.70680000  1
  H  H447  1  0.51320000  0.22160000  0.70620000  1
  H  H448  1  0.64910000  0.46830000  0.70580000  1
  H  H449  1  0.64110000  0.16470000  0.70400000  1
  H  H450  1  0.23870000  0.76550000  0.69860000  1
  H  H451  1  0.43870000  0.49630000  0.69700000  1
  H  H452  1  0.24980000  0.51300000  0.69660000  1
  H  H453  1  0.40450000  0.38590000  0.69560000  1
  H  H454  1  0.23700000  0.15280000  0.69500000  1
  H  H455  1  0.32930000  0.89090000  0.69360000  1
  H  H456  1  0.34080000  0.76320000  0.69200000  1
  H  H457  1  0.48940000  0.97820000  0.67180000  1
  H  H458  1  0.38370000  0.28350000  0.66380000  1
  H  H459  1  0.59990000  0.37570000  0.66240000  1
  H  H460  1  0.22850000  0.22670000  0.66120000  1
  H  H461  1  0.31790000  0.96370000  0.65720000  1
  H  H462  1  0.46730000  0.05950000  0.64080000  1
  H  H463  1  0.69830000  0.73830000  0.64080000  1
  H  H464  1  0.23360000  0.43440000  0.63680000  1
  H  H465  1  0.33920000  0.03520000  0.63380000  1
  H  H466  1  0.58690000  0.26670000  0.63340000  1
  H  H467  1  0.18610000  0.58870000  0.63040000  1
  H  H468  1  0.59070000  0.68910000  0.62640000  1
  H  H469  1  0.29750000  0.58270000  0.62440000  1
  H  H470  1  0.94170000  0.78690000  0.61820000  1
  H  H471  1  0.57990000  0.07190000  0.60500000  1
  H  H472  1  0.44890000  0.20730000  0.60440000  1
  H  H473  1  0.21980000  0.32660000  0.60420000  1
  H  H474  1  0.33670000  0.11390000  0.60240000  1
  H  H475  1  0.74580000  0.74700000  0.59800000  1
  H  H476  1  0.33450000  0.29010000  0.57520000  1
  H  H477  1  0.87760000  0.62260000  0.57400000  1
  H  H478  1  0.06190000  0.57310000  0.56880000  1
  H  H479  1  0.22340000  0.12240000  0.56080000  1
  H  H480  1  0.92970000  0.77330000  0.55400000  1
  H  H481  1  0.54950000  0.03690000  0.54300000  1
  H  H482  1  0.41470000  0.17190000  0.54060000  1
  H  H483  1  0.73340000  0.72640000  0.53620000  1
  H  H484  1  0.32230000  0.26730000  0.51400000  1
  H  H485  1  0.83820000  0.57640000  0.51320000  1
  H  H486  1  0.01870000  0.52510000  0.50560000  1
  H  H487  1  0.89920000  0.79420000  0.50400000  1
  H  H488  1  0.20580000  0.10080000  0.49600000  1
  H  H489  1  0.47490000  0.98130000  0.49440000  1
  H  H490  1  0.42360000  0.16180000  0.48680000  1
  H  H491  1  0.73270000  0.67770000  0.48600000  1
  H  H492  1  0.27360000  0.26660000  0.46380000  1
  H  H493  1  0.82810000  0.58530000  0.45940000  1
  H  H494  1  0.96310000  0.45050000  0.45700000  1
  H  H495  1  0.22670000  0.07030000  0.44600000  1
  H  H496  1  0.87760000  0.77660000  0.43920000  1
  H  H497  1  0.42690000  0.93810000  0.43120000  1
  H  H498  1  0.37740000  0.12240000  0.42600000  1
  H  H499  1  0.70990000  0.66550000  0.42480000  1
  H  H500  1  0.25300000  0.25420000  0.40200000  1
  H  H501  1  0.88610000  0.66330000  0.39760000  1
  H  H502  1  0.67340000  0.78020000  0.39580000  1
  H  H503  1  0.79270000  0.55110000  0.39560000  1
  H  H504  1  0.92810000  0.42010000  0.39500000  1
  H  H505  1  0.21310000  0.05830000  0.38180000  1
  H  H506  1  0.41730000  0.70250000  0.37560000  1
  H  H507  1  0.31090000  0.40930000  0.37360000  1
  H  H508  1  0.41130000  0.81390000  0.36960000  1
  H  H509  1  0.73330000  0.41310000  0.36660000  1
  H  H510  1  0.96480000  0.66080000  0.36620000  1
  H  H511  1  0.56560000  0.76640000  0.36320000  1
  H  H512  1  0.26170000  0.30170000  0.35920000  1
  H  H513  1  0.94050000  0.53270000  0.35920000  1
  H  H514  1  0.03630000  0.68210000  0.34280000  1
  H  H515  1  0.77330000  0.77150000  0.33880000  1
  H  H516  1  0.62430000  0.40010000  0.33760000  1
  H  H517  1  0.71650000  0.61630000  0.33620000  1
  H  H518  1  0.02180000  0.51060000  0.32820000  1
  H  H519  1  0.23680000  0.65920000  0.30800000  1
  H  H520  1  0.10910000  0.67070000  0.30640000  1
  H  H521  1  0.84720000  0.76300000  0.30500000  1
  H  H522  1  0.61410000  0.59550000  0.30440000  1
  H  H523  1  0.48700000  0.75020000  0.30340000  1
  H  H524  1  0.50370000  0.56130000  0.30300000  1
  H  H525  1  0.23450000  0.76130000  0.30140000  1
  H  H526  1  0.83530000  0.35890000  0.29600000  1
  H  H527  1  0.53170000  0.35090000  0.29420000  1
  H  H528  1  0.77840000  0.48680000  0.29380000  1
  H  H529  1  0.22380000  0.57740000  0.29320000  1
  H  H530  1  0.21290000  0.50370000  0.29060000  1
  H  H531  1  0.49010000  0.00510000  0.28560000  1
  H  H532  1  0.11380000  0.83260000  0.28040000  1
  H  H533  1  0.98370000  0.20970000  0.27480000  1
  H  H534  1  0.28390000  0.41550000  0.27240000  1
  H  H535  1  0.39150000  0.53750000  0.27000000  1
  H  H536  1  0.04010000  0.51750000  0.27000000  1
  H  H537  1  0.37370000  0.72530000  0.26720000  1
  H  H538  1  0.42460000  0.34360000  0.26480000  1
  H  H539  1  0.67190000  0.47230000  0.26280000  1
  H  H540  1  0.90510000  0.35070000  0.26120000  1
  H  H541  1  0.27750000  0.29410000  0.26100000  1
  H  H542  1  0.88730000  0.69910000  0.26060000  1
  H  H543  1  0.13060000  0.00840000  0.26000000  1
  H  H544  1  0.57420000  0.99160000  0.25620000  1
  H  H545  1  0.00790000  0.31910000  0.25440000  1
  H  H546  1  0.00350000  0.81470000  0.24560000  1
  H  H547  1  0.56800000  0.48540000  0.24380000  1
  H  H548  1  0.12060000  0.49840000  0.24000000  1
  H  H549  1  0.87670000  0.18850000  0.23940000  1
  H  H550  1  0.26650000  0.78310000  0.23900000  1
  H  H551  1  0.89390000  0.83950000  0.23880000  1
  H  H552  1  0.65910000  0.95950000  0.23720000  1
  H  H553  1  0.40980000  0.82880000  0.23520000  1
  H  H554  1  0.35650000  0.20810000  0.23280000  1
  H  H555  1  0.02010000  0.99750000  0.23000000  1
  H  H556  1  0.37150000  0.01750000  0.23000000  1
  H  H557  1  0.26150000  0.89310000  0.22760000  1
  H  H558  1  0.95890000  0.68490000  0.22520000  1
  H  H559  1  0.08340000  0.30220000  0.21960000  1
  H  H560  1  0.45450000  0.46950000  0.21440000  1
  H  H561  1  0.17230000  0.96310000  0.20940000  1
  H  H562  1  0.18060000  0.03420000  0.20680000  1
  H  H563  1  0.73460000  0.94300000  0.20620000  1
  H  H564  1  0.48750000  0.80670000  0.20580000  1
  H  H565  1  0.78930000  0.81290000  0.20400000  1
  H  H566  1  0.18310000  0.20990000  0.19860000  1
  H  H567  1  0.45070000  0.00830000  0.19700000  1
  H  H568  1  0.43360000  0.19680000  0.19660000  1
  H  H569  1  0.55970000  0.04110000  0.19560000  1
  H  H570  1  0.79220000  0.20800000  0.19500000  1
  H  H571  1  0.05270000  0.11430000  0.19360000  1
  H  H572  1  0.17880000  0.10120000  0.19200000  1
  H  H573  1  0.94360000  0.93240000  0.17180000  1
  H  H574  1  0.63030000  0.03010000  0.16380000  1
  H  H575  1  0.53670000  0.81250000  0.16240000  1
  H  H576  1  0.68450000  0.18270000  0.16120000  1
  H  H577  1  0.94350000  0.08930000  0.15720000  1
  H  H578  1  0.15250000  0.69250000  0.14080000  1
  H  H579  1  0.83130000  0.92350000  0.14080000  1
  H  H580  1  0.45240000  0.15320000  0.13680000  1
  H  H581  1  0.84860000  0.04460000  0.13380000  1
  H  H582  1  0.61670000  0.79650000  0.13340000  1
  H  H583  1  0.29170000  0.19430000  0.13040000  1
  H  H584  1  0.18730000  0.78570000  0.12640000  1
  H  H585  1  0.29170000  0.07690000  0.12440000  1
  H  H586  1  0.08130000  0.42650000  0.11820000  1
  H  H587  1  0.78310000  0.77510000  0.10500000  1
  H  H588  1  0.64710000  0.90550000  0.10440000  1
  H  H589  1  0.52760000  0.13440000  0.10420000  1
  H  H590  1  0.73850000  0.01570000  0.10240000  1
  H  H591  1  0.10100000  0.60220000  0.09800000  1
  H  H592  1  0.53510000  0.99070000  0.07520000  1
  H  H593  1  0.20140000  0.44640000  0.07400000  1
  H  H594  1  0.24570000  0.25690000  0.06880000  1
  H  H595  1  0.68840000  0.08740000  0.06080000  1
  H  H596  1  0.03070000  0.37430000  0.05400000  1
  H  H597  1  0.75610000  0.74350000  0.04300000  1
  H  H598  1  0.61870000  0.87590000  0.04060000  1
  H  H599  1  0.05980000  0.55280000  0.03620000  1
  H  H600  1  0.49670000  0.94170000  0.01400000  1
  H  H601  1  0.18680000  0.42500000  0.01320000  1
  H  H602  1  0.23050000  0.23690000  0.00560000  1
  H  H603  1  0.95980000  0.35480000  0.00400000  1
  N  N604  1  0.92159000  0.36739000  0.89038000  1
  N  N605  1  0.03326000  0.72826000  0.86612000  1
  N  N606  1  0.09488000  0.73168000  0.86396000  1
  N  N607  1  0.14883000  0.26923000  0.85186000  1
  N  N608  1  0.78924000  0.76464000  0.83488000  1
  N  N609  1  0.02982000  0.78062000  0.82584000  1
  N  N610  1  0.26490000  0.80410000  0.80360000  1
  N  N611  1  0.00827000  0.81307000  0.80014000  1
  N  N612  1  0.45813000  0.76293000  0.69986000  1
  N  N613  1  0.71130000  0.75050000  0.69640000  1
  N  N614  1  0.45398000  0.70478000  0.67416000  1
  N  N615  1  0.20436000  0.67976000  0.66512000  1
  N  N616  1  0.54697000  0.16737000  0.64814000  1
  N  N617  1  0.48092000  0.61772000  0.63604000  1
  N  N618  1  0.41714000  0.61214000  0.63388000  1
  N  N619  1  0.28121000  0.22701000  0.60962000  1
  N  N620  1  0.77299000  0.71879000  0.39038000  1
  N  N621  1  0.38786000  0.58286000  0.36612000  1
  N  N622  1  0.38228000  0.51908000  0.36396000  1
  N  N623  1  0.83263000  0.45303000  0.35186000  1
  N  N624  1  0.32024000  0.79564000  0.33488000  1
  N  N625  1  0.29522000  0.54602000  0.32584000  1
  N  N626  1  0.24950000  0.28870000  0.30360000  1
  N  N627  1  0.23707000  0.54187000  0.30014000  1
  N  N628  1  0.18693000  0.99173000  0.19986000  1
  N  N629  1  0.19590000  0.73510000  0.19640000  1
  N  N630  1  0.21938000  0.97018000  0.17416000  1
  N  N631  1  0.23536000  0.21076000  0.16512000  1
  N  N632  1  0.73077000  0.85117000  0.14814000  1
  N  N633  1  0.26832000  0.90512000  0.13604000  1
  N  N634  1  0.27174000  0.96674000  0.13388000  1
  N  N635  1  0.63261000  0.07841000  0.10962000  1
  O  O636  1  0.68469000  0.75349000  0.87258000  1
  O  O637  1  0.58250000  0.77630000  0.86760000  1
  O  O638  1  0.39208000  0.85168000  0.84076000  1
  O  O639  1  0.49241000  0.84641000  0.82962000  1
  O  O640  1  0.66949000  0.83649000  0.81058000  1
  O  O641  1  0.56705000  0.66265000  0.80370000  1
  O  O642  1  0.32495000  0.93915000  0.79490000  1
  O  O643  1  0.66376000  0.67376000  0.79012000  1
  O  O644  1  0.56553000  0.79213000  0.78426000  1
  O  O645  1  0.34390000  0.72550000  0.76800000  1
  O  O646  1  0.44762000  0.72062000  0.76544000  1
  O  O647  1  0.34185000  0.85605000  0.75150000  1
  O  O648  1  0.84035000  0.85455000  0.74850000  1
  O  O649  1  0.93218000  0.70518000  0.73456000  1
  O  O650  1  0.82590000  0.70750000  0.73200000  1
  O  O651  1  0.03127000  0.75787000  0.71574000  1
  O  O652  1  0.12364000  0.63364000  0.70988000  1
  O  O653  1  0.78005000  0.89425000  0.70510000  1
  O  O654  1  0.01335000  0.60895000  0.69630000  1
  O  O655  1  0.10891000  0.77591000  0.68942000  1
  O  O656  1  0.91279000  0.76679000  0.67038000  1
  O  O657  1  0.80132000  0.76092000  0.65924000  1
  O  O658  1  0.96490000  0.65870000  0.63240000  1
  O  O659  1  0.06211000  0.63091000  0.62742000  1
  O  O660  1  0.36909000  0.93789000  0.37258000  1
  O  O661  1  0.34130000  0.03510000  0.36760000  1
  O  O662  1  0.23908000  0.19868000  0.34076000  1
  O  O663  1  0.23321000  0.08721000  0.32962000  1
  O  O664  1  0.22409000  0.89109000  0.31058000  1
  O  O665  1  0.39105000  0.98665000  0.30370000  1
  O  O666  1  0.10575000  0.21995000  0.29490000  1
  O  O667  1  0.36636000  0.87636000  0.29012000  1
  O  O668  1  0.24213000  0.96873000  0.28426000  1
  O  O669  1  0.29250000  0.17410000  0.26800000  1
  O  O670  1  0.29482000  0.06782000  0.26544000  1
  O  O671  1  0.14545000  0.15965000  0.25150000  1
  O  O672  1  0.14395000  0.65815000  0.24850000  1
  O  O673  1  0.27938000  0.55238000  0.23456000  1
  O  O674  1  0.27450000  0.65610000  0.23200000  1
  O  O675  1  0.20787000  0.43447000  0.21574000  1
  O  O676  1  0.32624000  0.33624000  0.20988000  1
  O  O677  1  0.06085000  0.67505000  0.20510000  1
  O  O678  1  0.33735000  0.43295000  0.19630000  1
  O  O679  1  0.16351000  0.33051000  0.18942000  1
  O  O680  1  0.15359000  0.50759000  0.17038000  1
  O  O681  1  0.14832000  0.60792000  0.15924000  1
  O  O682  1  0.22370000  0.41750000  0.13240000  1
  O  O683  1  0.24651000  0.31531000  0.12742000  1
