# generated using pymatgen
data_ZnH9C18N3O8
_symmetry_space_group_name_H-M   'P 1'
_cell_length_a   8.00980000
_cell_length_b   13.81300000
_cell_length_c   22.12600000
_cell_angle_alpha   90.00000000
_cell_angle_beta   98.25000000
_cell_angle_gamma   90.00000000
_symmetry_Int_Tables_number   1
_chemical_formula_structural   ZnH9C18N3O8
_chemical_formula_sum   'Zn4 H36 C72 N12 O32'
_cell_volume   2422.67316928
_cell_formula_units_Z   4
loop_
 _symmetry_equiv_pos_site_id
 _symmetry_equiv_pos_as_xyz
  1  'x, y, z'
loop_
 _atom_site_type_symbol
 _atom_site_label
 _atom_site_symmetry_multiplicity
 _atom_site_fract_x
 _atom_site_fract_y
 _atom_site_fract_z
 _atom_site_occupancy
  Zn  Zn0  1  0.19051000  0.02099000  0.15018000  1
  Zn  Zn1  1  0.19051000  0.47901000  0.65018000  1
  Zn  Zn2  1  0.80949000  0.52099000  0.34982000  1
  Zn  Zn3  1  0.80949000  0.97901000  0.84982000  1
  H  H4  1  0.07040000  0.68690000  0.65090000  1
  H  H5  1  0.07040000  0.81310000  0.15090000  1
  H  H6  1  0.07560000  0.19290000  0.43050000  1
  H  H7  1  0.07560000  0.30710000  0.93050000  1
  H  H8  1  0.08750000  0.14880000  0.61060000  1
  H  H9  1  0.08750000  0.35120000  0.11060000  1
  H  H10  1  0.09870000  0.60320000  0.46540000  1
  H  H11  1  0.09870000  0.89680000  0.96540000  1
  H  H12  1  0.26960000  0.50730000  0.85170000  1
  H  H13  1  0.26960000  0.99270000  0.35170000  1
  H  H14  1  0.35750000  0.62360000  0.04370000  1
  H  H15  1  0.35750000  0.87640000  0.54370000  1
  H  H16  1  0.45730000  0.71690000  0.96910000  1
  H  H17  1  0.45730000  0.78310000  0.46910000  1
  H  H18  1  0.47230000  0.22960000  0.70630000  1
  H  H19  1  0.47230000  0.27040000  0.20630000  1
  H  H20  1  0.47700000  0.11210000  0.04490000  1
  H  H21  1  0.47700000  0.38790000  0.54490000  1
  H  H22  1  0.52300000  0.61210000  0.45510000  1
  H  H23  1  0.52300000  0.88790000  0.95510000  1
  H  H24  1  0.52770000  0.72960000  0.79370000  1
  H  H25  1  0.52770000  0.77040000  0.29370000  1
  H  H26  1  0.54270000  0.21690000  0.53090000  1
  H  H27  1  0.54270000  0.28310000  0.03090000  1
  H  H28  1  0.64250000  0.12360000  0.45630000  1
  H  H29  1  0.64250000  0.37640000  0.95630000  1
  H  H30  1  0.73040000  0.00730000  0.64830000  1
  H  H31  1  0.73040000  0.49270000  0.14830000  1
  H  H32  1  0.90130000  0.10320000  0.03460000  1
  H  H33  1  0.90130000  0.39680000  0.53460000  1
  H  H34  1  0.91250000  0.64880000  0.88940000  1
  H  H35  1  0.91250000  0.85120000  0.38940000  1
  H  H36  1  0.92440000  0.69290000  0.06950000  1
  H  H37  1  0.92440000  0.80710000  0.56950000  1
  H  H38  1  0.92960000  0.18690000  0.84910000  1
  H  H39  1  0.92960000  0.31310000  0.34910000  1
  C  C40  1  0.00650000  0.72140000  0.41800000  1
  C  C41  1  0.00650000  0.77860000  0.91800000  1
  C  C42  1  0.02190000  0.69550000  0.52620000  1
  C  C43  1  0.02190000  0.80450000  0.02620000  1
  C  C44  1  0.03230000  0.68390000  0.35540000  1
  C  C45  1  0.03230000  0.81610000  0.85540000  1
  C  C46  1  0.05020000  0.66360000  0.46940000  1
  C  C47  1  0.05020000  0.83640000  0.96940000  1
  C  C48  1  0.05390000  0.21430000  0.46850000  1
  C  C49  1  0.05390000  0.28570000  0.96850000  1
  C  C50  1  0.06300000  0.18840000  0.57650000  1
  C  C51  1  0.06300000  0.31160000  0.07650000  1
  C  C52  1  0.06870000  0.63270000  0.58270000  1
  C  C53  1  0.06870000  0.86730000  0.08270000  1
  C  C54  1  0.09670000  0.15650000  0.51950000  1
  C  C55  1  0.09670000  0.34350000  0.01950000  1
  C  C56  1  0.18260000  0.06300000  0.51430000  1
  C  C57  1  0.18260000  0.43700000  0.01430000  1
  C  C58  1  0.29930000  0.54890000  0.96920000  1
  C  C59  1  0.29930000  0.95110000  0.46920000  1
  C  C60  1  0.33010000  0.56450000  0.85980000  1
  C  C61  1  0.33010000  0.93550000  0.35980000  1
  C  C62  1  0.35140000  0.57790000  0.74800000  1
  C  C63  1  0.35140000  0.92210000  0.24800000  1
  C  C64  1  0.35870000  0.60020000  0.91930000  1
  C  C65  1  0.35870000  0.89980000  0.41930000  1
  C  C66  1  0.39100000  0.61350000  0.81210000  1
  C  C67  1  0.39100000  0.88650000  0.31210000  1
  C  C68  1  0.40460000  0.16720000  0.10510000  1
  C  C69  1  0.40460000  0.33280000  0.60510000  1
  C  C70  1  0.44370000  0.69030000  0.93010000  1
  C  C71  1  0.44370000  0.80970000  0.43010000  1
  C  C72  1  0.48200000  0.69870000  0.82490000  1
  C  C73  1  0.48200000  0.80130000  0.32490000  1
  C  C74  1  0.49370000  0.23890000  0.61650000  1
  C  C75  1  0.49370000  0.26110000  0.11650000  1
  C  C76  1  0.50630000  0.73890000  0.88350000  1
  C  C77  1  0.50630000  0.76110000  0.38350000  1
  C  C78  1  0.51800000  0.19870000  0.67510000  1
  C  C79  1  0.51800000  0.30130000  0.17510000  1
  C  C80  1  0.55630000  0.19030000  0.56990000  1
  C  C81  1  0.55630000  0.30970000  0.06990000  1
  C  C82  1  0.59540000  0.66720000  0.39490000  1
  C  C83  1  0.59540000  0.83280000  0.89490000  1
  C  C84  1  0.60900000  0.11350000  0.68790000  1
  C  C85  1  0.60900000  0.38650000  0.18790000  1
  C  C86  1  0.64130000  0.10020000  0.58070000  1
  C  C87  1  0.64130000  0.39980000  0.08070000  1
  C  C88  1  0.64860000  0.07790000  0.75200000  1
  C  C89  1  0.64860000  0.42210000  0.25200000  1
  C  C90  1  0.66990000  0.06450000  0.64020000  1
  C  C91  1  0.66990000  0.43550000  0.14020000  1
  C  C92  1  0.70070000  0.04890000  0.53080000  1
  C  C93  1  0.70070000  0.45110000  0.03080000  1
  C  C94  1  0.81740000  0.56300000  0.98570000  1
  C  C95  1  0.81740000  0.93700000  0.48570000  1
  C  C96  1  0.90330000  0.65650000  0.98050000  1
  C  C97  1  0.90330000  0.84350000  0.48050000  1
  C  C98  1  0.93130000  0.13270000  0.91730000  1
  C  C99  1  0.93130000  0.36730000  0.41730000  1
  C  C100  1  0.93700000  0.68840000  0.92350000  1
  C  C101  1  0.93700000  0.81160000  0.42350000  1
  C  C102  1  0.94610000  0.71430000  0.03150000  1
  C  C103  1  0.94610000  0.78570000  0.53150000  1
  C  C104  1  0.94980000  0.16360000  0.03060000  1
  C  C105  1  0.94980000  0.33640000  0.53060000  1
  C  C106  1  0.96770000  0.18390000  0.14460000  1
  C  C107  1  0.96770000  0.31610000  0.64460000  1
  C  C108  1  0.97810000  0.19550000  0.97380000  1
  C  C109  1  0.97810000  0.30450000  0.47380000  1
  C  C110  1  0.99350000  0.22140000  0.08200000  1
  C  C111  1  0.99350000  0.27860000  0.58200000  1
  N  N112  1  0.21900000  0.03710000  0.45842000  1
  N  N113  1  0.21900000  0.46290000  0.95842000  1
  N  N114  1  0.23340000  0.00010000  0.55590000  1
  N  N115  1  0.23340000  0.49990000  0.05590000  1
  N  N116  1  0.31060000  0.57240000  0.02690000  1
  N  N117  1  0.31060000  0.92760000  0.52690000  1
  N  N118  1  0.68940000  0.07240000  0.47310000  1
  N  N119  1  0.68940000  0.42760000  0.97310000  1
  N  N120  1  0.76660000  0.50010000  0.94410000  1
  N  N121  1  0.76660000  0.99990000  0.44410000  1
  N  N122  1  0.78100000  0.53710000  0.04158000  1
  N  N123  1  0.78100000  0.96290000  0.54158000  1
  O  O124  1  0.00660000  0.65140000  0.62870000  1
  O  O125  1  0.00660000  0.84860000  0.12870000  1
  O  O126  1  0.02900000  0.59230000  0.34759000  1
  O  O127  1  0.02900000  0.90770000  0.84759000  1
  O  O128  1  0.05990000  0.74290000  0.31640000  1
  O  O129  1  0.05990000  0.75710000  0.81640000  1
  O  O130  1  0.16350000  0.56140000  0.57769000  1
  O  O131  1  0.16350000  0.93860000  0.07769000  1
  O  O132  1  0.23240000  0.51610000  0.73710000  1
  O  O133  1  0.23240000  0.98390000  0.23710000  1
  O  O134  1  0.34970000  0.12850000  0.15062000  1
  O  O135  1  0.34970000  0.37150000  0.65062000  1
  O  O136  1  0.38570000  0.13120000  0.05280000  1
  O  O137  1  0.38570000  0.36880000  0.55280000  1
  O  O138  1  0.43090000  0.60890000  0.70860000  1
  O  O139  1  0.43090000  0.89110000  0.20860000  1
  O  O140  1  0.56910000  0.10890000  0.79140000  1
  O  O141  1  0.56910000  0.39110000  0.29140000  1
  O  O142  1  0.61430000  0.63120000  0.44720000  1
  O  O143  1  0.61430000  0.86880000  0.94720000  1
  O  O144  1  0.65030000  0.62850000  0.34938000  1
  O  O145  1  0.65030000  0.87150000  0.84938000  1
  O  O146  1  0.76760000  0.01610000  0.76290000  1
  O  O147  1  0.76760000  0.48390000  0.26290000  1
  O  O148  1  0.83650000  0.06140000  0.92231000  1
  O  O149  1  0.83650000  0.43860000  0.42231000  1
  O  O150  1  0.94010000  0.24290000  0.18360000  1
  O  O151  1  0.94010000  0.25710000  0.68360000  1
  O  O152  1  0.97100000  0.09230000  0.15241000  1
  O  O153  1  0.97100000  0.40770000  0.65241000  1
  O  O154  1  0.99340000  0.15140000  0.87130000  1
  O  O155  1  0.99340000  0.34860000  0.37130000  1
