# generated using pymatgen
data_CuH7(C7O2)2
_symmetry_space_group_name_H-M   'P 1'
_cell_length_a   17.58380000
_cell_length_b   17.58380000
_cell_length_c   17.58380000
_cell_angle_alpha   96.82990000
_cell_angle_beta   96.82990000
_cell_angle_gamma   96.82990000
_symmetry_Int_Tables_number   1
_chemical_formula_structural   CuH7(C7O2)2
_chemical_formula_sum   'Cu6 H42 C84 O24'
_cell_volume   5310.79981095
_cell_formula_units_Z   6
loop_
 _symmetry_equiv_pos_site_id
 _symmetry_equiv_pos_as_xyz
  1  'x, y, z'
loop_
 _atom_site_type_symbol
 _atom_site_label
 _atom_site_symmetry_multiplicity
 _atom_site_fract_x
 _atom_site_fract_y
 _atom_site_fract_z
 _atom_site_occupancy
  Cu  Cu0  1  0.14822000  0.83683000  0.14822000  1
  Cu  Cu1  1  0.09534000  0.69283000  0.09534000  1
  Cu  Cu2  1  0.83683000  0.14822000  0.14822000  1
  Cu  Cu3  1  0.14822000  0.14822000  0.83683000  1
  Cu  Cu4  1  0.69283000  0.09534000  0.09534000  1
  Cu  Cu5  1  0.09534000  0.09534000  0.69283000  1
  H  H6  1  0.92985000  0.92985000  0.12630000  1
  H  H7  1  0.12630000  0.92985000  0.92985000  1
  H  H8  1  0.70200000  0.85290000  0.11190000  1
  H  H9  1  0.11190000  0.85290000  0.70200000  1
  H  H10  1  0.39140000  0.81640000  0.16980000  1
  H  H11  1  0.16980000  0.81640000  0.39140000  1
  H  H12  1  0.51190000  0.78690000  0.16160000  1
  H  H13  1  0.16160000  0.78690000  0.51190000  1
  H  H14  1  0.61350000  0.76470000  0.10350000  1
  H  H15  1  0.10350000  0.76470000  0.61350000  1
  H  H16  1  0.85290000  0.70200000  0.11190000  1
  H  H17  1  0.11190000  0.70200000  0.85290000  1
  H  H18  1  0.76470000  0.61350000  0.10350000  1
  H  H19  1  0.10350000  0.61350000  0.76470000  1
  H  H20  1  0.30800000  0.60470000  0.07280000  1
  H  H21  1  0.07280000  0.60470000  0.30800000  1
  H  H22  1  0.43250000  0.57460000  0.07290000  1
  H  H23  1  0.07290000  0.57460000  0.43250000  1
  H  H24  1  0.54615000  0.54615000  0.11640000  1
  H  H25  1  0.11640000  0.54615000  0.54615000  1
  H  H26  1  0.78690000  0.51190000  0.16160000  1
  H  H27  1  0.16160000  0.51190000  0.78690000  1
  H  H28  1  0.57460000  0.43250000  0.07290000  1
  H  H29  1  0.07290000  0.43250000  0.57460000  1
  H  H30  1  0.81640000  0.39140000  0.16980000  1
  H  H31  1  0.16980000  0.39140000  0.81640000  1
  H  H32  1  0.60470000  0.30800000  0.07280000  1
  H  H33  1  0.07280000  0.30800000  0.60470000  1
  H  H34  1  0.81640000  0.16980000  0.39140000  1
  H  H35  1  0.39140000  0.16980000  0.81640000  1
  H  H36  1  0.78690000  0.16160000  0.51190000  1
  H  H37  1  0.51190000  0.16160000  0.78690000  1
  H  H38  1  0.92985000  0.12630000  0.92985000  1
  H  H39  1  0.54615000  0.11640000  0.54615000  1
  H  H40  1  0.85290000  0.11190000  0.70200000  1
  H  H41  1  0.70200000  0.11190000  0.85290000  1
  H  H42  1  0.76470000  0.10350000  0.61350000  1
  H  H43  1  0.61350000  0.10350000  0.76470000  1
  H  H44  1  0.57460000  0.07290000  0.43250000  1
  H  H45  1  0.43250000  0.07290000  0.57460000  1
  H  H46  1  0.60470000  0.07280000  0.30800000  1
  H  H47  1  0.30800000  0.07280000  0.60470000  1
  C  C48  1  0.79650000  0.98580000  0.11970000  1
  C  C49  1  0.11970000  0.98580000  0.79650000  1
  C  C50  1  0.80900000  0.90220000  0.11580000  1
  C  C51  1  0.11580000  0.90220000  0.80900000  1
  C  C52  1  0.88950000  0.88951000  0.12059000  1
  C  C53  1  0.12059000  0.88951000  0.88951000  1
  C  C54  1  0.75280000  0.84290000  0.11190000  1
  C  C55  1  0.11190000  0.84290000  0.75280000  1
  C  C56  1  0.90220000  0.80900000  0.11580000  1
  C  C57  1  0.11580000  0.80900000  0.90220000  1
  C  C58  1  0.98580000  0.79650000  0.11970000  1
  C  C59  1  0.11970000  0.79650000  0.98580000  1
  C  C60  1  0.39850000  0.76770000  0.14720000  1
  C  C61  1  0.14720000  0.76770000  0.39850000  1
  C  C62  1  0.76765000  0.76765000  0.10780000  1
  C  C63  1  0.10780000  0.76765000  0.76765000  1
  C  C64  1  0.84290000  0.75280000  0.11190000  1
  C  C65  1  0.11190000  0.75280000  0.84290000  1
  C  C66  1  0.47050000  0.74860000  0.14290000  1
  C  C67  1  0.14290000  0.74860000  0.47050000  1
  C  C68  1  0.25390000  0.72900000  0.11930000  1
  C  C69  1  0.11930000  0.72900000  0.25390000  1
  C  C70  1  0.62610000  0.71520000  0.10710000  1
  C  C71  1  0.10710000  0.71520000  0.62610000  1
  C  C72  1  0.33600000  0.71270000  0.11710000  1
  C  C73  1  0.11710000  0.71270000  0.33600000  1
  C  C74  1  0.70345000  0.70345000  0.10600000  1
  C  C75  1  0.10600000  0.70345000  0.70345000  1
  C  C76  1  0.48830000  0.67620000  0.11260000  1
  C  C77  1  0.11260000  0.67620000  0.48830000  1
  C  C78  1  0.56740000  0.65700000  0.11330000  1
  C  C79  1  0.11330000  0.65700000  0.56740000  1
  C  C80  1  0.34940000  0.64310000  0.09110000  1
  C  C81  1  0.09110000  0.64310000  0.34940000  1
  C  C82  1  0.71520000  0.62610000  0.10710000  1
  C  C83  1  0.10710000  0.62610000  0.71520000  1
  C  C84  1  0.42600000  0.62520000  0.09030000  1
  C  C85  1  0.09030000  0.62520000  0.42600000  1
  C  C86  1  0.58575000  0.58575000  0.11460000  1
  C  C87  1  0.11460000  0.58575000  0.58575000  1
  C  C88  1  0.65700000  0.56740000  0.11330000  1
  C  C89  1  0.11330000  0.56740000  0.65700000  1
  C  C90  1  0.67620000  0.48830000  0.11260000  1
  C  C91  1  0.11260000  0.48830000  0.67620000  1
  C  C92  1  0.74860000  0.47050000  0.14290000  1
  C  C93  1  0.14290000  0.47050000  0.74860000  1
  C  C94  1  0.62520000  0.42600000  0.09030000  1
  C  C95  1  0.09030000  0.42600000  0.62520000  1
  C  C96  1  0.76770000  0.39850000  0.14720000  1
  C  C97  1  0.14720000  0.39850000  0.76770000  1
  C  C98  1  0.64310000  0.34940000  0.09110000  1
  C  C99  1  0.09110000  0.34940000  0.64310000  1
  C  C100  1  0.71270000  0.33600000  0.11710000  1
  C  C101  1  0.11710000  0.33600000  0.71270000  1
  C  C102  1  0.72900000  0.25390000  0.11930000  1
  C  C103  1  0.11930000  0.25390000  0.72900000  1
  C  C104  1  0.76770000  0.14720000  0.39850000  1
  C  C105  1  0.39850000  0.14720000  0.76770000  1
  C  C106  1  0.74860000  0.14290000  0.47050000  1
  C  C107  1  0.47050000  0.14290000  0.74860000  1
  C  C108  1  0.88951000  0.12059000  0.88951000  1
  C  C109  1  0.98580000  0.11970000  0.79650000  1
  C  C110  1  0.79650000  0.11970000  0.98580000  1
  C  C111  1  0.72900000  0.11930000  0.25390000  1
  C  C112  1  0.25390000  0.11930000  0.72900000  1
  C  C113  1  0.71270000  0.11710000  0.33600000  1
  C  C114  1  0.33600000  0.11710000  0.71270000  1
  C  C115  1  0.90220000  0.11580000  0.80900000  1
  C  C116  1  0.80900000  0.11580000  0.90220000  1
  C  C117  1  0.58575000  0.11460000  0.58575000  1
  C  C118  1  0.65700000  0.11330000  0.56740000  1
  C  C119  1  0.56740000  0.11330000  0.65700000  1
  C  C120  1  0.67620000  0.11260000  0.48830000  1
  C  C121  1  0.48830000  0.11260000  0.67620000  1
  C  C122  1  0.84290000  0.11190000  0.75280000  1
  C  C123  1  0.75280000  0.11190000  0.84290000  1
  C  C124  1  0.76765000  0.10780000  0.76765000  1
  C  C125  1  0.71520000  0.10710000  0.62610000  1
  C  C126  1  0.62610000  0.10710000  0.71520000  1
  C  C127  1  0.70345000  0.10600000  0.70345000  1
  C  C128  1  0.64310000  0.09110000  0.34940000  1
  C  C129  1  0.34940000  0.09110000  0.64310000  1
  C  C130  1  0.62520000  0.09030000  0.42600000  1
  C  C131  1  0.42600000  0.09030000  0.62520000  1
  O  O132  1  0.72605000  0.99372000  0.09928000  1
  O  O133  1  0.09928000  0.99372000  0.72605000  1
  O  O134  1  0.14290000  0.85090000  0.04020000  1
  O  O135  1  0.04020000  0.85090000  0.14290000  1
  O  O136  1  0.24755000  0.80131000  0.14358000  1
  O  O137  1  0.14358000  0.80131000  0.24755000  1
  O  O138  1  0.99372000  0.72605000  0.09928000  1
  O  O139  1  0.09928000  0.72605000  0.99372000  1
  O  O140  1  0.20040000  0.67670000  0.09880000  1
  O  O141  1  0.09880000  0.67670000  0.20040000  1
  O  O142  1  0.80131000  0.24755000  0.14358000  1
  O  O143  1  0.14358000  0.24755000  0.80131000  1
  O  O144  1  0.67670000  0.20040000  0.09880000  1
  O  O145  1  0.09880000  0.20040000  0.67670000  1
  O  O146  1  0.80131000  0.14358000  0.24755000  1
  O  O147  1  0.24755000  0.14358000  0.80131000  1
  O  O148  1  0.85090000  0.14290000  0.04020000  1
  O  O149  1  0.04020000  0.14290000  0.85090000  1
  O  O150  1  0.99372000  0.09928000  0.72605000  1
  O  O151  1  0.72605000  0.09928000  0.99372000  1
  O  O152  1  0.67670000  0.09880000  0.20040000  1
  O  O153  1  0.20040000  0.09880000  0.67670000  1
  O  O154  1  0.85090000  0.04020000  0.14290000  1
  O  O155  1  0.14290000  0.04020000  0.85090000  1
