# generated using pymatgen
data_CuH3C8NO4
_symmetry_space_group_name_H-M   'P 1'
_cell_length_a   14.89660000
_cell_length_b   14.89660000
_cell_length_c   14.89660000
_cell_angle_alpha   78.24530000
_cell_angle_beta   78.24530000
_cell_angle_gamma   78.24530000
_symmetry_Int_Tables_number   1
_chemical_formula_structural   CuH3C8NO4
_chemical_formula_sum   'Cu6 H18 C48 N6 O24'
_cell_volume   3122.78247404
_cell_formula_units_Z   6
loop_
 _symmetry_equiv_pos_site_id
 _symmetry_equiv_pos_as_xyz
  1  'x, y, z'
loop_
 _atom_site_type_symbol
 _atom_site_label
 _atom_site_symmetry_multiplicity
 _atom_site_fract_x
 _atom_site_fract_y
 _atom_site_fract_z
 _atom_site_occupancy
  Cu  Cu0  1  0.48608000  0.91873000  0.48611000  1
  Cu  Cu1  1  0.51389000  0.51392000  0.08127000  1
  Cu  Cu2  1  0.08127000  0.51389000  0.51392000  1
  Cu  Cu3  1  0.91873000  0.48611000  0.48608000  1
  Cu  Cu4  1  0.48611000  0.48608000  0.91873000  1
  Cu  Cu5  1  0.51392000  0.08127000  0.51389000  1
  H  H6  1  0.50330000  0.97970000  0.19150000  1
  H  H7  1  0.18800000  0.97080000  0.51510000  1
  H  H8  1  0.48490000  0.81200000  0.02920000  1
  H  H9  1  0.02030000  0.80850000  0.49670000  1
  H  H10  1  0.76510000  0.77130000  0.47810000  1
  H  H11  1  0.47810000  0.76510000  0.77130000  1
  H  H12  1  0.22870000  0.52190000  0.23490000  1
  H  H13  1  0.97080000  0.51510000  0.18800000  1
  H  H14  1  0.19150000  0.50330000  0.97970000  1
  H  H15  1  0.80850000  0.49670000  0.02030000  1
  H  H16  1  0.02920000  0.48490000  0.81200000  1
  H  H17  1  0.77130000  0.47810000  0.76510000  1
  H  H18  1  0.52190000  0.23490000  0.22870000  1
  H  H19  1  0.23490000  0.22870000  0.52190000  1
  H  H20  1  0.97970000  0.19150000  0.50330000  1
  H  H21  1  0.51510000  0.18800000  0.97080000  1
  H  H22  1  0.81200000  0.02920000  0.48490000  1
  H  H23  1  0.49670000  0.02030000  0.80850000  1
  C  C24  1  0.83120000  0.96450000  0.48870000  1
  C  C25  1  0.49190000  0.95740000  0.83060000  1
  C  C26  1  0.66560000  0.93900000  0.48430000  1
  C  C27  1  0.48100000  0.93220000  0.67290000  1
  C  C28  1  0.49690000  0.92340000  0.92170000  1
  C  C29  1  0.92340000  0.92170000  0.49690000  1
  C  C30  1  0.48070000  0.90590000  0.77060000  1
  C  C31  1  0.77000000  0.90580000  0.48680000  1
  C  C32  1  0.48870000  0.83120000  0.96450000  1
  C  C33  1  0.95740000  0.83060000  0.49190000  1
  C  C34  1  0.80600000  0.81040000  0.48140000  1
  C  C35  1  0.48140000  0.80600000  0.81040000  1
  C  C36  1  0.90590000  0.77060000  0.48070000  1
  C  C37  1  0.48680000  0.77000000  0.90580000  1
  C  C38  1  0.93220000  0.67290000  0.48100000  1
  C  C39  1  0.48430000  0.66560000  0.93900000  1
  C  C40  1  0.22940000  0.51930000  0.09410000  1
  C  C41  1  0.32710000  0.51900000  0.06780000  1
  C  C42  1  0.18960000  0.51860000  0.19400000  1
  C  C43  1  0.06100000  0.51570000  0.33440000  1
  C  C44  1  0.09420000  0.51320000  0.23000000  1
  C  C45  1  0.03550000  0.51130000  0.16880000  1
  C  C46  1  0.16940000  0.50810000  0.04260000  1
  C  C47  1  0.07830000  0.50310000  0.07660000  1
  C  C48  1  0.92170000  0.49690000  0.92340000  1
  C  C49  1  0.83060000  0.49190000  0.95740000  1
  C  C50  1  0.96450000  0.48870000  0.83120000  1
  C  C51  1  0.90580000  0.48680000  0.77000000  1
  C  C52  1  0.93900000  0.48430000  0.66560000  1
  C  C53  1  0.81040000  0.48140000  0.80600000  1
  C  C54  1  0.67290000  0.48100000  0.93220000  1
  C  C55  1  0.77060000  0.48070000  0.90590000  1
  C  C56  1  0.51570000  0.33440000  0.06100000  1
  C  C57  1  0.06780000  0.32710000  0.51900000  1
  C  C58  1  0.51320000  0.23000000  0.09420000  1
  C  C59  1  0.09410000  0.22940000  0.51930000  1
  C  C60  1  0.51860000  0.19400000  0.18960000  1
  C  C61  1  0.19400000  0.18960000  0.51860000  1
  C  C62  1  0.04260000  0.16940000  0.50810000  1
  C  C63  1  0.51130000  0.16880000  0.03550000  1
  C  C64  1  0.23000000  0.09420000  0.51320000  1
  C  C65  1  0.51930000  0.09410000  0.22940000  1
  C  C66  1  0.07660000  0.07830000  0.50310000  1
  C  C67  1  0.50310000  0.07660000  0.07830000  1
  C  C68  1  0.51900000  0.06780000  0.32710000  1
  C  C69  1  0.33440000  0.06100000  0.51570000  1
  C  C70  1  0.50810000  0.04260000  0.16940000  1
  C  C71  1  0.16880000  0.03550000  0.51130000  1
  N  N72  1  0.49600000  0.98300000  0.98000000  1
  N  N73  1  0.98300000  0.98000000  0.49600000  1
  N  N74  1  0.02000000  0.50400000  0.01700000  1
  N  N75  1  0.98000000  0.49600000  0.98300000  1
  N  N76  1  0.01700000  0.02000000  0.50400000  1
  N  N77  1  0.50400000  0.01700000  0.02000000  1
  O  O78  1  0.50550000  0.97810000  0.35530000  1
  O  O79  1  0.35700000  0.97800000  0.49960000  1
  O  O80  1  0.47850000  0.87970000  0.61690000  1
  O  O81  1  0.61980000  0.87770000  0.47680000  1
  O  O82  1  0.02190000  0.64470000  0.49450000  1
  O  O83  1  0.50040000  0.64300000  0.02200000  1
  O  O84  1  0.47680000  0.61980000  0.87770000  1
  O  O85  1  0.87970000  0.61690000  0.47850000  1
  O  O86  1  0.12230000  0.52320000  0.38020000  1
  O  O87  1  0.38310000  0.52150000  0.12030000  1
  O  O88  1  0.35530000  0.50550000  0.97810000  1
  O  O89  1  0.02200000  0.50040000  0.64300000  1
  O  O90  1  0.97800000  0.49960000  0.35700000  1
  O  O91  1  0.64470000  0.49450000  0.02190000  1
  O  O92  1  0.61690000  0.47850000  0.87970000  1
  O  O93  1  0.87770000  0.47680000  0.61980000  1
  O  O94  1  0.12030000  0.38310000  0.52150000  1
  O  O95  1  0.52320000  0.38020000  0.12230000  1
  O  O96  1  0.49960000  0.35700000  0.97800000  1
  O  O97  1  0.97810000  0.35530000  0.50550000  1
  O  O98  1  0.38020000  0.12230000  0.52320000  1
  O  O99  1  0.52150000  0.12030000  0.38310000  1
  O  O100  1  0.64300000  0.02200000  0.50040000  1
  O  O101  1  0.49450000  0.02190000  0.64470000  1
