# generated using pymatgen
data_Cu4H72C69(NO5)4
_symmetry_space_group_name_H-M   'P 1'
_cell_length_a   7.42300000
_cell_length_b   30.33700000
_cell_length_c   30.33700000
_cell_angle_alpha   90.00000000
_cell_angle_beta   90.00000000
_cell_angle_gamma   90.00000000
_symmetry_Int_Tables_number   1
_chemical_formula_structural   Cu4H72C69(NO5)4
_chemical_formula_sum   'Cu8 H144 C138 N8 O40'
_cell_volume   6831.63608269
_cell_formula_units_Z   2
loop_
 _symmetry_equiv_pos_site_id
 _symmetry_equiv_pos_as_xyz
  1  'x, y, z'
loop_
 _atom_site_type_symbol
 _atom_site_label
 _atom_site_symmetry_multiplicity
 _atom_site_fract_x
 _atom_site_fract_y
 _atom_site_fract_z
 _atom_site_occupancy
  Cu  Cu0  1  0.09665000  0.02590000  0.02581000  1
  Cu  Cu1  1  0.09665000  0.47409000  0.47419000  1
  Cu  Cu2  1  0.40335000  0.02581000  0.47410000  1
  Cu  Cu3  1  0.40335000  0.47419000  0.02591000  1
  Cu  Cu4  1  0.59665000  0.52581000  0.97410000  1
  Cu  Cu5  1  0.59665000  0.97419000  0.52591000  1
  Cu  Cu6  1  0.90335000  0.52590000  0.52581000  1
  Cu  Cu7  1  0.90335000  0.97410000  0.97419000  1
  H  H8  1  0.01150000  0.03980000  0.45990000  1
  H  H9  1  0.01150000  0.46020000  0.04010000  1
  H  H10  1  0.03080000  0.12660000  0.20290000  1
  H  H11  1  0.03080000  0.37340000  0.29710000  1
  H  H12  1  0.03440000  0.20940000  0.25960000  1
  H  H13  1  0.03440000  0.29060000  0.24040000  1
  H  H14  1  0.06350000  0.02840000  0.59650000  1
  H  H15  1  0.06350000  0.47160000  0.90350000  1
  H  H16  1  0.06450000  0.56120000  0.66500000  1
  H  H17  1  0.06450000  0.59660000  0.02690000  1
  H  H18  1  0.06450000  0.90340000  0.47310000  1
  H  H19  1  0.06450000  0.93880000  0.83500000  1
  H  H20  1  0.07410000  0.62400000  0.80530000  1
  H  H21  1  0.07410000  0.87600000  0.69470000  1
  H  H22  1  0.10540000  0.10080000  0.10060000  1
  H  H23  1  0.10540000  0.39920000  0.39940000  1
  H  H24  1  0.18980000  0.18700000  0.23180000  1
  H  H25  1  0.18980000  0.31300000  0.26820000  1
  H  H26  1  0.19550000  0.56850000  0.70560000  1
  H  H27  1  0.19550000  0.93150000  0.79440000  1
  H  H28  1  0.19700000  0.13950000  0.36040000  1
  H  H29  1  0.19700000  0.36050000  0.13960000  1
  H  H30  1  0.20330000  0.60770000  0.06500000  1
  H  H31  1  0.20330000  0.89230000  0.43500000  1
  H  H32  1  0.20380000  0.57850000  0.92200000  1
  H  H33  1  0.20380000  0.92150000  0.57800000  1
  H  H34  1  0.20750000  0.06510000  0.60820000  1
  H  H35  1  0.20750000  0.43490000  0.89180000  1
  H  H36  1  0.21860000  0.73830000  0.66080000  1
  H  H37  1  0.21860000  0.76170000  0.83920000  1
  H  H38  1  0.22300000  0.01760000  0.62950000  1
  H  H39  1  0.22300000  0.48240000  0.87050000  1
  H  H40  1  0.22450000  0.65870000  0.94330000  1
  H  H41  1  0.22450000  0.84130000  0.55670000  1
  H  H42  1  0.22620000  0.62940000  0.01780000  1
  H  H43  1  0.22620000  0.87060000  0.48220000  1
  H  H44  1  0.27380000  0.01780000  0.87060000  1
  H  H45  1  0.27380000  0.48220000  0.62940000  1
  H  H46  1  0.27550000  0.55670000  0.65870000  1
  H  H47  1  0.27550000  0.94330000  0.84130000  1
  H  H48  1  0.27700000  0.62950000  0.48240000  1
  H  H49  1  0.27700000  0.87050000  0.01760000  1
  H  H50  1  0.28140000  0.66080000  0.76170000  1
  H  H51  1  0.28140000  0.83920000  0.73830000  1
  H  H52  1  0.29250000  0.60820000  0.43490000  1
  H  H53  1  0.29250000  0.89180000  0.06510000  1
  H  H54  1  0.29620000  0.57800000  0.57850000  1
  H  H55  1  0.29620000  0.92200000  0.92150000  1
  H  H56  1  0.29670000  0.06500000  0.89230000  1
  H  H57  1  0.29670000  0.43500000  0.60770000  1
  H  H58  1  0.30300000  0.13960000  0.13950000  1
  H  H59  1  0.30300000  0.36040000  0.36050000  1
  H  H60  1  0.30450000  0.70560000  0.93150000  1
  H  H61  1  0.30450000  0.79440000  0.56850000  1
  H  H62  1  0.31020000  0.23180000  0.31300000  1
  H  H63  1  0.31020000  0.26820000  0.18700000  1
  H  H64  1  0.39460000  0.10060000  0.39920000  1
  H  H65  1  0.39460000  0.39940000  0.10080000  1
  H  H66  1  0.42590000  0.69470000  0.62400000  1
  H  H67  1  0.42590000  0.80530000  0.87600000  1
  H  H68  1  0.43550000  0.02690000  0.90340000  1
  H  H69  1  0.43550000  0.47310000  0.59660000  1
  H  H70  1  0.43550000  0.66500000  0.93880000  1
  H  H71  1  0.43550000  0.83500000  0.56120000  1
  H  H72  1  0.43650000  0.59650000  0.47160000  1
  H  H73  1  0.43650000  0.90350000  0.02840000  1
  H  H74  1  0.46560000  0.24040000  0.20940000  1
  H  H75  1  0.46560000  0.25960000  0.29060000  1
  H  H76  1  0.46920000  0.20290000  0.37340000  1
  H  H77  1  0.46920000  0.29710000  0.12660000  1
  H  H78  1  0.48850000  0.04010000  0.03980000  1
  H  H79  1  0.48850000  0.45990000  0.46020000  1
  H  H80  1  0.51150000  0.54010000  0.53980000  1
  H  H81  1  0.51150000  0.95990000  0.96020000  1
  H  H82  1  0.53080000  0.70290000  0.87340000  1
  H  H83  1  0.53080000  0.79710000  0.62660000  1
  H  H84  1  0.53440000  0.74040000  0.70940000  1
  H  H85  1  0.53440000  0.75960000  0.79060000  1
  H  H86  1  0.56350000  0.09650000  0.97160000  1
  H  H87  1  0.56350000  0.40350000  0.52840000  1
  H  H88  1  0.56450000  0.16500000  0.43880000  1
  H  H89  1  0.56450000  0.33500000  0.06120000  1
  H  H90  1  0.56450000  0.52690000  0.40340000  1
  H  H91  1  0.56450000  0.97310000  0.09660000  1
  H  H92  1  0.57410000  0.19470000  0.12400000  1
  H  H93  1  0.57410000  0.30530000  0.37600000  1
  H  H94  1  0.60540000  0.60060000  0.89920000  1
  H  H95  1  0.60540000  0.89940000  0.60080000  1
  H  H96  1  0.68980000  0.73180000  0.81300000  1
  H  H97  1  0.68980000  0.76820000  0.68700000  1
  H  H98  1  0.69550000  0.20560000  0.43150000  1
  H  H99  1  0.69550000  0.29440000  0.06850000  1
  H  H100  1  0.69700000  0.63960000  0.63950000  1
  H  H101  1  0.69700000  0.86040000  0.86050000  1
  H  H102  1  0.70330000  0.56500000  0.39230000  1
  H  H103  1  0.70330000  0.93500000  0.10770000  1
  H  H104  1  0.70380000  0.07800000  0.07850000  1
  H  H105  1  0.70380000  0.42200000  0.42150000  1
  H  H106  1  0.70750000  0.10820000  0.93490000  1
  H  H107  1  0.70750000  0.39180000  0.56510000  1
  H  H108  1  0.71860000  0.16080000  0.26170000  1
  H  H109  1  0.71860000  0.33920000  0.23830000  1
  H  H110  1  0.72300000  0.12950000  0.98240000  1
  H  H111  1  0.72300000  0.37050000  0.51760000  1
  H  H112  1  0.72450000  0.05670000  0.15870000  1
  H  H113  1  0.72450000  0.44330000  0.34130000  1
  H  H114  1  0.72620000  0.51780000  0.37060000  1
  H  H115  1  0.72620000  0.98220000  0.12940000  1
  H  H116  1  0.77380000  0.12940000  0.51780000  1
  H  H117  1  0.77380000  0.37060000  0.98220000  1
  H  H118  1  0.77550000  0.15870000  0.44330000  1
  H  H119  1  0.77550000  0.34130000  0.05670000  1
  H  H120  1  0.77700000  0.51760000  0.12950000  1
  H  H121  1  0.77700000  0.98240000  0.37050000  1
  H  H122  1  0.78140000  0.23830000  0.16080000  1
  H  H123  1  0.78140000  0.26170000  0.33920000  1
  H  H124  1  0.79250000  0.56510000  0.10820000  1
  H  H125  1  0.79250000  0.93490000  0.39180000  1
  H  H126  1  0.79620000  0.07850000  0.42200000  1
  H  H127  1  0.79620000  0.42150000  0.07800000  1
  H  H128  1  0.79670000  0.10770000  0.56500000  1
  H  H129  1  0.79670000  0.39230000  0.93500000  1
  H  H130  1  0.80300000  0.63950000  0.86040000  1
  H  H131  1  0.80300000  0.86050000  0.63960000  1
  H  H132  1  0.80450000  0.06850000  0.20560000  1
  H  H133  1  0.80450000  0.43150000  0.29440000  1
  H  H134  1  0.81020000  0.68700000  0.73180000  1
  H  H135  1  0.81020000  0.81300000  0.76820000  1
  H  H136  1  0.89460000  0.60080000  0.60060000  1
  H  H137  1  0.89460000  0.89920000  0.89940000  1
  H  H138  1  0.92590000  0.12400000  0.30530000  1
  H  H139  1  0.92590000  0.37600000  0.19470000  1
  H  H140  1  0.93550000  0.06120000  0.16500000  1
  H  H141  1  0.93550000  0.09660000  0.52690000  1
  H  H142  1  0.93550000  0.40340000  0.97310000  1
  H  H143  1  0.93550000  0.43880000  0.33500000  1
  H  H144  1  0.93650000  0.52840000  0.09650000  1
  H  H145  1  0.93650000  0.97160000  0.40350000  1
  H  H146  1  0.96560000  0.70940000  0.75960000  1
  H  H147  1  0.96560000  0.79060000  0.74040000  1
  H  H148  1  0.96920000  0.62660000  0.70290000  1
  H  H149  1  0.96920000  0.87340000  0.79710000  1
  H  H150  1  0.98850000  0.53980000  0.95990000  1
  H  H151  1  0.98850000  0.96020000  0.54010000  1
  C  C152  1  0.03320000  0.61374000  0.88679000  1
  C  C153  1  0.03320000  0.88626000  0.61321000  1
  C  C154  1  0.04940000  0.06089000  0.43916000  1
  C  C155  1  0.04940000  0.43911000  0.06084000  1
  C  C156  1  0.06040000  0.64130000  0.68720000  1
  C  C157  1  0.06040000  0.85870000  0.81280000  1
  C  C158  1  0.07480000  0.68583000  0.68580000  1
  C  C159  1  0.07480000  0.81417000  0.81420000  1
  C  C160  1  0.08120000  0.58393000  0.91646000  1
  C  C161  1  0.08120000  0.91607000  0.58354000  1
  C  C162  1  0.12220000  0.21440000  0.23600000  1
  C  C163  1  0.12220000  0.28560000  0.26400000  1
  C  C164  1  0.15440000  0.11900000  0.38111000  1
  C  C165  1  0.15440000  0.38100000  0.11889000  1
  C  C166  1  0.16660000  0.63980000  0.81930000  1
  C  C167  1  0.16660000  0.86020000  0.68070000  1
  C  C168  1  0.16970000  0.63942000  0.86040000  1
  C  C169  1  0.16970000  0.86058000  0.63960000  1
  C  C170  1  0.18100000  0.57250000  0.67410000  1
  C  C171  1  0.18100000  0.92750000  0.82590000  1
  C  C172  1  0.18930000  0.03390000  0.60320000  1
  C  C173  1  0.18930000  0.46610000  0.89680000  1
  C  C174  1  0.18960000  0.60306000  0.03350000  1
  C  C175  1  0.18960000  0.89694000  0.46650000  1
  C  C176  1  0.19210000  0.61940000  0.66343000  1
  C  C177  1  0.19210000  0.88060000  0.83657000  1
  C  C178  1  0.19780000  0.01975000  0.93395000  1
  C  C179  1  0.19780000  0.48025000  0.56605000  1
  C  C180  1  0.19890000  0.56614000  0.48059000  1
  C  C181  1  0.19890000  0.93386000  0.01941000  1
  C  C182  1  0.21090000  0.70740000  0.66190000  1
  C  C183  1  0.21090000  0.79260000  0.83810000  1
  C  C184  1  0.22880000  0.09583000  0.09583000  1
  C  C185  1  0.22880000  0.40417000  0.40417000  1
  C  C186  1  0.25000000  0.25000000  0.25000000  1
  C  C187  1  0.27120000  0.09583000  0.40417000  1
  C  C188  1  0.27120000  0.40417000  0.09583000  1
  C  C189  1  0.28910000  0.66190000  0.79260000  1
  C  C190  1  0.28910000  0.83810000  0.70740000  1
  C  C191  1  0.30110000  0.01941000  0.56614000  1
  C  C192  1  0.30110000  0.48059000  0.93386000  1
  C  C193  1  0.30220000  0.56605000  0.01975000  1
  C  C194  1  0.30220000  0.93395000  0.48025000  1
  C  C195  1  0.30790000  0.66343000  0.88060000  1
  C  C196  1  0.30790000  0.83657000  0.61940000  1
  C  C197  1  0.31040000  0.03350000  0.89694000  1
  C  C198  1  0.31040000  0.46650000  0.60306000  1
  C  C199  1  0.31070000  0.60320000  0.46610000  1
  C  C200  1  0.31070000  0.89680000  0.03390000  1
  C  C201  1  0.31900000  0.67410000  0.92750000  1
  C  C202  1  0.31900000  0.82590000  0.57250000  1
  C  C203  1  0.33030000  0.63960000  0.63942000  1
  C  C204  1  0.33030000  0.86040000  0.86058000  1
  C  C205  1  0.33340000  0.68070000  0.63980000  1
  C  C206  1  0.33340000  0.81930000  0.86020000  1
  C  C207  1  0.34560000  0.11889000  0.11900000  1
  C  C208  1  0.34560000  0.38111000  0.38100000  1
  C  C209  1  0.37780000  0.23600000  0.28560000  1
  C  C210  1  0.37780000  0.26400000  0.21440000  1
  C  C211  1  0.41880000  0.58354000  0.58393000  1
  C  C212  1  0.41880000  0.91646000  0.91607000  1
  C  C213  1  0.42520000  0.68580000  0.81417000  1
  C  C214  1  0.42520000  0.81420000  0.68583000  1
  C  C215  1  0.43960000  0.68720000  0.85870000  1
  C  C216  1  0.43960000  0.81280000  0.64130000  1
  C  C217  1  0.45060000  0.06084000  0.06089000  1
  C  C218  1  0.45060000  0.43916000  0.43911000  1
  C  C219  1  0.46680000  0.61321000  0.61374000  1
  C  C220  1  0.46680000  0.88679000  0.88626000  1
  C  C221  1  0.53320000  0.11321000  0.11374000  1
  C  C222  1  0.53320000  0.38679000  0.38626000  1
  C  C223  1  0.54940000  0.56084000  0.56089000  1
  C  C224  1  0.54940000  0.93916000  0.93911000  1
  C  C225  1  0.56040000  0.18720000  0.35870000  1
  C  C226  1  0.56040000  0.31280000  0.14130000  1
  C  C227  1  0.57480000  0.18580000  0.31417000  1
  C  C228  1  0.57480000  0.31420000  0.18583000  1
  C  C229  1  0.58120000  0.08354000  0.08393000  1
  C  C230  1  0.58120000  0.41646000  0.41607000  1
  C  C231  1  0.62220000  0.73600000  0.78560000  1
  C  C232  1  0.62220000  0.76400000  0.71440000  1
  C  C233  1  0.65440000  0.61889000  0.61900000  1
  C  C234  1  0.65440000  0.88111000  0.88100000  1
  C  C235  1  0.66666667  0.18070000  0.13980000  1
  C  C236  1  0.66666667  0.31930000  0.36020000  1
  C  C237  1  0.66970000  0.13960000  0.13942000  1
  C  C238  1  0.66970000  0.36040000  0.36058000  1
  C  C239  1  0.68100000  0.17410000  0.42750000  1
  C  C240  1  0.68100000  0.32590000  0.07250000  1
  C  C241  1  0.68930000  0.10320000  0.96610000  1
  C  C242  1  0.68930000  0.39680000  0.53390000  1
  C  C243  1  0.68960000  0.53350000  0.39694000  1
  C  C244  1  0.68960000  0.96650000  0.10306000  1
  C  C245  1  0.69210000  0.16343000  0.38060000  1
  C  C246  1  0.69210000  0.33657000  0.11940000  1
  C  C247  1  0.69780000  0.06605000  0.51975000  1
  C  C248  1  0.69780000  0.43395000  0.98025000  1
  C  C249  1  0.69890000  0.51941000  0.06614000  1
  C  C250  1  0.69890000  0.98059000  0.43386000  1
  C  C251  1  0.71090000  0.16190000  0.29260000  1
  C  C252  1  0.71090000  0.33810000  0.20740000  1
  C  C253  1  0.72880000  0.59583000  0.90417000  1
  C  C254  1  0.72880000  0.90417000  0.59583000  1
  C  C255  1  0.75000000  0.75000000  0.75000000  1
  C  C256  1  0.77120000  0.59583000  0.59583000  1
  C  C257  1  0.77120000  0.90417000  0.90417000  1
  C  C258  1  0.78910000  0.20740000  0.16190000  1
  C  C259  1  0.78910000  0.29260000  0.33810000  1
  C  C260  1  0.80110000  0.06614000  0.98059000  1
  C  C261  1  0.80110000  0.43386000  0.51941000  1
  C  C262  1  0.80220000  0.51975000  0.43395000  1
  C  C263  1  0.80220000  0.98025000  0.06605000  1
  C  C264  1  0.80790000  0.11940000  0.16343000  1
  C  C265  1  0.80790000  0.38060000  0.33657000  1
  C  C266  1  0.81040000  0.10306000  0.53350000  1
  C  C267  1  0.81040000  0.39694000  0.96650000  1
  C  C268  1  0.81070000  0.53390000  0.10320000  1
  C  C269  1  0.81070000  0.96610000  0.39680000  1
  C  C270  1  0.81900000  0.07250000  0.17410000  1
  C  C271  1  0.81900000  0.42750000  0.32590000  1
  C  C272  1  0.83030000  0.13942000  0.36040000  1
  C  C273  1  0.83030000  0.36058000  0.13960000  1
  C  C274  1  0.83340000  0.13980000  0.31930000  1
  C  C275  1  0.83340000  0.36020000  0.18070000  1
  C  C276  1  0.84560000  0.61900000  0.88111000  1
  C  C277  1  0.84560000  0.88100000  0.61889000  1
  C  C278  1  0.87780000  0.71440000  0.73600000  1
  C  C279  1  0.87780000  0.78560000  0.76400000  1
  C  C280  1  0.91880000  0.08393000  0.41646000  1
  C  C281  1  0.91880000  0.41607000  0.08354000  1
  C  C282  1  0.92520000  0.18583000  0.18580000  1
  C  C283  1  0.92520000  0.31417000  0.31420000  1
  C  C284  1  0.93960000  0.14130000  0.18720000  1
  C  C285  1  0.93960000  0.35870000  0.31280000  1
  C  C286  1  0.95060000  0.56089000  0.93916000  1
  C  C287  1  0.95060000  0.93911000  0.56084000  1
  C  C288  1  0.96680000  0.11374000  0.38679000  1
  C  C289  1  0.96680000  0.38626000  0.11321000  1
  N  N290  1  0.22480000  0.06649000  0.43362000  1
  N  N291  1  0.22480000  0.43351000  0.06638000  1
  N  N292  1  0.27520000  0.06638000  0.06649000  1
  N  N293  1  0.27520000  0.43362000  0.43351000  1
  N  N294  1  0.72480000  0.56638000  0.56649000  1
  N  N295  1  0.72480000  0.93362000  0.93351000  1
  N  N296  1  0.77520000  0.56649000  0.93362000  1
  N  N297  1  0.77520000  0.93351000  0.56638000  1
  O  O298  1  0.03160000  0.22400000  0.19790000  1
  O  O299  1  0.03160000  0.27600000  0.30210000  1
  O  O300  1  0.07510000  0.57219000  0.50832000  1
  O  O301  1  0.07510000  0.92781000  0.99168000  1
  O  O302  1  0.07530000  0.50824000  0.57227000  1
  O  O303  1  0.07530000  0.99176000  0.92773000  1
  O  O304  1  0.23320000  0.52943000  0.46349000  1
  O  O305  1  0.23320000  0.97057000  0.03651000  1
  O  O306  1  0.23460000  0.03659000  0.97085000  1
  O  O307  1  0.23460000  0.46341000  0.52915000  1
  O  O308  1  0.26540000  0.52915000  0.03659000  1
  O  O309  1  0.26540000  0.97085000  0.46341000  1
  O  O310  1  0.26680000  0.03651000  0.52943000  1
  O  O311  1  0.26680000  0.46349000  0.97057000  1
  O  O312  1  0.42470000  0.57227000  0.99176000  1
  O  O313  1  0.42470000  0.92773000  0.50824000  1
  O  O314  1  0.42490000  0.50832000  0.92781000  1
  O  O315  1  0.42490000  0.99168000  0.57219000  1
  O  O316  1  0.46840000  0.19790000  0.27600000  1
  O  O317  1  0.46840000  0.30210000  0.22400000  1
  O  O318  1  0.53160000  0.69790000  0.77600000  1
  O  O319  1  0.53160000  0.80210000  0.72400000  1
  O  O320  1  0.57510000  0.00832000  0.42781000  1
  O  O321  1  0.57510000  0.49168000  0.07219000  1
  O  O322  1  0.57530000  0.07227000  0.49176000  1
  O  O323  1  0.57530000  0.42773000  0.00824000  1
  O  O324  1  0.73320000  0.53651000  0.02943000  1
  O  O325  1  0.73320000  0.96349000  0.47057000  1
  O  O326  1  0.73460000  0.02915000  0.53659000  1
  O  O327  1  0.73460000  0.47085000  0.96341000  1
  O  O328  1  0.76540000  0.53659000  0.47085000  1
  O  O329  1  0.76540000  0.96341000  0.02915000  1
  O  O330  1  0.76680000  0.02943000  0.96349000  1
  O  O331  1  0.76680000  0.47057000  0.53651000  1
  O  O332  1  0.92470000  0.00824000  0.07227000  1
  O  O333  1  0.92470000  0.49176000  0.42773000  1
  O  O334  1  0.92490000  0.07219000  0.00832000  1
  O  O335  1  0.92490000  0.42781000  0.49168000  1
  O  O336  1  0.96840000  0.72400000  0.69790000  1
  O  O337  1  0.96840000  0.77600000  0.80210000  1
