# generated using pymatgen
data_CuPH4C5NO3
_symmetry_space_group_name_H-M   'P 1'
_cell_length_a   7.45640000
_cell_length_b   9.18450000
_cell_length_c   11.58200000
_cell_angle_alpha   100.84200000
_cell_angle_beta   104.30300000
_cell_angle_gamma   94.77400000
_symmetry_Int_Tables_number   1
_chemical_formula_structural   CuPH4C5NO3
_chemical_formula_sum   'Cu4 P4 H16 C20 N4 O12'
_cell_volume   747.82553124
_cell_formula_units_Z   4
loop_
 _symmetry_equiv_pos_site_id
 _symmetry_equiv_pos_as_xyz
  1  'x, y, z'
loop_
 _atom_site_type_symbol
 _atom_site_label
 _atom_site_symmetry_multiplicity
 _atom_site_fract_x
 _atom_site_fract_y
 _atom_site_fract_z
 _atom_site_occupancy
  Cu  Cu0  1  0.16072000  0.12101000  0.01208000  1
  Cu  Cu1  1  0.36183000  0.91960000  0.77591000  1
  Cu  Cu2  1  0.63817000  0.08040000  0.22409000  1
  Cu  Cu3  1  0.83928000  0.87899000  0.98792000  1
  P  P4  1  0.03370000  0.08259000  0.24017000  1
  P  P5  1  0.35230000  0.83722000  0.02408000  1
  P  P6  1  0.64770000  0.16278000  0.97592000  1
  P  P7  1  0.96630000  0.91741000  0.75983000  1
  H  H8  1  0.07450000  0.81710000  0.33620000  1
  H  H9  1  0.15920000  0.41500000  0.17410000  1
  H  H10  1  0.19990000  0.76600000  0.52330000  1
  H  H11  1  0.22580000  0.66430000  0.17890000  1
  H  H12  1  0.24930000  0.30780000  0.85050000  1
  H  H13  1  0.28500000  0.24800000  0.47510000  1
  H  H14  1  0.31650000  0.55670000  0.84870000  1
  H  H15  1  0.40750000  0.18630000  0.66030000  1
  H  H16  1  0.59250000  0.81370000  0.33970000  1
  H  H17  1  0.68350000  0.44330000  0.15130000  1
  H  H18  1  0.71500000  0.75200000  0.52490000  1
  H  H19  1  0.75070000  0.69220000  0.14950000  1
  H  H20  1  0.77420000  0.33570000  0.82110000  1
  H  H21  1  0.80010000  0.23400000  0.47670000  1
  H  H22  1  0.84080000  0.58500000  0.82590000  1
  H  H23  1  0.92550000  0.18290000  0.66380000  1
  C  C24  1  0.13830000  0.89470000  0.40110000  1
  C  C25  1  0.15630000  0.04040000  0.38390000  1
  C  C26  1  0.19210000  0.44370000  0.10840000  1
  C  C27  1  0.21460000  0.86440000  0.51400000  1
  C  C28  1  0.23250000  0.59370000  0.11160000  1
  C  C29  1  0.24510000  0.38050000  0.91720000  1
  C  C30  1  0.26310000  0.14980000  0.48330000  1
  C  C31  1  0.28310000  0.64080000  0.01560000  1
  C  C32  1  0.28650000  0.53020000  0.91590000  1
  C  C33  1  0.33690000  0.11200000  0.59490000  1
  C  C34  1  0.66310000  0.88800000  0.40510000  1
  C  C35  1  0.71350000  0.46980000  0.08410000  1
  C  C36  1  0.71690000  0.35920000  0.98440000  1
  C  C37  1  0.73690000  0.85020000  0.51670000  1
  C  C38  1  0.75490000  0.61950000  0.08280000  1
  C  C39  1  0.76750000  0.40630000  0.88840000  1
  C  C40  1  0.78540000  0.13560000  0.48600000  1
  C  C41  1  0.80790000  0.55630000  0.89160000  1
  C  C42  1  0.84370000  0.95960000  0.61610000  1
  C  C43  1  0.86170000  0.10530000  0.59890000  1
  N  N44  1  0.19900000  0.33730000  0.01240000  1
  N  N45  1  0.30930000  0.97140000  0.61110000  1
  N  N46  1  0.69070000  0.02860000  0.38890000  1
  N  N47  1  0.80100000  0.66270000  0.98760000  1
  O  O48  1  0.07280000  0.06820000  0.83330000  1
  O  O49  1  0.10080000  0.80800000  0.72950000  1
  O  O50  1  0.17420000  0.90740000  0.00560000  1
  O  O51  1  0.18220000  0.15330000  0.18970000  1
  O  O52  1  0.45020000  0.84500000  0.92450000  1
  O  O53  1  0.48380000  0.89040000  0.15150000  1
  O  O54  1  0.51620000  0.10960000  0.84850000  1
  O  O55  1  0.54980000  0.15500000  0.07550000  1
  O  O56  1  0.81780000  0.84670000  0.81030000  1
  O  O57  1  0.82580000  0.09260000  0.99440000  1
  O  O58  1  0.89920000  0.19200000  0.27050000  1
  O  O59  1  0.92720000  0.93180000  0.16670000  1
