# generated using pymatgen
data_CoPO4
_symmetry_space_group_name_H-M   'P 1'
_cell_length_a   13.04690000
_cell_length_b   14.12600000
_cell_length_c   14.21050000
_cell_angle_alpha   90.00000000
_cell_angle_beta   91.11000000
_cell_angle_gamma   90.00000000
_symmetry_Int_Tables_number   1
_chemical_formula_structural   CoPO4
_chemical_formula_sum   'Co20 P20 O80'
_cell_volume   2618.51092336
_cell_formula_units_Z   20
loop_
 _symmetry_equiv_pos_site_id
 _symmetry_equiv_pos_as_xyz
  1  'x, y, z'
loop_
 _atom_site_type_symbol
 _atom_site_label
 _atom_site_symmetry_multiplicity
 _atom_site_fract_x
 _atom_site_fract_y
 _atom_site_fract_z
 _atom_site_occupancy
  Co  Co0  1  0.05276000  0.53225000  0.27137000  1
  Co  Co1  1  0.11457000  0.97936000  0.91433000  1
  Co  Co2  1  0.15621000  0.00824000  0.67085000  1
  Co  Co3  1  0.23061000  0.12332000  0.26302000  1
  Co  Co4  1  0.24346000  0.87217000  0.28350000  1
  Co  Co5  1  0.24630000  0.37530000  0.81763000  1
  Co  Co6  1  0.27897000  0.62126000  0.80324000  1
  Co  Co7  1  0.34079000  0.48494000  0.41552000  1
  Co  Co8  1  0.37790000  0.48211000  0.16890000  1
  Co  Co9  1  0.44338000  0.00097000  0.81871000  1
  Co  Co10  1  0.55276000  0.46775000  0.77137000  1
  Co  Co11  1  0.61457000  0.02064000  0.41433000  1
  Co  Co12  1  0.65621000  0.99176000  0.17085000  1
  Co  Co13  1  0.73061000  0.87668000  0.76302000  1
  Co  Co14  1  0.74346000  0.12783000  0.78350000  1
  Co  Co15  1  0.74630000  0.62470000  0.31763000  1
  Co  Co16  1  0.77897000  0.37874000  0.30324000  1
  Co  Co17  1  0.84079000  0.51506000  0.91552000  1
  Co  Co18  1  0.87790000  0.51789000  0.66890000  1
  Co  Co19  1  0.94338000  0.99903000  0.31871000  1
  P  P20  1  0.06060000  0.51725000  0.81834000  1
  P  P21  1  0.09689000  0.98387000  0.14303000  1
  P  P22  1  0.14257000  0.99777000  0.43721000  1
  P  P23  1  0.22016000  0.36006000  0.25666000  1
  P  P24  1  0.24963000  0.14133000  0.83134000  1
  P  P25  1  0.25166000  0.64452000  0.28721000  1
  P  P26  1  0.27141000  0.85449000  0.80124000  1
  P  P27  1  0.35426000  0.46619000  0.64634000  1
  P  P28  1  0.40075000  0.49076000  0.93940000  1
  P  P29  1  0.43707000  0.01270000  0.26139000  1
  P  P30  1  0.56060000  0.48275000  0.31834000  1
  P  P31  1  0.59689000  0.01613000  0.64303000  1
  P  P32  1  0.64257000  0.00223000  0.93721000  1
  P  P33  1  0.72016000  0.63994000  0.75666000  1
  P  P34  1  0.74963000  0.85867000  0.33134000  1
  P  P35  1  0.75166000  0.35548000  0.78721000  1
  P  P36  1  0.77141000  0.14551000  0.30124000  1
  P  P37  1  0.85426000  0.53381000  0.14634000  1
  P  P38  1  0.90075000  0.50924000  0.43940000  1
  P  P39  1  0.93707000  0.98730000  0.76139000  1
  O  O40  1  0.00740000  0.55410000  0.72870000  1
  O  O41  1  0.01550000  0.97360000  0.68370000  1
  O  O42  1  0.02880000  0.97150000  0.43110000  1
  O  O43  1  0.06630000  0.96630000  0.04010000  1
  O  O44  1  0.10660000  0.41980000  0.79960000  1
  O  O45  1  0.12080000  0.41180000  0.27920000  1
  O  O46  1  0.13960000  0.89080000  0.18410000  1
  O  O47  1  0.14020000  0.64390000  0.25140000  1
  O  O48  1  0.14410000  0.58940000  0.84770000  1
  O  O49  1  0.15770000  0.08030000  0.37060000  1
  O  O50  1  0.17470000  0.02460000  0.53710000  1
  O  O51  1  0.17640000  0.06350000  0.14710000  1
  O  O52  1  0.17860000  0.86310000  0.86610000  1
  O  O53  1  0.18370000  0.12220000  0.74200000  1
  O  O54  1  0.19390000  0.25510000  0.25160000  1
  O  O55  1  0.20460000  0.91010000  0.40690000  1
  O  O56  1  0.21680000  0.08040000  0.91400000  1
  O  O57  1  0.23960000  0.24530000  0.86160000  1
  O  O58  1  0.25890000  0.59360000  0.38220000  1
  O  O59  1  0.25900000  0.91670000  0.71240000  1
  O  O60  1  0.26210000  0.39150000  0.16070000  1
  O  O61  1  0.28590000  0.75280000  0.77100000  1
  O  O62  1  0.29050000  0.74650000  0.29730000  1
  O  O63  1  0.30200000  0.43330000  0.93010000  1
  O  O64  1  0.30300000  0.37810000  0.33150000  1
  O  O65  1  0.30370000  0.55250000  0.68760000  1
  O  O66  1  0.31490000  0.45630000  0.54520000  1
  O  O67  1  0.32100000  0.59770000  0.21580000  1
  O  O68  1  0.32210000  0.37730000  0.70250000  1
  O  O69  1  0.36260000  0.93430000  0.22940000  1
  O  O70  1  0.36510000  0.12180000  0.81270000  1
  O  O71  1  0.36830000  0.88950000  0.85610000  1
  O  O72  1  0.37800000  0.10580000  0.27210000  1
  O  O73  1  0.38660000  0.58780000  0.89230000  1
  O  O74  1  0.43110000  0.50160000  0.04240000  1
  O  O75  1  0.47110000  0.47180000  0.65100000  1
  O  O76  1  0.48590000  0.98530000  0.35510000  1
  O  O77  1  0.48790000  0.48970000  0.40050000  1
  O  O78  1  0.48880000  0.43770000  0.89060000  1
  O  O79  1  0.49900000  0.98900000  0.69470000  1
  O  O80  1  0.50740000  0.44590000  0.22870000  1
  O  O81  1  0.51550000  0.02640000  0.18370000  1
  O  O82  1  0.52880000  0.02850000  0.93110000  1
  O  O83  1  0.56630000  0.03370000  0.54010000  1
  O  O84  1  0.60660000  0.58020000  0.29960000  1
  O  O85  1  0.62080000  0.58820000  0.77920000  1
  O  O86  1  0.63960000  0.10920000  0.68410000  1
  O  O87  1  0.64020000  0.35610000  0.75140000  1
  O  O88  1  0.64410000  0.41060000  0.34770000  1
  O  O89  1  0.65770000  0.91970000  0.87060000  1
  O  O90  1  0.67470000  0.97540000  0.03710000  1
  O  O91  1  0.67640000  0.93650000  0.64710000  1
  O  O92  1  0.67860000  0.13690000  0.36610000  1
  O  O93  1  0.68370000  0.87780000  0.24200000  1
  O  O94  1  0.69390000  0.74490000  0.75160000  1
  O  O95  1  0.70460000  0.08990000  0.90690000  1
  O  O96  1  0.71680000  0.91960000  0.41400000  1
  O  O97  1  0.73960000  0.75470000  0.36160000  1
  O  O98  1  0.75890000  0.40640000  0.88220000  1
  O  O99  1  0.75900000  0.08330000  0.21240000  1
  O  O100  1  0.76210000  0.60850000  0.66070000  1
  O  O101  1  0.78590000  0.24720000  0.27100000  1
  O  O102  1  0.79050000  0.25350000  0.79730000  1
  O  O103  1  0.80200000  0.56670000  0.43010000  1
  O  O104  1  0.80300000  0.62190000  0.83150000  1
  O  O105  1  0.80370000  0.44750000  0.18760000  1
  O  O106  1  0.81490000  0.54370000  0.04520000  1
  O  O107  1  0.82100000  0.40230000  0.71580000  1
  O  O108  1  0.82210000  0.62270000  0.20250000  1
  O  O109  1  0.86260000  0.06570000  0.72940000  1
  O  O110  1  0.86510000  0.87820000  0.31270000  1
  O  O111  1  0.86830000  0.11050000  0.35610000  1
  O  O112  1  0.87800000  0.89420000  0.77210000  1
  O  O113  1  0.88660000  0.41220000  0.39230000  1
  O  O114  1  0.93110000  0.49840000  0.54240000  1
  O  O115  1  0.97110000  0.52820000  0.15100000  1
  O  O116  1  0.98590000  0.01470000  0.85510000  1
  O  O117  1  0.98790000  0.51030000  0.90050000  1
  O  O118  1  0.98880000  0.56230000  0.39060000  1
  O  O119  1  0.99900000  0.01100000  0.19470000  1
