# generated using pymatgen
data_CuPH3(CO)3
_symmetry_space_group_name_H-M   'P 1'
_cell_length_a   4.82180000
_cell_length_b   18.29500000
_cell_length_c   19.89110000
_cell_angle_alpha   90.00000000
_cell_angle_beta   90.00000000
_cell_angle_gamma   95.07700000
_symmetry_Int_Tables_number   1
_chemical_formula_structural   CuPH3(CO)3
_chemical_formula_sum   'Cu12 P12 H36 C36 O36'
_cell_volume   1747.80579621
_cell_formula_units_Z   12
loop_
 _symmetry_equiv_pos_site_id
 _symmetry_equiv_pos_as_xyz
  1  'x, y, z'
loop_
 _atom_site_type_symbol
 _atom_site_label
 _atom_site_symmetry_multiplicity
 _atom_site_fract_x
 _atom_site_fract_y
 _atom_site_fract_z
 _atom_site_occupancy
  Cu  Cu0  1  0.02202000  0.20240000  0.70356000  1
  Cu  Cu1  1  0.07966000  0.75126000  0.65741000  1
  Cu  Cu2  1  0.10730000  0.29650000  0.97000000  1
  Cu  Cu3  1  0.39270000  0.20350000  0.47000000  1
  Cu  Cu4  1  0.42034000  0.74874000  0.15741000  1
  Cu  Cu5  1  0.47798000  0.29760000  0.20356000  1
  Cu  Cu6  1  0.52202000  0.70240000  0.79644000  1
  Cu  Cu7  1  0.57966000  0.25126000  0.84259000  1
  Cu  Cu8  1  0.60730000  0.79650000  0.53000000  1
  Cu  Cu9  1  0.89270000  0.70350000  0.03000000  1
  Cu  Cu10  1  0.92034000  0.24874000  0.34259000  1
  Cu  Cu11  1  0.97798000  0.79760000  0.29644000  1
  P  P12  1  0.07240000  0.73160000  0.44278000  1
  P  P13  1  0.07610000  0.15321000  0.85278000  1
  P  P14  1  0.07710000  0.34847000  0.82540000  1
  P  P15  1  0.42290000  0.15153000  0.32540000  1
  P  P16  1  0.42390000  0.34679000  0.35278000  1
  P  P17  1  0.42760000  0.76840000  0.94278000  1
  P  P18  1  0.57240000  0.23160000  0.05722000  1
  P  P19  1  0.57610000  0.65321000  0.64722000  1
  P  P20  1  0.57710000  0.84847000  0.67460000  1
  P  P21  1  0.92290000  0.65153000  0.17460000  1
  P  P22  1  0.92390000  0.84679000  0.14722000  1
  P  P23  1  0.92760000  0.26840000  0.55722000  1
  H  H24  1  0.05850000  0.98100000  0.23290000  1
  H  H25  1  0.06450000  0.61860000  0.49380000  1
  H  H26  1  0.13010000  0.06840000  0.93570000  1
  H  H27  1  0.13470000  0.47400000  0.81810000  1
  H  H28  1  0.16930000  0.55430000  0.20260000  1
  H  H29  1  0.17870000  0.87000000  0.94560000  1
  H  H30  1  0.19630000  0.62500000  0.31790000  1
  H  H31  1  0.19700000  0.44990000  0.37210000  1
  H  H32  1  0.20340000  0.02970000  0.04040000  1
  H  H33  1  0.29660000  0.47030000  0.54040000  1
  H  H34  1  0.30300000  0.05010000  0.87210000  1
  H  H35  1  0.30370000  0.87500000  0.81790000  1
  H  H36  1  0.32130000  0.63000000  0.44560000  1
  H  H37  1  0.33070000  0.94570000  0.70260000  1
  H  H38  1  0.36530000  0.02600000  0.31810000  1
  H  H39  1  0.36990000  0.43160000  0.43570000  1
  H  H40  1  0.43550000  0.88140000  0.99380000  1
  H  H41  1  0.44150000  0.51900000  0.73290000  1
  H  H42  1  0.55850000  0.48100000  0.26710000  1
  H  H43  1  0.56450000  0.11860000  0.00620000  1
  H  H44  1  0.63010000  0.56840000  0.56430000  1
  H  H45  1  0.63470000  0.97400000  0.68190000  1
  H  H46  1  0.66930000  0.05430000  0.29740000  1
  H  H47  1  0.67870000  0.37000000  0.55440000  1
  H  H48  1  0.69630000  0.12500000  0.18210000  1
  H  H49  1  0.69700000  0.94990000  0.12790000  1
  H  H50  1  0.70340000  0.52970000  0.45960000  1
  H  H51  1  0.79660000  0.97030000  0.95960000  1
  H  H52  1  0.80300000  0.55010000  0.62790000  1
  H  H53  1  0.80370000  0.37500000  0.68210000  1
  H  H54  1  0.82130000  0.13000000  0.05440000  1
  H  H55  1  0.83070000  0.44570000  0.79740000  1
  H  H56  1  0.86530000  0.52600000  0.18190000  1
  H  H57  1  0.86990000  0.93160000  0.06430000  1
  H  H58  1  0.93550000  0.38140000  0.50620000  1
  H  H59  1  0.94150000  0.01900000  0.76710000  1
  C  C60  1  0.02510000  0.43700000  0.79210000  1
  C  C61  1  0.02990000  0.41250000  0.60260000  1
  C  C62  1  0.04320000  0.59330000  0.33020000  1
  C  C63  1  0.10170000  0.99420000  0.13290000  1
  C  C64  1  0.10340000  0.44620000  0.71880000  1
  C  C65  1  0.12380000  0.63560000  0.44950000  1
  C  C66  1  0.12450000  0.06480000  0.88700000  1
  C  C67  1  0.16730000  0.00560000  0.19990000  1
  C  C68  1  0.24930000  0.46400000  0.58550000  1
  C  C69  1  0.25070000  0.03600000  0.08550000  1
  C  C70  1  0.33270000  0.49440000  0.69990000  1
  C  C71  1  0.37550000  0.43520000  0.38700000  1
  C  C72  1  0.37620000  0.86440000  0.94950000  1
  C  C73  1  0.39660000  0.05380000  0.21880000  1
  C  C74  1  0.39830000  0.50580000  0.63290000  1
  C  C75  1  0.45680000  0.90670000  0.83020000  1
  C  C76  1  0.47010000  0.08750000  0.10260000  1
  C  C77  1  0.47490000  0.06300000  0.29210000  1
  C  C78  1  0.52510000  0.93700000  0.70790000  1
  C  C79  1  0.52990000  0.91250000  0.89740000  1
  C  C80  1  0.54320000  0.09330000  0.16980000  1
  C  C81  1  0.60170000  0.49420000  0.36710000  1
  C  C82  1  0.60340000  0.94620000  0.78120000  1
  C  C83  1  0.62380000  0.13560000  0.05050000  1
  C  C84  1  0.62450000  0.56480000  0.61300000  1
  C  C85  1  0.66730000  0.50560000  0.30010000  1
  C  C86  1  0.74930000  0.96400000  0.91450000  1
  C  C87  1  0.75070000  0.53600000  0.41450000  1
  C  C88  1  0.83270000  0.99440000  0.80010000  1
  C  C89  1  0.87550000  0.93520000  0.11300000  1
  C  C90  1  0.87620000  0.36440000  0.55050000  1
  C  C91  1  0.89660000  0.55380000  0.28120000  1
  C  C92  1  0.89830000  0.00580000  0.86710000  1
  C  C93  1  0.95680000  0.40670000  0.66980000  1
  C  C94  1  0.97010000  0.58750000  0.39740000  1
  C  C95  1  0.97490000  0.56300000  0.20790000  1
  O  O96  1  0.01270000  0.65240000  0.10130000  1
  O  O97  1  0.10990000  0.70920000  0.21328000  1
  O  O98  1  0.11610000  0.16330000  0.31674000  1
  O  O99  1  0.16440000  0.75700000  0.37253000  1
  O  O100  1  0.18750000  0.15634000  0.78094000  1
  O  O101  1  0.23090000  0.83485000  0.14022000  1
  O  O102  1  0.23380000  0.25670000  0.54588000  1
  O  O103  1  0.23930000  0.28933000  0.39503000  1
  O  O104  1  0.24680000  0.77240000  0.49710000  1
  O  O105  1  0.25320000  0.72760000  0.99710000  1
  O  O106  1  0.26070000  0.21067000  0.89503000  1
  O  O107  1  0.26620000  0.24330000  0.04588000  1
  O  O108  1  0.26910000  0.66515000  0.64022000  1
  O  O109  1  0.31250000  0.34366000  0.28094000  1
  O  O110  1  0.33560000  0.74300000  0.87253000  1
  O  O111  1  0.38390000  0.33670000  0.81674000  1
  O  O112  1  0.39010000  0.79080000  0.71328000  1
  O  O113  1  0.48730000  0.84760000  0.60130000  1
  O  O114  1  0.51270000  0.15240000  0.39870000  1
  O  O115  1  0.60990000  0.20920000  0.28672000  1
  O  O116  1  0.61610000  0.66330000  0.18326000  1
  O  O117  1  0.66440000  0.25700000  0.12747000  1
  O  O118  1  0.68750000  0.65634000  0.71906000  1
  O  O119  1  0.73090000  0.33485000  0.35978000  1
  O  O120  1  0.73380000  0.75670000  0.95412000  1
  O  O121  1  0.73930000  0.78933000  0.10497000  1
  O  O122  1  0.74680000  0.27240000  0.00290000  1
  O  O123  1  0.75320000  0.22760000  0.50290000  1
  O  O124  1  0.76070000  0.71067000  0.60497000  1
  O  O125  1  0.76620000  0.74330000  0.45412000  1
  O  O126  1  0.76910000  0.16515000  0.85978000  1
  O  O127  1  0.81250000  0.84366000  0.21906000  1
  O  O128  1  0.83560000  0.24300000  0.62747000  1
  O  O129  1  0.88390000  0.83670000  0.68326000  1
  O  O130  1  0.89010000  0.29080000  0.78672000  1
  O  O131  1  0.98730000  0.34760000  0.89870000  1
