# generated using pymatgen
data_TbH16C24NO8
_symmetry_space_group_name_H-M   'P 1'
_cell_length_a   10.91300000
_cell_length_b   16.54200000
_cell_length_c   19.79300000
_cell_angle_alpha   90.00000000
_cell_angle_beta   90.00000000
_cell_angle_gamma   90.00000000
_symmetry_Int_Tables_number   1
_chemical_formula_structural   TbH16C24NO8
_chemical_formula_sum   'Tb4 H64 C96 N4 O32'
_cell_volume   3573.08869088
_cell_formula_units_Z   4
loop_
 _symmetry_equiv_pos_site_id
 _symmetry_equiv_pos_as_xyz
  1  'x, y, z'
loop_
 _atom_site_type_symbol
 _atom_site_label
 _atom_site_symmetry_multiplicity
 _atom_site_fract_x
 _atom_site_fract_y
 _atom_site_fract_z
 _atom_site_occupancy
  Tb  Tb0  1  0.20671000  0.75000000  0.20436000  1
  Tb  Tb1  1  0.29329000  0.25000000  0.70436000  1
  Tb  Tb2  1  0.70671000  0.75000000  0.29564000  1
  Tb  Tb3  1  0.79329000  0.25000000  0.79564000  1
  H  H4  1  0.01370000  0.25000000  0.06980000  1
  H  H5  1  0.02420000  0.00990000  0.67290000  1
  H  H6  1  0.02420000  0.49010000  0.67290000  1
  H  H7  1  0.02570000  0.67090000  0.45600000  1
  H  H8  1  0.02570000  0.82910000  0.45600000  1
  H  H9  1  0.03960000  0.75000000  0.04270000  1
  H  H10  1  0.04160000  0.10650000  0.37800000  1
  H  H11  1  0.04160000  0.39350000  0.37800000  1
  H  H12  1  0.07100000  0.18160000  0.48590000  1
  H  H13  1  0.07100000  0.31840000  0.48590000  1
  H  H14  1  0.15370000  0.75000000  0.69140000  1
  H  H15  1  0.18250000  0.75000000  0.40580000  1
  H  H16  1  0.18970000  0.56850000  0.46840000  1
  H  H17  1  0.18970000  0.93150000  0.46840000  1
  H  H18  1  0.24450000  0.54790000  0.01940000  1
  H  H19  1  0.24450000  0.95210000  0.01940000  1
  H  H20  1  0.25550000  0.04790000  0.51940000  1
  H  H21  1  0.25550000  0.45210000  0.51940000  1
  H  H22  1  0.31030000  0.06850000  0.96840000  1
  H  H23  1  0.31030000  0.43150000  0.96840000  1
  H  H24  1  0.31750000  0.25000000  0.90580000  1
  H  H25  1  0.34630000  0.25000000  0.19140000  1
  H  H26  1  0.42900000  0.68160000  0.98590000  1
  H  H27  1  0.42900000  0.81840000  0.98590000  1
  H  H28  1  0.45840000  0.60650000  0.87800000  1
  H  H29  1  0.45840000  0.89350000  0.87800000  1
  H  H30  1  0.46040000  0.25000000  0.54270000  1
  H  H31  1  0.47430000  0.17090000  0.95600000  1
  H  H32  1  0.47430000  0.32910000  0.95600000  1
  H  H33  1  0.47580000  0.50990000  0.17290000  1
  H  H34  1  0.47580000  0.99010000  0.17290000  1
  H  H35  1  0.48630000  0.75000000  0.56980000  1
  H  H36  1  0.51370000  0.25000000  0.43020000  1
  H  H37  1  0.52420000  0.00990000  0.82710000  1
  H  H38  1  0.52420000  0.49010000  0.82710000  1
  H  H39  1  0.52570000  0.67090000  0.04400000  1
  H  H40  1  0.52570000  0.82910000  0.04400000  1
  H  H41  1  0.53960000  0.75000000  0.45730000  1
  H  H42  1  0.54160000  0.10650000  0.12200000  1
  H  H43  1  0.54160000  0.39350000  0.12200000  1
  H  H44  1  0.57100000  0.18160000  0.01410000  1
  H  H45  1  0.57100000  0.31840000  0.01410000  1
  H  H46  1  0.65370000  0.75000000  0.80860000  1
  H  H47  1  0.68250000  0.75000000  0.09420000  1
  H  H48  1  0.68970000  0.56850000  0.03160000  1
  H  H49  1  0.68970000  0.93150000  0.03160000  1
  H  H50  1  0.74450000  0.54790000  0.48060000  1
  H  H51  1  0.74450000  0.95210000  0.48060000  1
  H  H52  1  0.75550000  0.04790000  0.98060000  1
  H  H53  1  0.75550000  0.45210000  0.98060000  1
  H  H54  1  0.81030000  0.06850000  0.53160000  1
  H  H55  1  0.81030000  0.43150000  0.53160000  1
  H  H56  1  0.81750000  0.25000000  0.59420000  1
  H  H57  1  0.84630000  0.25000000  0.30860000  1
  H  H58  1  0.92900000  0.68160000  0.51410000  1
  H  H59  1  0.92900000  0.81840000  0.51410000  1
  H  H60  1  0.95840000  0.60650000  0.62200000  1
  H  H61  1  0.95840000  0.89350000  0.62200000  1
  H  H62  1  0.96040000  0.25000000  0.95730000  1
  H  H63  1  0.97430000  0.17090000  0.54400000  1
  H  H64  1  0.97430000  0.32910000  0.54400000  1
  H  H65  1  0.97580000  0.50990000  0.32710000  1
  H  H66  1  0.97580000  0.99010000  0.32710000  1
  H  H67  1  0.98630000  0.75000000  0.93020000  1
  C  C68  1  0.01580000  0.67610000  0.50450000  1
  C  C69  1  0.01580000  0.82390000  0.50450000  1
  C  C70  1  0.01810000  0.57540000  0.60090000  1
  C  C71  1  0.01810000  0.92460000  0.60090000  1
  C  C72  1  0.04250000  0.25000000  0.96970000  1
  C  C73  1  0.05760000  0.50530000  0.63160000  1
  C  C74  1  0.05760000  0.99470000  0.63160000  1
  C  C75  1  0.06500000  0.60060000  0.53920000  1
  C  C76  1  0.06500000  0.89940000  0.53920000  1
  C  C77  1  0.07500000  0.25000000  0.03710000  1
  C  C78  1  0.10270000  0.25000000  0.84660000  1
  C  C79  1  0.13370000  0.25000000  0.92070000  1
  C  C80  1  0.14690000  0.04320000  0.60150000  1
  C  C81  1  0.14690000  0.45680000  0.60150000  1
  C  C82  1  0.15560000  0.55290000  0.50940000  1
  C  C83  1  0.15560000  0.94710000  0.50940000  1
  C  C84  1  0.18860000  0.11850000  0.63410000  1
  C  C85  1  0.18860000  0.38150000  0.63410000  1
  C  C86  1  0.19500000  0.01710000  0.54020000  1
  C  C87  1  0.19500000  0.48290000  0.54020000  1
  C  C88  1  0.19750000  0.25000000  0.05760000  1
  C  C89  1  0.21050000  0.75000000  0.50900000  1
  C  C90  1  0.22290000  0.25000000  0.13250000  1
  C  C91  1  0.24310000  0.75000000  0.43880000  1
  C  C92  1  0.25690000  0.25000000  0.93880000  1
  C  C93  1  0.27710000  0.75000000  0.63250000  1
  C  C94  1  0.28950000  0.25000000  0.00900000  1
  C  C95  1  0.30250000  0.75000000  0.55760000  1
  C  C96  1  0.30500000  0.51710000  0.04020000  1
  C  C97  1  0.30500000  0.98290000  0.04020000  1
  C  C98  1  0.31140000  0.61850000  0.13410000  1
  C  C99  1  0.31140000  0.88150000  0.13410000  1
  C  C100  1  0.34440000  0.05290000  0.00940000  1
  C  C101  1  0.34440000  0.44710000  0.00940000  1
  C  C102  1  0.35310000  0.54320000  0.10150000  1
  C  C103  1  0.35310000  0.95680000  0.10150000  1
  C  C104  1  0.36630000  0.75000000  0.42070000  1
  C  C105  1  0.39730000  0.75000000  0.34660000  1
  C  C106  1  0.42500000  0.75000000  0.53710000  1
  C  C107  1  0.43500000  0.10060000  0.03920000  1
  C  C108  1  0.43500000  0.39940000  0.03920000  1
  C  C109  1  0.44240000  0.00530000  0.13160000  1
  C  C110  1  0.44240000  0.49470000  0.13160000  1
  C  C111  1  0.45750000  0.75000000  0.46970000  1
  C  C112  1  0.48190000  0.07540000  0.10090000  1
  C  C113  1  0.48190000  0.42460000  0.10090000  1
  C  C114  1  0.48420000  0.17610000  0.00450000  1
  C  C115  1  0.48420000  0.32390000  0.00450000  1
  C  C116  1  0.51580000  0.67610000  0.99550000  1
  C  C117  1  0.51580000  0.82390000  0.99550000  1
  C  C118  1  0.51810000  0.57540000  0.89910000  1
  C  C119  1  0.51810000  0.92460000  0.89910000  1
  C  C120  1  0.54250000  0.25000000  0.53030000  1
  C  C121  1  0.55760000  0.50530000  0.86840000  1
  C  C122  1  0.55760000  0.99470000  0.86840000  1
  C  C123  1  0.56500000  0.60060000  0.96080000  1
  C  C124  1  0.56500000  0.89940000  0.96080000  1
  C  C125  1  0.57500000  0.25000000  0.46290000  1
  C  C126  1  0.60270000  0.25000000  0.65340000  1
  C  C127  1  0.63370000  0.25000000  0.57930000  1
  C  C128  1  0.64690000  0.04320000  0.89850000  1
  C  C129  1  0.64690000  0.45680000  0.89850000  1
  C  C130  1  0.65560000  0.55290000  0.99060000  1
  C  C131  1  0.65560000  0.94710000  0.99060000  1
  C  C132  1  0.68860000  0.11850000  0.86590000  1
  C  C133  1  0.68860000  0.38150000  0.86590000  1
  C  C134  1  0.69500000  0.01710000  0.95980000  1
  C  C135  1  0.69500000  0.48290000  0.95980000  1
  C  C136  1  0.69750000  0.25000000  0.44240000  1
  C  C137  1  0.71050000  0.75000000  0.99100000  1
  C  C138  1  0.72290000  0.25000000  0.36750000  1
  C  C139  1  0.74310000  0.75000000  0.06120000  1
  C  C140  1  0.75690000  0.25000000  0.56120000  1
  C  C141  1  0.77710000  0.75000000  0.86750000  1
  C  C142  1  0.78950000  0.25000000  0.49100000  1
  C  C143  1  0.80250000  0.75000000  0.94240000  1
  C  C144  1  0.80500000  0.51710000  0.45980000  1
  C  C145  1  0.80500000  0.98290000  0.45980000  1
  C  C146  1  0.81140000  0.61850000  0.36590000  1
  C  C147  1  0.81140000  0.88150000  0.36590000  1
  C  C148  1  0.84440000  0.05290000  0.49060000  1
  C  C149  1  0.84440000  0.44710000  0.49060000  1
  C  C150  1  0.85310000  0.54320000  0.39850000  1
  C  C151  1  0.85310000  0.95680000  0.39850000  1
  C  C152  1  0.86630000  0.75000000  0.07930000  1
  C  C153  1  0.89730000  0.75000000  0.15340000  1
  C  C154  1  0.92500000  0.75000000  0.96290000  1
  C  C155  1  0.93500000  0.10060000  0.46080000  1
  C  C156  1  0.93500000  0.39940000  0.46080000  1
  C  C157  1  0.94240000  0.00530000  0.36840000  1
  C  C158  1  0.94240000  0.49470000  0.36840000  1
  C  C159  1  0.95750000  0.75000000  0.03030000  1
  C  C160  1  0.98190000  0.07540000  0.39910000  1
  C  C161  1  0.98190000  0.42460000  0.39910000  1
  C  C162  1  0.98420000  0.17610000  0.49550000  1
  C  C163  1  0.98420000  0.32390000  0.49550000  1
  N  N164  1  0.08230000  0.75000000  0.52870000  1
  N  N165  1  0.41770000  0.25000000  0.02870000  1
  N  N166  1  0.58230000  0.75000000  0.97130000  1
  N  N167  1  0.91770000  0.25000000  0.47130000  1
  O  O168  1  0.00690000  0.75000000  0.16790000  1
  O  O169  1  0.13570000  0.14550000  0.68690000  1
  O  O170  1  0.13570000  0.35450000  0.68690000  1
  O  O171  1  0.14310000  0.25000000  0.17320000  1
  O  O172  1  0.15930000  0.75000000  0.65010000  1
  O  O173  1  0.18860000  0.25000000  0.80560000  1
  O  O174  1  0.21930000  0.65490000  0.11120000  1
  O  O175  1  0.21930000  0.84510000  0.11120000  1
  O  O176  1  0.28070000  0.15490000  0.61120000  1
  O  O177  1  0.28070000  0.34510000  0.61120000  1
  O  O178  1  0.31140000  0.75000000  0.30560000  1
  O  O179  1  0.34070000  0.25000000  0.15010000  1
  O  O180  1  0.35690000  0.75000000  0.67320000  1
  O  O181  1  0.36430000  0.64550000  0.18690000  1
  O  O182  1  0.36430000  0.85450000  0.18690000  1
  O  O183  1  0.49310000  0.25000000  0.66790000  1
  O  O184  1  0.50690000  0.75000000  0.33210000  1
  O  O185  1  0.63570000  0.14550000  0.81310000  1
  O  O186  1  0.63570000  0.35450000  0.81310000  1
  O  O187  1  0.64310000  0.25000000  0.32680000  1
  O  O188  1  0.65930000  0.75000000  0.84990000  1
  O  O189  1  0.68860000  0.25000000  0.69440000  1
  O  O190  1  0.71930000  0.65490000  0.38880000  1
  O  O191  1  0.71930000  0.84510000  0.38880000  1
  O  O192  1  0.78070000  0.15490000  0.88880000  1
  O  O193  1  0.78070000  0.34510000  0.88880000  1
  O  O194  1  0.81140000  0.75000000  0.19440000  1
  O  O195  1  0.84070000  0.25000000  0.34990000  1
  O  O196  1  0.85690000  0.75000000  0.82680000  1
  O  O197  1  0.86430000  0.64550000  0.31310000  1
  O  O198  1  0.86430000  0.85450000  0.31310000  1
  O  O199  1  0.99310000  0.25000000  0.83210000  1
