# generated using pymatgen
data_Gd2Ag6H14C36N12O25
_symmetry_space_group_name_H-M   'P 1'
_cell_length_a   13.84750000
_cell_length_b   15.17190000
_cell_length_c   16.47700000
_cell_angle_alpha   75.79800000
_cell_angle_beta   81.44900000
_cell_angle_gamma   63.07400000
_symmetry_Int_Tables_number   1
_chemical_formula_structural   Gd2Ag6H14C36N12O25
_chemical_formula_sum   'Gd4 Ag12 H28 C72 N24 O50'
_cell_volume   2989.26300506
_cell_formula_units_Z   2
loop_
 _symmetry_equiv_pos_site_id
 _symmetry_equiv_pos_as_xyz
  1  'x, y, z'
loop_
 _atom_site_type_symbol
 _atom_site_label
 _atom_site_symmetry_multiplicity
 _atom_site_fract_x
 _atom_site_fract_y
 _atom_site_fract_z
 _atom_site_occupancy
  Gd  Gd0  1  0.13212000  0.20129000  0.10366000  1
  Gd  Gd1  1  0.24415000  0.51869000  0.67679000  1
  Gd  Gd2  1  0.75585000  0.48131000  0.32321000  1
  Gd  Gd3  1  0.86788000  0.79871000  0.89634000  1
  Ag  Ag4  1  0.00006000  0.53670000  0.35714000  1
  Ag  Ag5  1  0.08765000  0.08627000  0.92252000  1
  Ag  Ag6  1  0.23787000  0.91289000  0.73990000  1
  Ag  Ag7  1  0.33020000  0.46181000  0.30488000  1
  Ag  Ag8  1  0.33509000  0.53300000  0.02744000  1
  Ag  Ag9  1  0.42727000  0.09333000  0.59894000  1
  Ag  Ag10  1  0.57273000  0.90667000  0.40106000  1
  Ag  Ag11  1  0.66491000  0.46700000  0.97256000  1
  Ag  Ag12  1  0.66980000  0.53819000  0.69512000  1
  Ag  Ag13  1  0.76213000  0.08711000  0.26010000  1
  Ag  Ag14  1  0.91235000  0.91373000  0.07748000  1
  Ag  Ag15  1  0.99994000  0.46330000  0.64286000  1
  H  H16  1  0.01610000  0.72550000  0.38690000  1
  H  H17  1  0.06040000  0.10170000  0.64510000  1
  H  H18  1  0.08890000  0.30570000  0.41500000  1
  H  H19  1  0.10640000  0.83840000  0.19490000  1
  H  H20  1  0.22470000  0.16340000  0.48370000  1
  H  H21  1  0.24270000  0.69500000  0.26450000  1
  H  H22  1  0.25170000  0.67230000  0.55410000  1
  H  H23  1  0.25540000  0.90250000  0.03750000  1
  H  H24  1  0.30420000  0.26260000  0.26960000  1
  H  H25  1  0.30880000  0.58120000  0.52960000  1
  H  H26  1  0.34360000  0.73110000  0.06590000  1
  H  H27  1  0.38860000  0.09060000  0.30180000  1
  H  H28  1  0.43480000  0.30170000  0.06990000  1
  H  H29  1  0.43660000  0.84020000  0.85440000  1
  H  H30  1  0.56340000  0.15980000  0.14560000  1
  H  H31  1  0.56520000  0.69830000  0.93010000  1
  H  H32  1  0.61140000  0.90940000  0.69820000  1
  H  H33  1  0.65640000  0.26890000  0.93410000  1
  H  H34  1  0.69120000  0.41880000  0.47040000  1
  H  H35  1  0.69580000  0.73740000  0.73040000  1
  H  H36  1  0.74460000  0.09750000  0.96250000  1
  H  H37  1  0.74830000  0.32770000  0.44590000  1
  H  H38  1  0.75730000  0.30500000  0.73550000  1
  H  H39  1  0.77530000  0.83660000  0.51630000  1
  H  H40  1  0.89360000  0.16160000  0.80510000  1
  H  H41  1  0.91110000  0.69430000  0.58500000  1
  H  H42  1  0.93960000  0.89830000  0.35490000  1
  H  H43  1  0.98390000  0.27450000  0.61310000  1
  C  C44  1  0.01330000  0.92380000  0.88060000  1
  C  C45  1  0.02260000  0.32770000  0.90870000  1
  C  C46  1  0.04330000  0.23970000  0.64690000  1
  C  C47  1  0.05400000  0.68010000  0.14320000  1
  C  C48  1  0.08850000  0.13560000  0.66720000  1
  C  C49  1  0.11230000  0.86160000  0.93450000  1
  C  C50  1  0.11300000  0.77560000  0.19150000  1
  C  C51  1  0.13300000  0.69020000  0.91600000  1
  C  C52  1  0.13550000  0.59290000  0.18800000  1
  C  C53  1  0.13560000  0.31260000  0.44550000  1
  C  C54  1  0.15210000  0.48580000  0.18760000  1
  C  C55  1  0.16590000  0.75610000  0.95240000  1
  C  C56  1  0.16770000  0.23940000  0.72400000  1
  C  C57  1  0.16800000  0.51920000  0.49650000  1
  C  C58  1  0.19070000  0.41100000  0.49370000  1
  C  C59  1  0.19460000  0.68920000  0.23460000  1
  C  C60  1  0.21050000  0.13530000  0.74600000  1
  C  C61  1  0.21490000  0.29810000  0.75280000  1
  C  C62  1  0.21860000  0.22630000  0.48620000  1
  C  C63  1  0.23140000  0.86600000  0.01460000  1
  C  C64  1  0.27610000  0.32470000  0.53230000  1
  C  C65  1  0.28430000  0.76310000  0.03190000  1
  C  C66  1  0.30110000  0.67810000  0.75670000  1
  C  C67  1  0.30560000  0.07010000  0.80440000  1
  C  C68  1  0.36020000  0.32770000  0.58000000  1
  C  C69  1  0.36400000  0.93070000  0.54600000  1
  C  C70  1  0.36420000  0.23050000  0.30290000  1
  C  C71  1  0.38350000  0.68020000  0.80590000  1
  C  C72  1  0.41490000  0.12720000  0.32230000  1
  C  C73  1  0.44110000  0.77740000  0.85360000  1
  C  C74  1  0.46350000  0.86800000  0.60070000  1
  C  C75  1  0.46640000  0.59300000  0.84860000  1
  C  C76  1  0.47280000  0.69940000  0.59240000  1
  C  C77  1  0.47980000  0.30790000  0.10260000  1
  C  C78  1  0.48610000  0.23740000  0.37960000  1
  C  C79  1  0.48680000  0.48500000  0.84950000  1
  C  C80  1  0.51320000  0.51500000  0.15050000  1
  C  C81  1  0.51390000  0.76260000  0.62040000  1
  C  C82  1  0.52020000  0.69210000  0.89740000  1
  C  C83  1  0.52720000  0.30060000  0.40760000  1
  C  C84  1  0.53360000  0.40700000  0.15140000  1
  C  C85  1  0.53650000  0.13200000  0.39930000  1
  C  C86  1  0.55890000  0.22260000  0.14640000  1
  C  C87  1  0.58510000  0.87280000  0.67770000  1
  C  C88  1  0.61650000  0.31980000  0.19410000  1
  C  C89  1  0.63580000  0.76950000  0.69710000  1
  C  C90  1  0.63600000  0.06930000  0.45400000  1
  C  C91  1  0.63980000  0.67230000  0.42000000  1
  C  C92  1  0.69440000  0.92990000  0.19560000  1
  C  C93  1  0.69890000  0.32190000  0.24330000  1
  C  C94  1  0.71570000  0.23690000  0.96810000  1
  C  C95  1  0.72390000  0.67530000  0.46770000  1
  C  C96  1  0.76860000  0.13400000  0.98540000  1
  C  C97  1  0.78140000  0.77370000  0.51380000  1
  C  C98  1  0.78510000  0.70190000  0.24720000  1
  C  C99  1  0.78950000  0.86470000  0.25400000  1
  C  C100  1  0.80540000  0.31080000  0.76540000  1
  C  C101  1  0.80930000  0.58900000  0.50630000  1
  C  C102  1  0.83200000  0.48080000  0.50350000  1
  C  C103  1  0.83230000  0.76060000  0.27600000  1
  C  C104  1  0.83410000  0.24390000  0.04760000  1
  C  C105  1  0.84790000  0.51420000  0.81240000  1
  C  C106  1  0.86440000  0.68740000  0.55450000  1
  C  C107  1  0.86450000  0.40710000  0.81200000  1
  C  C108  1  0.86700000  0.30980000  0.08400000  1
  C  C109  1  0.88700000  0.22440000  0.80850000  1
  C  C110  1  0.88770000  0.13840000  0.06550000  1
  C  C111  1  0.91150000  0.86440000  0.33280000  1
  C  C112  1  0.94600000  0.31990000  0.85680000  1
  C  C113  1  0.95670000  0.76030000  0.35310000  1
  C  C114  1  0.97740000  0.67230000  0.09130000  1
  C  C115  1  0.98670000  0.07620000  0.11940000  1
  N  N116  1  0.04450000  0.77140000  0.14590000  1
  N  N117  1  0.08320000  0.29110000  0.67470000  1
  N  N118  1  0.12040000  0.40470000  0.44840000  1
  N  N119  1  0.14580000  0.91630000  0.96560000  1
  N  N120  1  0.17140000  0.08260000  0.71780000  1
  N  N121  1  0.20410000  0.59840000  0.23300000  1
  N  N122  1  0.25220000  0.70750000  0.00070000  1
  N  N123  1  0.28960000  0.23150000  0.52860000  1
  N  N124  1  0.37100000  0.77250000  0.81010000  1
  N  N125  1  0.39930000  0.28590000  0.33090000  1
  N  N126  1  0.46710000  0.39900000  0.10630000  1
  N  N127  1  0.49860000  0.92250000  0.62980000  1
  N  N128  1  0.50140000  0.07750000  0.37020000  1
  N  N129  1  0.53290000  0.60100000  0.89370000  1
  N  N130  1  0.60070000  0.71410000  0.66910000  1
  N  N131  1  0.62900000  0.22750000  0.18990000  1
  N  N132  1  0.71040000  0.76850000  0.47140000  1
  N  N133  1  0.74780000  0.29250000  0.99930000  1
  N  N134  1  0.79590000  0.40160000  0.76700000  1
  N  N135  1  0.82860000  0.91740000  0.28220000  1
  N  N136  1  0.85420000  0.08370000  0.03440000  1
  N  N137  1  0.87960000  0.59530000  0.55160000  1
  N  N138  1  0.91680000  0.70890000  0.32530000  1
  N  N139  1  0.95550000  0.22860000  0.85410000  1
  O  O140  1  0.02960000  0.97100000  0.81160000  1
  O  O141  1  0.03130000  0.40650000  0.89290000  1
  O  O142  1  0.05310000  0.73680000  0.87000000  1
  O  O143  1  0.06990000  0.24990000  0.96470000  1
  O  O144  1  0.07520000  0.07660000  0.08800000  1
  O  O145  1  0.11470000  0.44260000  0.24840000  1
  O  O146  1  0.12930000  0.54740000  0.56670000  1
  O  O147  1  0.18110000  0.57200000  0.43110000  1
  O  O148  1  0.18760000  0.59870000  0.93200000  1
  O  O149  1  0.19080000  0.38650000  0.71080000  1
  O  O150  1  0.21050000  0.44950000  0.12710000  1
  O  O151  1  0.22200000  0.75880000  0.73200000  1
  O  O152  1  0.26930000  0.25730000  0.81490000  1
  O  O153  1  0.27480000  0.96540000  0.58330000  1
  O  O154  1  0.28120000  0.03970000  0.87800000  1
  O  O155  1  0.30640000  0.61530000  0.56440000  1
  O  O156  1  0.31820000  0.59160000  0.74670000  1
  O  O157  1  0.35060000  0.41560000  0.57780000  1
  O  O158  1  0.38100000  0.74510000  0.56250000  1
  O  O159  1  0.38260000  0.94550000  0.46860000  1
  O  O160  1  0.39900000  0.04810000  0.77120000  1
  O  O161  1  0.42480000  0.24910000  0.61930000  1
  O  O162  1  0.44390000  0.44600000  0.90980000  1
  O  O163  1  0.45110000  0.55590000  0.20710000  1
  O  O164  1  0.46850000  0.39290000  0.39730000  1
  O  O165  1  0.53150000  0.60710000  0.60270000  1
  O  O166  1  0.54890000  0.44410000  0.79290000  1
  O  O167  1  0.55610000  0.55400000  0.09020000  1
  O  O168  1  0.57520000  0.75090000  0.38070000  1
  O  O169  1  0.60100000  0.95190000  0.22880000  1
  O  O170  1  0.61740000  0.05450000  0.53140000  1
  O  O171  1  0.61900000  0.25490000  0.43750000  1
  O  O172  1  0.64940000  0.58440000  0.42220000  1
  O  O173  1  0.68180000  0.40840000  0.25330000  1
  O  O174  1  0.69360000  0.38470000  0.43560000  1
  O  O175  1  0.71880000  0.96030000  0.12200000  1
  O  O176  1  0.72520000  0.03460000  0.41670000  1
  O  O177  1  0.73070000  0.74270000  0.18510000  1
  O  O178  1  0.77800000  0.24120000  0.26800000  1
  O  O179  1  0.78950000  0.55050000  0.87290000  1
  O  O180  1  0.80920000  0.61350000  0.28920000  1
  O  O181  1  0.81240000  0.40130000  0.06800000  1
  O  O182  1  0.81890000  0.42800000  0.56890000  1
  O  O183  1  0.87070000  0.45260000  0.43330000  1
  O  O184  1  0.88530000  0.55740000  0.75160000  1
  O  O185  1  0.92480000  0.92340000  0.91200000  1
  O  O186  1  0.93010000  0.75010000  0.03530000  1
  O  O187  1  0.94690000  0.26320000  0.13000000  1
  O  O188  1  0.96870000  0.59350000  0.10710000  1
  O  O189  1  0.97040000  0.02900000  0.18840000  1
