# generated using pymatgen
data_Ce3(C3O4)4
_symmetry_space_group_name_H-M   'P 1'
_cell_length_a   18.57280000
_cell_length_b   18.57280000
_cell_length_c   18.57280000
_cell_angle_alpha   90.00000000
_cell_angle_beta   90.00000000
_cell_angle_gamma   90.00000000
_symmetry_Int_Tables_number   1
_chemical_formula_structural   Ce3(C3O4)4
_chemical_formula_sum   'Ce24 C96 O128'
_cell_volume   6406.66692695
_cell_formula_units_Z   8
loop_
 _symmetry_equiv_pos_site_id
 _symmetry_equiv_pos_as_xyz
  1  'x, y, z'
loop_
 _atom_site_type_symbol
 _atom_site_label
 _atom_site_symmetry_multiplicity
 _atom_site_fract_x
 _atom_site_fract_y
 _atom_site_fract_z
 _atom_site_occupancy
  Ce  Ce0  1  0.10710000  0.24020000  0.25590000  1
  Ce  Ce1  1  0.10710000  0.75980000  0.74410000  1
  Ce  Ce2  1  0.24020000  0.25590000  0.10710000  1
  Ce  Ce3  1  0.24020000  0.74410000  0.89290000  1
  Ce  Ce4  1  0.24410000  0.39290000  0.25980000  1
  Ce  Ce5  1  0.24410000  0.60710000  0.74020000  1
  Ce  Ce6  1  0.25590000  0.10710000  0.24020000  1
  Ce  Ce7  1  0.25590000  0.89290000  0.75980000  1
  Ce  Ce8  1  0.25980000  0.24410000  0.39290000  1
  Ce  Ce9  1  0.25980000  0.75590000  0.60710000  1
  Ce  Ce10  1  0.39290000  0.25980000  0.24410000  1
  Ce  Ce11  1  0.39290000  0.74020000  0.75590000  1
  Ce  Ce12  1  0.60710000  0.25980000  0.75590000  1
  Ce  Ce13  1  0.60710000  0.74020000  0.24410000  1
  Ce  Ce14  1  0.74020000  0.24410000  0.60710000  1
  Ce  Ce15  1  0.74020000  0.75590000  0.39290000  1
  Ce  Ce16  1  0.74410000  0.10710000  0.75980000  1
  Ce  Ce17  1  0.74410000  0.89290000  0.24020000  1
  Ce  Ce18  1  0.75590000  0.39290000  0.74020000  1
  Ce  Ce19  1  0.75590000  0.60710000  0.25980000  1
  Ce  Ce20  1  0.75980000  0.25590000  0.89290000  1
  Ce  Ce21  1  0.75980000  0.74410000  0.10710000  1
  Ce  Ce22  1  0.89290000  0.24020000  0.74410000  1
  Ce  Ce23  1  0.89290000  0.75980000  0.25590000  1
  C  C24  1  0.00000000  0.46300000  0.27400000  1
  C  C25  1  0.00000000  0.46300000  0.72600000  1
  C  C26  1  0.00000000  0.53700000  0.27400000  1
  C  C27  1  0.00000000  0.53700000  0.72600000  1
  C  C28  1  0.00900000  0.23300000  0.96400000  1
  C  C29  1  0.00900000  0.76700000  0.03600000  1
  C  C30  1  0.03600000  0.00900000  0.76700000  1
  C  C31  1  0.03600000  0.99100000  0.23300000  1
  C  C32  1  0.03700000  0.22600000  0.50000000  1
  C  C33  1  0.03700000  0.77400000  0.50000000  1
  C  C34  1  0.05000000  0.24100000  0.08100000  1
  C  C35  1  0.05000000  0.75900000  0.91900000  1
  C  C36  1  0.06400000  0.42600000  0.26900000  1
  C  C37  1  0.06400000  0.57400000  0.73100000  1
  C  C38  1  0.07400000  0.23100000  0.43600000  1
  C  C39  1  0.07400000  0.76900000  0.56400000  1
  C  C40  1  0.08100000  0.05000000  0.24100000  1
  C  C41  1  0.08100000  0.95000000  0.75900000  1
  C  C42  1  0.22600000  0.50000000  0.03700000  1
  C  C43  1  0.22600000  0.50000000  0.96300000  1
  C  C44  1  0.23100000  0.43600000  0.07400000  1
  C  C45  1  0.23100000  0.56400000  0.92600000  1
  C  C46  1  0.23300000  0.03600000  0.99100000  1
  C  C47  1  0.23300000  0.96400000  0.00900000  1
  C  C48  1  0.24100000  0.08100000  0.05000000  1
  C  C49  1  0.24100000  0.91900000  0.95000000  1
  C  C50  1  0.25900000  0.41900000  0.45000000  1
  C  C51  1  0.25900000  0.58100000  0.55000000  1
  C  C52  1  0.26700000  0.46400000  0.50900000  1
  C  C53  1  0.26700000  0.53600000  0.49100000  1
  C  C54  1  0.26900000  0.06400000  0.42600000  1
  C  C55  1  0.26900000  0.93600000  0.57400000  1
  C  C56  1  0.27400000  0.00000000  0.46300000  1
  C  C57  1  0.27400000  0.00000000  0.53700000  1
  C  C58  1  0.41900000  0.45000000  0.25900000  1
  C  C59  1  0.41900000  0.55000000  0.74100000  1
  C  C60  1  0.42600000  0.26900000  0.06400000  1
  C  C61  1  0.42600000  0.73100000  0.93600000  1
  C  C62  1  0.43600000  0.07400000  0.23100000  1
  C  C63  1  0.43600000  0.92600000  0.76900000  1
  C  C64  1  0.45000000  0.25900000  0.41900000  1
  C  C65  1  0.45000000  0.74100000  0.58100000  1
  C  C66  1  0.46300000  0.27400000  0.00000000  1
  C  C67  1  0.46300000  0.72600000  0.00000000  1
  C  C68  1  0.46400000  0.49100000  0.73300000  1
  C  C69  1  0.46400000  0.50900000  0.26700000  1
  C  C70  1  0.49100000  0.26700000  0.53600000  1
  C  C71  1  0.49100000  0.73300000  0.46400000  1
  C  C72  1  0.50000000  0.03700000  0.22600000  1
  C  C73  1  0.50000000  0.03700000  0.77400000  1
  C  C74  1  0.50000000  0.96300000  0.22600000  1
  C  C75  1  0.50000000  0.96300000  0.77400000  1
  C  C76  1  0.50900000  0.26700000  0.46400000  1
  C  C77  1  0.50900000  0.73300000  0.53600000  1
  C  C78  1  0.53600000  0.49100000  0.26700000  1
  C  C79  1  0.53600000  0.50900000  0.73300000  1
  C  C80  1  0.53700000  0.27400000  0.00000000  1
  C  C81  1  0.53700000  0.72600000  0.00000000  1
  C  C82  1  0.55000000  0.25900000  0.58100000  1
  C  C83  1  0.55000000  0.74100000  0.41900000  1
  C  C84  1  0.56400000  0.07400000  0.76900000  1
  C  C85  1  0.56400000  0.92600000  0.23100000  1
  C  C86  1  0.57400000  0.26900000  0.93600000  1
  C  C87  1  0.57400000  0.73100000  0.06400000  1
  C  C88  1  0.58100000  0.45000000  0.74100000  1
  C  C89  1  0.58100000  0.55000000  0.25900000  1
  C  C90  1  0.72600000  0.00000000  0.46300000  1
  C  C91  1  0.72600000  0.00000000  0.53700000  1
  C  C92  1  0.73100000  0.06400000  0.57400000  1
  C  C93  1  0.73100000  0.93600000  0.42600000  1
  C  C94  1  0.73300000  0.46400000  0.49100000  1
  C  C95  1  0.73300000  0.53600000  0.50900000  1
  C  C96  1  0.74100000  0.41900000  0.55000000  1
  C  C97  1  0.74100000  0.58100000  0.45000000  1
  C  C98  1  0.75900000  0.08100000  0.95000000  1
  C  C99  1  0.75900000  0.91900000  0.05000000  1
  C  C100  1  0.76700000  0.03600000  0.00900000  1
  C  C101  1  0.76700000  0.96400000  0.99100000  1
  C  C102  1  0.76900000  0.43600000  0.92600000  1
  C  C103  1  0.76900000  0.56400000  0.07400000  1
  C  C104  1  0.77400000  0.50000000  0.03700000  1
  C  C105  1  0.77400000  0.50000000  0.96300000  1
  C  C106  1  0.91900000  0.05000000  0.75900000  1
  C  C107  1  0.91900000  0.95000000  0.24100000  1
  C  C108  1  0.92600000  0.23100000  0.56400000  1
  C  C109  1  0.92600000  0.76900000  0.43600000  1
  C  C110  1  0.93600000  0.42600000  0.73100000  1
  C  C111  1  0.93600000  0.57400000  0.26900000  1
  C  C112  1  0.95000000  0.24100000  0.91900000  1
  C  C113  1  0.95000000  0.75900000  0.08100000  1
  C  C114  1  0.96300000  0.22600000  0.50000000  1
  C  C115  1  0.96300000  0.77400000  0.50000000  1
  C  C116  1  0.96400000  0.00900000  0.23300000  1
  C  C117  1  0.96400000  0.99100000  0.76700000  1
  C  C118  1  0.99100000  0.23300000  0.03600000  1
  C  C119  1  0.99100000  0.76700000  0.96400000  1
  O  O120  1  0.03040000  0.24300000  0.15100000  1
  O  O121  1  0.03040000  0.75700000  0.84900000  1
  O  O122  1  0.04800000  0.22700000  0.37200000  1
  O  O123  1  0.04800000  0.77300000  0.62800000  1
  O  O124  1  0.05300000  0.35700000  0.25700000  1
  O  O125  1  0.05300000  0.64300000  0.74300000  1
  O  O126  1  0.06550000  0.11700000  0.24800000  1
  O  O127  1  0.06550000  0.88300000  0.75200000  1
  O  O128  1  0.11700000  0.24800000  0.06550000  1
  O  O129  1  0.11700000  0.75200000  0.93450000  1
  O  O130  1  0.12800000  0.45200000  0.27300000  1
  O  O131  1  0.12800000  0.54800000  0.72700000  1
  O  O132  1  0.14300000  0.24300000  0.44700000  1
  O  O133  1  0.14300000  0.75700000  0.55300000  1
  O  O134  1  0.15100000  0.03040000  0.24300000  1
  O  O135  1  0.15100000  0.96960000  0.75700000  1
  O  O136  1  0.16510000  0.16510000  0.16510000  1
  O  O137  1  0.16510000  0.83490000  0.83490000  1
  O  O138  1  0.17750000  0.17750000  0.32250000  1
  O  O139  1  0.17750000  0.32250000  0.17750000  1
  O  O140  1  0.17750000  0.32250000  0.32250000  1
  O  O141  1  0.17750000  0.67750000  0.67750000  1
  O  O142  1  0.17750000  0.67750000  0.82250000  1
  O  O143  1  0.17750000  0.82250000  0.67750000  1
  O  O144  1  0.22700000  0.37200000  0.04800000  1
  O  O145  1  0.22700000  0.62800000  0.95200000  1
  O  O146  1  0.24300000  0.15100000  0.03040000  1
  O  O147  1  0.24300000  0.44700000  0.14300000  1
  O  O148  1  0.24300000  0.55300000  0.85700000  1
  O  O149  1  0.24300000  0.84900000  0.96960000  1
  O  O150  1  0.24800000  0.06550000  0.11700000  1
  O  O151  1  0.24800000  0.93450000  0.88300000  1
  O  O152  1  0.25200000  0.43450000  0.38300000  1
  O  O153  1  0.25200000  0.56550000  0.61700000  1
  O  O154  1  0.25700000  0.05300000  0.35700000  1
  O  O155  1  0.25700000  0.34900000  0.46960000  1
  O  O156  1  0.25700000  0.65100000  0.53040000  1
  O  O157  1  0.25700000  0.94700000  0.64300000  1
  O  O158  1  0.27300000  0.12800000  0.45200000  1
  O  O159  1  0.27300000  0.87200000  0.54800000  1
  O  O160  1  0.32250000  0.17750000  0.17750000  1
  O  O161  1  0.32250000  0.17750000  0.32250000  1
  O  O162  1  0.32250000  0.32250000  0.17750000  1
  O  O163  1  0.32250000  0.67750000  0.82250000  1
  O  O164  1  0.32250000  0.82250000  0.67750000  1
  O  O165  1  0.32250000  0.82250000  0.82250000  1
  O  O166  1  0.33490000  0.33490000  0.33490000  1
  O  O167  1  0.33490000  0.66510000  0.66510000  1
  O  O168  1  0.34900000  0.46960000  0.25700000  1
  O  O169  1  0.34900000  0.53040000  0.74300000  1
  O  O170  1  0.35700000  0.25700000  0.05300000  1
  O  O171  1  0.35700000  0.74300000  0.94700000  1
  O  O172  1  0.37200000  0.04800000  0.22700000  1
  O  O173  1  0.37200000  0.95200000  0.77300000  1
  O  O174  1  0.38300000  0.25200000  0.43450000  1
  O  O175  1  0.38300000  0.74800000  0.56550000  1
  O  O176  1  0.43450000  0.38300000  0.25200000  1
  O  O177  1  0.43450000  0.61700000  0.74800000  1
  O  O178  1  0.44700000  0.14300000  0.24300000  1
  O  O179  1  0.44700000  0.85700000  0.75700000  1
  O  O180  1  0.45200000  0.27300000  0.12800000  1
  O  O181  1  0.45200000  0.72700000  0.87200000  1
  O  O182  1  0.46960000  0.25700000  0.34900000  1
  O  O183  1  0.46960000  0.74300000  0.65100000  1
  O  O184  1  0.53040000  0.25700000  0.65100000  1
  O  O185  1  0.53040000  0.74300000  0.34900000  1
  O  O186  1  0.54800000  0.27300000  0.87200000  1
  O  O187  1  0.54800000  0.72700000  0.12800000  1
  O  O188  1  0.55300000  0.14300000  0.75700000  1
  O  O189  1  0.55300000  0.85700000  0.24300000  1
  O  O190  1  0.56550000  0.38300000  0.74800000  1
  O  O191  1  0.56550000  0.61700000  0.25200000  1
  O  O192  1  0.61700000  0.25200000  0.56550000  1
  O  O193  1  0.61700000  0.74800000  0.43450000  1
  O  O194  1  0.62800000  0.04800000  0.77300000  1
  O  O195  1  0.62800000  0.95200000  0.22700000  1
  O  O196  1  0.64300000  0.25700000  0.94700000  1
  O  O197  1  0.64300000  0.74300000  0.05300000  1
  O  O198  1  0.65100000  0.46960000  0.74300000  1
  O  O199  1  0.65100000  0.53040000  0.25700000  1
  O  O200  1  0.66510000  0.33490000  0.66510000  1
  O  O201  1  0.66510000  0.66510000  0.33490000  1
  O  O202  1  0.67750000  0.17750000  0.67750000  1
  O  O203  1  0.67750000  0.17750000  0.82250000  1
  O  O204  1  0.67750000  0.32250000  0.82250000  1
  O  O205  1  0.67750000  0.67750000  0.17750000  1
  O  O206  1  0.67750000  0.82250000  0.17750000  1
  O  O207  1  0.67750000  0.82250000  0.32250000  1
  O  O208  1  0.72700000  0.12800000  0.54800000  1
  O  O209  1  0.72700000  0.87200000  0.45200000  1
  O  O210  1  0.74300000  0.05300000  0.64300000  1
  O  O211  1  0.74300000  0.34900000  0.53040000  1
  O  O212  1  0.74300000  0.65100000  0.46960000  1
  O  O213  1  0.74300000  0.94700000  0.35700000  1
  O  O214  1  0.74800000  0.43450000  0.61700000  1
  O  O215  1  0.74800000  0.56550000  0.38300000  1
  O  O216  1  0.75200000  0.06550000  0.88300000  1
  O  O217  1  0.75200000  0.93450000  0.11700000  1
  O  O218  1  0.75700000  0.15100000  0.96960000  1
  O  O219  1  0.75700000  0.44700000  0.85700000  1
  O  O220  1  0.75700000  0.55300000  0.14300000  1
  O  O221  1  0.75700000  0.84900000  0.03040000  1
  O  O222  1  0.77300000  0.37200000  0.95200000  1
  O  O223  1  0.77300000  0.62800000  0.04800000  1
  O  O224  1  0.82250000  0.17750000  0.67750000  1
  O  O225  1  0.82250000  0.32250000  0.67750000  1
  O  O226  1  0.82250000  0.32250000  0.82250000  1
  O  O227  1  0.82250000  0.67750000  0.17750000  1
  O  O228  1  0.82250000  0.67750000  0.32250000  1
  O  O229  1  0.82250000  0.82250000  0.32250000  1
  O  O230  1  0.83490000  0.16510000  0.83490000  1
  O  O231  1  0.83490000  0.83490000  0.16510000  1
  O  O232  1  0.84900000  0.03040000  0.75700000  1
  O  O233  1  0.84900000  0.96960000  0.24300000  1
  O  O234  1  0.85700000  0.24300000  0.55300000  1
  O  O235  1  0.85700000  0.75700000  0.44700000  1
  O  O236  1  0.87200000  0.45200000  0.72700000  1
  O  O237  1  0.87200000  0.54800000  0.27300000  1
  O  O238  1  0.88300000  0.24800000  0.93450000  1
  O  O239  1  0.88300000  0.75200000  0.06550000  1
  O  O240  1  0.93450000  0.11700000  0.75200000  1
  O  O241  1  0.93450000  0.88300000  0.24800000  1
  O  O242  1  0.94700000  0.35700000  0.74300000  1
  O  O243  1  0.94700000  0.64300000  0.25700000  1
  O  O244  1  0.95200000  0.22700000  0.62800000  1
  O  O245  1  0.95200000  0.77300000  0.37200000  1
  O  O246  1  0.96960000  0.24300000  0.84900000  1
  O  O247  1  0.96960000  0.75700000  0.15100000  1
