# generated using pymatgen
data_MnCu2H9C12I2N2O5
_symmetry_space_group_name_H-M   'P 1'
_cell_length_a   18.00430000
_cell_length_b   18.15940000
_cell_length_c   21.11640000
_cell_angle_alpha   90.00000000
_cell_angle_beta   90.00000000
_cell_angle_gamma   93.34400000
_symmetry_Int_Tables_number   1
_chemical_formula_structural   MnCu2H9C12I2N2O5
_chemical_formula_sum   'Mn8 Cu16 H72 C96 I16 N16 O40'
_cell_volume   6892.19441487
_cell_formula_units_Z   8
loop_
 _symmetry_equiv_pos_site_id
 _symmetry_equiv_pos_as_xyz
  1  'x, y, z'
loop_
 _atom_site_type_symbol
 _atom_site_label
 _atom_site_symmetry_multiplicity
 _atom_site_fract_x
 _atom_site_fract_y
 _atom_site_fract_z
 _atom_site_occupancy
  Mn  Mn0  1  0.30523000  0.01426000  0.06274000  1
  Mn  Mn1  1  0.30523000  0.51426000  0.43726000  1
  Mn  Mn2  1  0.34604000  0.14740000  0.18503000  1
  Mn  Mn3  1  0.34604000  0.64740000  0.31497000  1
  Mn  Mn4  1  0.65396000  0.35260000  0.68503000  1
  Mn  Mn5  1  0.65396000  0.85260000  0.81497000  1
  Mn  Mn6  1  0.69477000  0.48574000  0.56274000  1
  Mn  Mn7  1  0.69477000  0.98574000  0.93726000  1
  Cu  Cu8  1  0.11982000  0.00949000  0.70922000  1
  Cu  Cu9  1  0.11982000  0.50949000  0.79078000  1
  Cu  Cu10  1  0.20501000  0.09129000  0.63660000  1
  Cu  Cu11  1  0.20501000  0.59129000  0.86340000  1
  Cu  Cu12  1  0.20803000  0.44052000  0.87019000  1
  Cu  Cu13  1  0.20803000  0.94052000  0.62981000  1
  Cu  Cu14  1  0.26868000  0.01199000  0.73000000  1
  Cu  Cu15  1  0.26868000  0.51199000  0.77000000  1
  Cu  Cu16  1  0.73132000  0.48801000  0.23000000  1
  Cu  Cu17  1  0.73132000  0.98801000  0.27000000  1
  Cu  Cu18  1  0.79197000  0.05948000  0.37019000  1
  Cu  Cu19  1  0.79197000  0.55948000  0.12981000  1
  Cu  Cu20  1  0.79499000  0.40871000  0.13660000  1
  Cu  Cu21  1  0.79499000  0.90871000  0.36340000  1
  Cu  Cu22  1  0.88018000  0.49051000  0.20922000  1
  Cu  Cu23  1  0.88018000  0.99051000  0.29078000  1
  H  H24  1  0.01510000  0.08500000  0.30820000  1
  H  H25  1  0.01510000  0.58500000  0.19180000  1
  H  H26  1  0.02660000  0.07130000  0.80800000  1
  H  H27  1  0.02660000  0.57130000  0.69200000  1
  H  H28  1  0.08940000  0.44830000  0.35360000  1
  H  H29  1  0.08940000  0.94830000  0.14640000  1
  H  H30  1  0.13040000  0.10950000  0.26560000  1
  H  H31  1  0.13040000  0.60950000  0.23440000  1
  H  H32  1  0.19480000  0.25540000  0.65730000  1
  H  H33  1  0.19480000  0.75540000  0.84270000  1
  H  H34  1  0.22270000  0.36300000  0.60460000  1
  H  H35  1  0.22270000  0.86300000  0.89540000  1
  H  H36  1  0.22530000  0.27940000  0.85760000  1
  H  H37  1  0.22530000  0.77940000  0.64240000  1
  H  H38  1  0.24290000  0.14150000  0.50890000  1
  H  H39  1  0.24290000  0.64150000  0.99110000  1
  H  H40  1  0.24550000  0.40710000  0.00200000  1
  H  H41  1  0.24550000  0.90710000  0.49800000  1
  H  H42  1  0.26810000  0.18210000  0.91830000  1
  H  H43  1  0.26810000  0.68210000  0.58170000  1
  H  H44  1  0.27750000  0.24710000  0.45480000  1
  H  H45  1  0.27750000  0.74710000  0.04520000  1
  H  H46  1  0.28080000  0.31440000  0.06570000  1
  H  H47  1  0.28080000  0.81440000  0.43430000  1
  H  H48  1  0.29890000  0.28070000  0.20170000  1
  H  H49  1  0.29890000  0.78070000  0.29830000  1
  H  H50  1  0.31870000  0.01300000  0.86790000  1
  H  H51  1  0.31870000  0.51300000  0.63210000  1
  H  H52  1  0.37630000  0.06490000  0.28430000  1
  H  H53  1  0.37630000  0.56490000  0.21570000  1
  H  H54  1  0.42340000  0.00330000  0.92680000  1
  H  H55  1  0.42340000  0.50330000  0.57320000  1
  H  H56  1  0.42450000  0.48490000  0.78570000  1
  H  H57  1  0.42450000  0.98490000  0.71430000  1
  H  H58  1  0.46750000  0.03590000  0.23370000  1
  H  H59  1  0.46750000  0.53590000  0.26630000  1
  H  H60  1  0.53250000  0.46410000  0.73370000  1
  H  H61  1  0.53250000  0.96410000  0.76630000  1
  H  H62  1  0.57550000  0.01510000  0.28570000  1
  H  H63  1  0.57550000  0.51510000  0.21430000  1
  H  H64  1  0.57660000  0.49670000  0.42680000  1
  H  H65  1  0.57660000  0.99670000  0.07320000  1
  H  H66  1  0.62370000  0.43510000  0.78430000  1
  H  H67  1  0.62370000  0.93510000  0.71570000  1
  H  H68  1  0.68130000  0.48700000  0.36790000  1
  H  H69  1  0.68130000  0.98700000  0.13210000  1
  H  H70  1  0.70110000  0.21930000  0.70170000  1
  H  H71  1  0.70110000  0.71930000  0.79830000  1
  H  H72  1  0.71920000  0.18560000  0.56570000  1
  H  H73  1  0.71920000  0.68560000  0.93430000  1
  H  H74  1  0.72250000  0.25290000  0.95480000  1
  H  H75  1  0.72250000  0.75290000  0.54520000  1
  H  H76  1  0.73190000  0.31790000  0.41830000  1
  H  H77  1  0.73190000  0.81790000  0.08170000  1
  H  H78  1  0.75450000  0.09290000  0.50200000  1
  H  H79  1  0.75450000  0.59290000  0.99800000  1
  H  H80  1  0.75710000  0.35850000  0.00890000  1
  H  H81  1  0.75710000  0.85850000  0.49110000  1
  H  H82  1  0.77470000  0.22060000  0.35760000  1
  H  H83  1  0.77470000  0.72060000  0.14240000  1
  H  H84  1  0.77730000  0.13700000  0.10460000  1
  H  H85  1  0.77730000  0.63700000  0.39540000  1
  H  H86  1  0.80520000  0.24460000  0.15730000  1
  H  H87  1  0.80520000  0.74460000  0.34270000  1
  H  H88  1  0.86960000  0.39050000  0.76560000  1
  H  H89  1  0.86960000  0.89050000  0.73440000  1
  H  H90  1  0.91060000  0.05170000  0.85360000  1
  H  H91  1  0.91060000  0.55170000  0.64640000  1
  H  H92  1  0.97340000  0.42870000  0.30800000  1
  H  H93  1  0.97340000  0.92870000  0.19200000  1
  H  H94  1  0.98490000  0.41500000  0.80820000  1
  H  H95  1  0.98490000  0.91500000  0.69180000  1
  C  C96  1  0.00520000  0.46680000  0.29270000  1
  C  C97  1  0.00520000  0.96680000  0.20730000  1
  C  C98  1  0.02910000  0.05670000  0.27390000  1
  C  C99  1  0.02910000  0.55670000  0.22610000  1
  C  C100  1  0.07490000  0.47900000  0.32120000  1
  C  C101  1  0.07490000  0.97900000  0.17880000  1
  C  C102  1  0.09880000  0.07260000  0.24820000  1
  C  C103  1  0.09880000  0.57260000  0.25180000  1
  C  C104  1  0.12030000  0.03480000  0.19840000  1
  C  C105  1  0.12030000  0.53480000  0.30160000  1
  C  C106  1  0.19760000  0.04960000  0.16500000  1
  C  C107  1  0.19760000  0.54960000  0.33500000  1
  C  C108  1  0.21090000  0.25310000  0.61560000  1
  C  C109  1  0.21090000  0.75310000  0.88440000  1
  C  C110  1  0.22850000  0.31840000  0.58410000  1
  C  C111  1  0.22850000  0.81840000  0.91590000  1
  C  C112  1  0.23780000  0.28710000  0.89990000  1
  C  C113  1  0.23780000  0.78710000  0.60010000  1
  C  C114  1  0.23970000  0.18660000  0.52920000  1
  C  C115  1  0.23970000  0.68660000  0.97080000  1
  C  C116  1  0.24880000  0.36050000  0.98430000  1
  C  C117  1  0.24880000  0.86050000  0.51570000  1
  C  C118  1  0.25450000  0.31830000  0.52320000  1
  C  C119  1  0.25450000  0.81830000  0.97680000  1
  C  C120  1  0.26000000  0.25040000  0.49600000  1
  C  C121  1  0.26000000  0.75040000  0.00400000  1
  C  C122  1  0.26210000  0.22780000  0.93690000  1
  C  C123  1  0.26210000  0.72780000  0.56310000  1
  C  C124  1  0.27050000  0.30510000  0.02320000  1
  C  C125  1  0.27050000  0.80510000  0.47680000  1
  C  C126  1  0.27540000  0.38980000  0.48940000  1
  C  C127  1  0.27540000  0.88980000  0.01060000  1
  C  C128  1  0.27650000  0.23790000  0.99920000  1
  C  C129  1  0.27650000  0.73790000  0.50080000  1
  C  C130  1  0.30290000  0.17550000  0.04080000  1
  C  C131  1  0.30290000  0.67550000  0.45920000  1
  C  C132  1  0.36310000  0.00490000  0.84730000  1
  C  C133  1  0.36310000  0.50490000  0.65270000  1
  C  C134  1  0.42420000  0.48720000  0.74170000  1
  C  C135  1  0.42420000  0.98720000  0.75830000  1
  C  C136  1  0.42530000  0.49880000  0.61710000  1
  C  C137  1  0.42530000  0.99880000  0.88290000  1
  C  C138  1  0.43710000  0.02350000  0.11490000  1
  C  C139  1  0.43710000  0.52350000  0.38510000  1
  C  C140  1  0.49030000  0.47670000  0.71170000  1
  C  C141  1  0.49030000  0.97670000  0.78830000  1
  C  C142  1  0.49040000  0.48600000  0.64680000  1
  C  C143  1  0.49040000  0.98600000  0.85320000  1
  C  C144  1  0.50960000  0.01400000  0.14680000  1
  C  C145  1  0.50960000  0.51400000  0.35320000  1
  C  C146  1  0.50970000  0.02330000  0.21170000  1
  C  C147  1  0.50970000  0.52330000  0.28830000  1
  C  C148  1  0.56290000  0.47650000  0.61490000  1
  C  C149  1  0.56290000  0.97650000  0.88510000  1
  C  C150  1  0.57470000  0.00120000  0.11710000  1
  C  C151  1  0.57470000  0.50120000  0.38290000  1
  C  C152  1  0.57580000  0.01280000  0.24170000  1
  C  C153  1  0.57580000  0.51280000  0.25830000  1
  C  C154  1  0.63690000  0.49510000  0.34730000  1
  C  C155  1  0.63690000  0.99510000  0.15270000  1
  C  C156  1  0.69710000  0.32450000  0.54080000  1
  C  C157  1  0.69710000  0.82450000  0.95920000  1
  C  C158  1  0.72350000  0.26210000  0.49920000  1
  C  C159  1  0.72350000  0.76210000  0.00080000  1
  C  C160  1  0.72460000  0.11020000  0.98940000  1
  C  C161  1  0.72460000  0.61020000  0.51060000  1
  C  C162  1  0.72950000  0.19490000  0.52320000  1
  C  C163  1  0.72950000  0.69490000  0.97680000  1
  C  C164  1  0.73790000  0.27220000  0.43690000  1
  C  C165  1  0.73790000  0.77220000  0.06310000  1
  C  C166  1  0.74000000  0.24960000  0.99600000  1
  C  C167  1  0.74000000  0.74960000  0.50400000  1
  C  C168  1  0.74550000  0.18170000  0.02320000  1
  C  C169  1  0.74550000  0.68170000  0.47680000  1
  C  C170  1  0.75120000  0.13950000  0.48430000  1
  C  C171  1  0.75120000  0.63950000  0.01570000  1
  C  C172  1  0.76030000  0.31340000  0.02920000  1
  C  C173  1  0.76030000  0.81340000  0.47080000  1
  C  C174  1  0.76220000  0.21290000  0.39990000  1
  C  C175  1  0.76220000  0.71290000  0.10010000  1
  C  C176  1  0.77150000  0.18160000  0.08410000  1
  C  C177  1  0.77150000  0.68160000  0.41590000  1
  C  C178  1  0.78910000  0.24690000  0.11560000  1
  C  C179  1  0.78910000  0.74690000  0.38440000  1
  C  C180  1  0.80240000  0.45040000  0.66500000  1
  C  C181  1  0.80240000  0.95040000  0.83500000  1
  C  C182  1  0.87970000  0.46520000  0.69840000  1
  C  C183  1  0.87970000  0.96520000  0.80160000  1
  C  C184  1  0.90120000  0.42740000  0.74820000  1
  C  C185  1  0.90120000  0.92740000  0.75180000  1
  C  C186  1  0.92510000  0.02100000  0.82120000  1
  C  C187  1  0.92510000  0.52100000  0.67880000  1
  C  C188  1  0.97090000  0.44330000  0.77390000  1
  C  C189  1  0.97090000  0.94330000  0.72610000  1
  C  C190  1  0.99480000  0.03320000  0.79270000  1
  C  C191  1  0.99480000  0.53320000  0.70730000  1
  I  I192  1  0.09390000  0.00962000  0.58198000  1
  I  I193  1  0.09390000  0.50962000  0.91802000  1
  I  I194  1  0.18462000  0.38534000  0.75483000  1
  I  I195  1  0.18462000  0.88534000  0.74517000  1
  I  I196  1  0.19128000  0.12756000  0.76045000  1
  I  I197  1  0.19128000  0.62756000  0.73955000  1
  I  I198  1  0.33240000  0.02963000  0.61056000  1
  I  I199  1  0.33240000  0.52963000  0.88944000  1
  I  I200  1  0.66760000  0.47037000  0.11056000  1
  I  I201  1  0.66760000  0.97037000  0.38944000  1
  I  I202  1  0.80872000  0.37244000  0.26045000  1
  I  I203  1  0.80872000  0.87244000  0.23955000  1
  I  I204  1  0.81538000  0.11466000  0.25483000  1
  I  I205  1  0.81538000  0.61466000  0.24517000  1
  I  I206  1  0.90610000  0.49038000  0.08198000  1
  I  I207  1  0.90610000  0.99038000  0.41802000  1
  N  N208  1  0.01750000  0.49390000  0.75410000  1
  N  N209  1  0.01750000  0.99390000  0.74590000  1
  N  N210  1  0.21590000  0.18700000  0.58910000  1
  N  N211  1  0.21590000  0.68700000  0.91090000  1
  N  N212  1  0.23280000  0.35270000  0.92510000  1
  N  N213  1  0.23280000  0.85270000  0.57490000  1
  N  N214  1  0.36240000  0.49990000  0.71550000  1
  N  N215  1  0.36240000  0.99990000  0.78450000  1
  N  N216  1  0.63760000  0.00010000  0.21550000  1
  N  N217  1  0.63760000  0.50010000  0.28450000  1
  N  N218  1  0.76720000  0.14730000  0.42510000  1
  N  N219  1  0.76720000  0.64730000  0.07490000  1
  N  N220  1  0.78410000  0.31300000  0.08910000  1
  N  N221  1  0.78410000  0.81300000  0.41090000  1
  N  N222  1  0.98250000  0.00610000  0.25410000  1
  N  N223  1  0.98250000  0.50610000  0.24590000  1
  O  O224  1  0.21030000  0.01690000  0.11620000  1
  O  O225  1  0.21030000  0.51690000  0.38380000  1
  O  O226  1  0.23740000  0.09890000  0.19230000  1
  O  O227  1  0.23740000  0.59890000  0.30770000  1
  O  O228  1  0.27140000  0.44740000  0.51830000  1
  O  O229  1  0.27140000  0.94740000  0.98170000  1
  O  O230  1  0.29520000  0.38630000  0.43250000  1
  O  O231  1  0.29520000  0.88630000  0.06750000  1
  O  O232  1  0.29860000  0.11380000  0.01500000  1
  O  O233  1  0.29860000  0.61380000  0.48500000  1
  O  O234  1  0.30970000  0.25170000  0.22950000  1
  O  O235  1  0.30970000  0.75170000  0.27050000  1
  O  O236  1  0.32440000  0.19290000  0.09400000  1
  O  O237  1  0.32440000  0.69290000  0.40600000  1
  O  O238  1  0.36150000  0.10680000  0.28520000  1
  O  O239  1  0.36150000  0.60680000  0.21480000  1
  O  O240  1  0.38110000  0.04340000  0.14280000  1
  O  O241  1  0.38110000  0.54340000  0.35720000  1
  O  O242  1  0.43170000  0.00150000  0.05760000  1
  O  O243  1  0.43170000  0.50150000  0.44240000  1
  O  O244  1  0.56830000  0.49850000  0.55760000  1
  O  O245  1  0.56830000  0.99850000  0.94240000  1
  O  O246  1  0.61890000  0.45660000  0.64280000  1
  O  O247  1  0.61890000  0.95660000  0.85720000  1
  O  O248  1  0.63850000  0.39320000  0.78520000  1
  O  O249  1  0.63850000  0.89320000  0.71480000  1
  O  O250  1  0.67560000  0.30710000  0.59400000  1
  O  O251  1  0.67560000  0.80710000  0.90600000  1
  O  O252  1  0.69030000  0.24830000  0.72950000  1
  O  O253  1  0.69030000  0.74830000  0.77050000  1
  O  O254  1  0.70140000  0.38620000  0.51500000  1
  O  O255  1  0.70140000  0.88620000  0.98500000  1
  O  O256  1  0.70480000  0.11370000  0.93250000  1
  O  O257  1  0.70480000  0.61370000  0.56750000  1
  O  O258  1  0.72860000  0.05260000  0.01830000  1
  O  O259  1  0.72860000  0.55260000  0.48170000  1
  O  O260  1  0.76260000  0.40110000  0.69230000  1
  O  O261  1  0.76260000  0.90110000  0.80770000  1
  O  O262  1  0.78970000  0.48310000  0.61620000  1
  O  O263  1  0.78970000  0.98310000  0.88380000  1
