# generated using pymatgen
data_Zn3P2H25(C14O5)3
_symmetry_space_group_name_H-M   'P 1'
_cell_length_a   22.90790000
_cell_length_b   22.90790000
_cell_length_c   22.90790000
_cell_angle_alpha   90.00000000
_cell_angle_beta   90.00000000
_cell_angle_gamma   90.00000000
_symmetry_Int_Tables_number   1
_chemical_formula_structural   Zn3P2H25(C14O5)3
_chemical_formula_sum   'Zn24 P16 H200 C336 O120'
_cell_volume   12021.42180506
_cell_formula_units_Z   8
loop_
 _symmetry_equiv_pos_site_id
 _symmetry_equiv_pos_as_xyz
  1  'x, y, z'
loop_
 _atom_site_type_symbol
 _atom_site_label
 _atom_site_symmetry_multiplicity
 _atom_site_fract_x
 _atom_site_fract_y
 _atom_site_fract_z
 _atom_site_occupancy
  Zn  Zn0  1  0.17500000  0.72626000  0.71180000  1
  Zn  Zn1  1  0.17500000  0.77374000  0.21180000  1
  Zn  Zn2  1  0.21180000  0.17500000  0.77374000  1
  Zn  Zn3  1  0.21180000  0.32500000  0.27374000  1
  Zn  Zn4  1  0.22626000  0.71180000  0.32500000  1
  Zn  Zn5  1  0.22626000  0.78820000  0.82500000  1
  Zn  Zn6  1  0.27374000  0.21180000  0.32500000  1
  Zn  Zn7  1  0.27374000  0.28820000  0.82500000  1
  Zn  Zn8  1  0.28820000  0.67500000  0.77374000  1
  Zn  Zn9  1  0.28820000  0.82500000  0.27374000  1
  Zn  Zn10  1  0.32500000  0.22626000  0.71180000  1
  Zn  Zn11  1  0.32500000  0.27374000  0.21180000  1
  Zn  Zn12  1  0.67500000  0.72626000  0.78820000  1
  Zn  Zn13  1  0.67500000  0.77374000  0.28820000  1
  Zn  Zn14  1  0.71180000  0.17500000  0.72626000  1
  Zn  Zn15  1  0.71180000  0.32500000  0.22626000  1
  Zn  Zn16  1  0.72626000  0.71180000  0.17500000  1
  Zn  Zn17  1  0.72626000  0.78820000  0.67500000  1
  Zn  Zn18  1  0.77374000  0.21180000  0.17500000  1
  Zn  Zn19  1  0.77374000  0.28820000  0.67500000  1
  Zn  Zn20  1  0.78820000  0.67500000  0.72626000  1
  Zn  Zn21  1  0.78820000  0.82500000  0.22626000  1
  Zn  Zn22  1  0.82500000  0.22626000  0.78820000  1
  Zn  Zn23  1  0.82500000  0.27374000  0.28820000  1
  P  P24  1  0.14049000  0.64049000  0.85951000  1
  P  P25  1  0.14049000  0.85951000  0.35951000  1
  P  P26  1  0.14817000  0.14817000  0.14817000  1
  P  P27  1  0.14817000  0.35183000  0.64817000  1
  P  P28  1  0.35183000  0.64817000  0.14817000  1
  P  P29  1  0.35183000  0.85183000  0.64817000  1
  P  P30  1  0.35951000  0.14049000  0.85951000  1
  P  P31  1  0.35951000  0.35951000  0.35951000  1
  P  P32  1  0.64049000  0.64049000  0.64049000  1
  P  P33  1  0.64049000  0.85951000  0.14049000  1
  P  P34  1  0.64817000  0.14817000  0.35183000  1
  P  P35  1  0.64817000  0.35183000  0.85183000  1
  P  P36  1  0.85183000  0.64817000  0.35183000  1
  P  P37  1  0.85183000  0.85183000  0.85183000  1
  P  P38  1  0.85951000  0.14049000  0.64049000  1
  P  P39  1  0.85951000  0.35951000  0.14049000  1
  H  H40  1  0.00880000  0.70200000  0.23230000  1
  H  H41  1  0.00880000  0.79800000  0.73230000  1
  H  H42  1  0.02470000  0.15160000  0.76560000  1
  H  H43  1  0.02470000  0.34840000  0.26560000  1
  H  H44  1  0.03540000  0.66060000  0.92820000  1
  H  H45  1  0.03540000  0.83940000  0.42820000  1
  H  H46  1  0.04070000  0.15520000  0.07900000  1
  H  H47  1  0.04070000  0.34480000  0.57900000  1
  H  H48  1  0.05740000  0.66750000  0.39530000  1
  H  H49  1  0.05740000  0.83250000  0.89530000  1
  H  H50  1  0.06400000  0.17430000  0.59720000  1
  H  H51  1  0.06400000  0.32570000  0.09720000  1
  H  H52  1  0.07180000  0.53540000  0.83940000  1
  H  H53  1  0.07180000  0.96460000  0.33940000  1
  H  H54  1  0.07420000  0.64330000  0.75840000  1
  H  H55  1  0.07420000  0.85670000  0.25840000  1
  H  H56  1  0.07900000  0.04070000  0.15520000  1
  H  H57  1  0.07900000  0.45930000  0.65520000  1
  H  H58  1  0.08490000  0.17350000  0.24730000  1
  H  H59  1  0.08490000  0.32650000  0.74730000  1
  H  H60  1  0.09720000  0.06400000  0.32570000  1
  H  H61  1  0.09720000  0.43600000  0.82570000  1
  H  H62  1  0.10470000  0.55740000  0.66750000  1
  H  H63  1  0.10470000  0.94260000  0.16750000  1
  H  H64  1  0.14330000  0.74160000  0.92580000  1
  H  H65  1  0.14330000  0.75840000  0.42580000  1
  H  H66  1  0.15160000  0.73440000  0.52470000  1
  H  H67  1  0.15160000  0.76560000  0.02470000  1
  H  H68  1  0.15520000  0.07900000  0.04070000  1
  H  H69  1  0.15520000  0.42100000  0.54070000  1
  H  H70  1  0.16060000  0.57180000  0.96460000  1
  H  H71  1  0.16060000  0.92820000  0.46460000  1
  H  H72  1  0.16750000  0.10470000  0.94260000  1
  H  H73  1  0.16750000  0.39530000  0.44260000  1
  H  H74  1  0.17350000  0.24730000  0.08490000  1
  H  H75  1  0.17350000  0.25270000  0.58490000  1
  H  H76  1  0.17430000  0.59720000  0.06400000  1
  H  H77  1  0.17430000  0.90280000  0.56400000  1
  H  H78  1  0.20200000  0.23230000  0.49120000  1
  H  H79  1  0.20200000  0.26770000  0.99120000  1
  H  H80  1  0.22620000  0.22620000  0.22620000  1
  H  H81  1  0.22620000  0.27380000  0.72620000  1
  H  H82  1  0.23230000  0.00880000  0.70200000  1
  H  H83  1  0.23230000  0.49120000  0.20200000  1
  H  H84  1  0.23440000  0.52470000  0.34840000  1
  H  H85  1  0.23440000  0.97530000  0.84840000  1
  H  H86  1  0.24160000  0.57420000  0.85670000  1
  H  H87  1  0.24160000  0.92580000  0.35670000  1
  H  H88  1  0.24730000  0.08490000  0.17350000  1
  H  H89  1  0.24730000  0.41510000  0.67350000  1
  H  H90  1  0.25270000  0.58490000  0.17350000  1
  H  H91  1  0.25270000  0.91510000  0.67350000  1
  H  H92  1  0.25840000  0.07420000  0.85670000  1
  H  H93  1  0.25840000  0.42580000  0.35670000  1
  H  H94  1  0.26560000  0.02470000  0.34840000  1
  H  H95  1  0.26560000  0.47530000  0.84840000  1
  H  H96  1  0.26770000  0.50880000  0.70200000  1
  H  H97  1  0.26770000  0.99120000  0.20200000  1
  H  H98  1  0.27380000  0.72620000  0.22620000  1
  H  H99  1  0.27380000  0.77380000  0.72620000  1
  H  H100  1  0.29800000  0.73230000  0.49120000  1
  H  H101  1  0.29800000  0.76770000  0.99120000  1
  H  H102  1  0.32570000  0.09720000  0.06400000  1
  H  H103  1  0.32570000  0.40280000  0.56400000  1
  H  H104  1  0.32650000  0.74730000  0.08490000  1
  H  H105  1  0.32650000  0.75270000  0.58490000  1
  H  H106  1  0.33250000  0.60470000  0.94260000  1
  H  H107  1  0.33250000  0.89530000  0.44260000  1
  H  H108  1  0.33940000  0.07180000  0.96460000  1
  H  H109  1  0.33940000  0.42820000  0.46460000  1
  H  H110  1  0.34480000  0.57900000  0.04070000  1
  H  H111  1  0.34480000  0.92100000  0.54070000  1
  H  H112  1  0.34840000  0.23440000  0.52470000  1
  H  H113  1  0.34840000  0.26560000  0.02470000  1
  H  H114  1  0.35670000  0.24160000  0.92580000  1
  H  H115  1  0.35670000  0.25840000  0.42580000  1
  H  H116  1  0.39530000  0.05740000  0.66750000  1
  H  H117  1  0.39530000  0.44260000  0.16750000  1
  H  H118  1  0.40280000  0.56400000  0.32570000  1
  H  H119  1  0.40280000  0.93600000  0.82570000  1
  H  H120  1  0.41510000  0.67350000  0.24730000  1
  H  H121  1  0.41510000  0.82650000  0.74730000  1
  H  H122  1  0.42100000  0.54070000  0.15520000  1
  H  H123  1  0.42100000  0.95930000  0.65520000  1
  H  H124  1  0.42580000  0.14330000  0.75840000  1
  H  H125  1  0.42580000  0.35670000  0.25840000  1
  H  H126  1  0.42820000  0.03540000  0.83940000  1
  H  H127  1  0.42820000  0.46460000  0.33940000  1
  H  H128  1  0.43600000  0.67430000  0.59720000  1
  H  H129  1  0.43600000  0.82570000  0.09720000  1
  H  H130  1  0.44260000  0.16750000  0.39530000  1
  H  H131  1  0.44260000  0.33250000  0.89530000  1
  H  H132  1  0.45930000  0.65520000  0.07900000  1
  H  H133  1  0.45930000  0.84480000  0.57900000  1
  H  H134  1  0.46460000  0.16060000  0.92820000  1
  H  H135  1  0.46460000  0.33940000  0.42820000  1
  H  H136  1  0.47530000  0.65160000  0.76560000  1
  H  H137  1  0.47530000  0.84840000  0.26560000  1
  H  H138  1  0.49120000  0.20200000  0.23230000  1
  H  H139  1  0.49120000  0.29800000  0.73230000  1
  H  H140  1  0.50880000  0.70200000  0.26770000  1
  H  H141  1  0.50880000  0.79800000  0.76770000  1
  H  H142  1  0.52470000  0.15160000  0.73440000  1
  H  H143  1  0.52470000  0.34840000  0.23440000  1
  H  H144  1  0.53540000  0.66060000  0.57180000  1
  H  H145  1  0.53540000  0.83940000  0.07180000  1
  H  H146  1  0.54070000  0.15520000  0.42100000  1
  H  H147  1  0.54070000  0.34480000  0.92100000  1
  H  H148  1  0.55740000  0.66750000  0.10470000  1
  H  H149  1  0.55740000  0.83250000  0.60470000  1
  H  H150  1  0.56400000  0.17430000  0.90280000  1
  H  H151  1  0.56400000  0.32570000  0.40280000  1
  H  H152  1  0.57180000  0.53540000  0.66060000  1
  H  H153  1  0.57180000  0.96460000  0.16060000  1
  H  H154  1  0.57420000  0.64330000  0.74160000  1
  H  H155  1  0.57420000  0.85670000  0.24160000  1
  H  H156  1  0.57900000  0.04070000  0.34480000  1
  H  H157  1  0.57900000  0.45930000  0.84480000  1
  H  H158  1  0.58490000  0.17350000  0.25270000  1
  H  H159  1  0.58490000  0.32650000  0.75270000  1
  H  H160  1  0.59720000  0.06400000  0.17430000  1
  H  H161  1  0.59720000  0.43600000  0.67430000  1
  H  H162  1  0.60470000  0.55740000  0.83250000  1
  H  H163  1  0.60470000  0.94260000  0.33250000  1
  H  H164  1  0.64330000  0.74160000  0.57420000  1
  H  H165  1  0.64330000  0.75840000  0.07420000  1
  H  H166  1  0.65160000  0.73440000  0.97530000  1
  H  H167  1  0.65160000  0.76560000  0.47530000  1
  H  H168  1  0.65520000  0.07900000  0.45930000  1
  H  H169  1  0.65520000  0.42100000  0.95930000  1
  H  H170  1  0.66060000  0.57180000  0.53540000  1
  H  H171  1  0.66060000  0.92820000  0.03540000  1
  H  H172  1  0.66750000  0.10470000  0.55740000  1
  H  H173  1  0.66750000  0.39530000  0.05740000  1
  H  H174  1  0.67350000  0.24730000  0.41510000  1
  H  H175  1  0.67350000  0.25270000  0.91510000  1
  H  H176  1  0.67430000  0.59720000  0.43600000  1
  H  H177  1  0.67430000  0.90280000  0.93600000  1
  H  H178  1  0.70200000  0.23230000  0.00880000  1
  H  H179  1  0.70200000  0.26770000  0.50880000  1
  H  H180  1  0.72620000  0.22620000  0.27380000  1
  H  H181  1  0.72620000  0.27380000  0.77380000  1
  H  H182  1  0.73230000  0.00880000  0.79800000  1
  H  H183  1  0.73230000  0.49120000  0.29800000  1
  H  H184  1  0.73440000  0.52470000  0.15160000  1
  H  H185  1  0.73440000  0.97530000  0.65160000  1
  H  H186  1  0.74160000  0.57420000  0.64330000  1
  H  H187  1  0.74160000  0.92580000  0.14330000  1
  H  H188  1  0.74730000  0.08490000  0.32650000  1
  H  H189  1  0.74730000  0.41510000  0.82650000  1
  H  H190  1  0.75270000  0.58490000  0.32650000  1
  H  H191  1  0.75270000  0.91510000  0.82650000  1
  H  H192  1  0.75840000  0.07420000  0.64330000  1
  H  H193  1  0.75840000  0.42580000  0.14330000  1
  H  H194  1  0.76560000  0.02470000  0.15160000  1
  H  H195  1  0.76560000  0.47530000  0.65160000  1
  H  H196  1  0.76770000  0.50880000  0.79800000  1
  H  H197  1  0.76770000  0.99120000  0.29800000  1
  H  H198  1  0.77380000  0.72620000  0.27380000  1
  H  H199  1  0.77380000  0.77380000  0.77380000  1
  H  H200  1  0.79800000  0.73230000  0.00880000  1
  H  H201  1  0.79800000  0.76770000  0.50880000  1
  H  H202  1  0.82570000  0.09720000  0.43600000  1
  H  H203  1  0.82570000  0.40280000  0.93600000  1
  H  H204  1  0.82650000  0.74730000  0.41510000  1
  H  H205  1  0.82650000  0.75270000  0.91510000  1
  H  H206  1  0.83250000  0.60470000  0.55740000  1
  H  H207  1  0.83250000  0.89530000  0.05740000  1
  H  H208  1  0.83940000  0.07180000  0.53540000  1
  H  H209  1  0.83940000  0.42820000  0.03540000  1
  H  H210  1  0.84480000  0.57900000  0.45930000  1
  H  H211  1  0.84480000  0.92100000  0.95930000  1
  H  H212  1  0.84840000  0.23440000  0.97530000  1
  H  H213  1  0.84840000  0.26560000  0.47530000  1
  H  H214  1  0.85670000  0.24160000  0.57420000  1
  H  H215  1  0.85670000  0.25840000  0.07420000  1
  H  H216  1  0.89530000  0.05740000  0.83250000  1
  H  H217  1  0.89530000  0.44260000  0.33250000  1
  H  H218  1  0.90280000  0.56400000  0.17430000  1
  H  H219  1  0.90280000  0.93600000  0.67430000  1
  H  H220  1  0.91510000  0.67350000  0.25270000  1
  H  H221  1  0.91510000  0.82650000  0.75270000  1
  H  H222  1  0.92100000  0.54070000  0.34480000  1
  H  H223  1  0.92100000  0.95930000  0.84480000  1
  H  H224  1  0.92580000  0.14330000  0.74160000  1
  H  H225  1  0.92580000  0.35670000  0.24160000  1
  H  H226  1  0.92820000  0.03540000  0.66060000  1
  H  H227  1  0.92820000  0.46460000  0.16060000  1
  H  H228  1  0.93600000  0.67430000  0.90280000  1
  H  H229  1  0.93600000  0.82570000  0.40280000  1
  H  H230  1  0.94260000  0.16750000  0.10470000  1
  H  H231  1  0.94260000  0.33250000  0.60470000  1
  H  H232  1  0.95930000  0.65520000  0.42100000  1
  H  H233  1  0.95930000  0.84480000  0.92100000  1
  H  H234  1  0.96460000  0.16060000  0.57180000  1
  H  H235  1  0.96460000  0.33940000  0.07180000  1
  H  H236  1  0.97530000  0.65160000  0.73440000  1
  H  H237  1  0.97530000  0.84840000  0.23440000  1
  H  H238  1  0.99120000  0.20200000  0.26770000  1
  H  H239  1  0.99120000  0.29800000  0.76770000  1
  C  C240  1  0.00070000  0.19020000  0.22910000  1
  C  C241  1  0.00070000  0.30980000  0.72910000  1
  C  C242  1  0.01270000  0.15510000  0.72600000  1
  C  C243  1  0.01270000  0.34490000  0.22600000  1
  C  C244  1  0.02360000  0.65990000  0.88840000  1
  C  C245  1  0.02360000  0.84010000  0.38840000  1
  C  C246  1  0.02780000  0.67230000  0.36660000  1
  C  C247  1  0.02780000  0.82770000  0.86660000  1
  C  C248  1  0.03000000  0.16220000  0.11840000  1
  C  C249  1  0.03000000  0.33780000  0.61840000  1
  C  C250  1  0.03600000  0.16780000  0.62700000  1
  C  C251  1  0.03600000  0.33220000  0.12700000  1
  C  C252  1  0.04270000  0.68910000  0.31190000  1
  C  C253  1  0.04270000  0.81090000  0.81190000  1
  C  C254  1  0.04620000  0.64910000  0.78840000  1
  C  C255  1  0.04620000  0.85090000  0.28840000  1
  C  C256  1  0.05360000  0.16620000  0.68300000  1
  C  C257  1  0.05360000  0.33380000  0.18300000  1
  C  C258  1  0.05670000  0.17510000  0.21700000  1
  C  C259  1  0.05670000  0.32490000  0.71700000  1
  C  C260  1  0.06380000  0.65140000  0.84520000  1
  C  C261  1  0.06380000  0.84860000  0.34520000  1
  C  C262  1  0.07200000  0.16250000  0.16210000  1
  C  C263  1  0.07200000  0.33750000  0.66210000  1
  C  C264  1  0.10350000  0.70770000  0.29610000  1
  C  C265  1  0.10350000  0.79230000  0.79610000  1
  C  C266  1  0.11160000  0.52360000  0.84010000  1
  C  C267  1  0.11160000  0.97640000  0.34010000  1
  C  C268  1  0.11720000  0.17590000  0.69770000  1
  C  C269  1  0.11720000  0.32410000  0.19770000  1
  C  C270  1  0.11840000  0.03000000  0.16220000  1
  C  C271  1  0.11840000  0.47000000  0.66220000  1
  C  C272  1  0.12700000  0.03600000  0.33220000  1
  C  C273  1  0.12700000  0.46400000  0.83220000  1
  C  C274  1  0.13340000  0.52780000  0.67230000  1
  C  C275  1  0.13340000  0.97220000  0.17230000  1
  C  C276  1  0.14910000  0.71160000  0.95380000  1
  C  C277  1  0.14910000  0.78840000  0.45380000  1
  C  C278  1  0.15140000  0.65480000  0.93620000  1
  C  C279  1  0.15140000  0.84520000  0.43620000  1
  C  C280  1  0.15480000  0.56380000  0.84860000  1
  C  C281  1  0.15480000  0.93620000  0.34860000  1
  C  C282  1  0.15510000  0.72600000  0.01270000  1
  C  C283  1  0.15510000  0.77400000  0.51270000  1
  C  C284  1  0.15990000  0.61160000  0.97640000  1
  C  C285  1  0.15990000  0.88840000  0.47640000  1
  C  C286  1  0.16210000  0.07200000  0.16250000  1
  C  C287  1  0.16210000  0.42800000  0.66250000  1
  C  C288  1  0.16220000  0.11840000  0.03000000  1
  C  C289  1  0.16220000  0.38160000  0.53000000  1
  C  C290  1  0.16250000  0.16210000  0.07200000  1
  C  C291  1  0.16250000  0.33790000  0.57200000  1
  C  C292  1  0.16620000  0.68300000  0.05360000  1
  C  C293  1  0.16620000  0.81700000  0.55360000  1
  C  C294  1  0.16780000  0.62700000  0.03600000  1
  C  C295  1  0.16780000  0.87300000  0.53600000  1
  C  C296  1  0.17230000  0.13340000  0.97220000  1
  C  C297  1  0.17230000  0.36660000  0.47220000  1
  C  C298  1  0.17510000  0.21700000  0.05670000  1
  C  C299  1  0.17510000  0.28300000  0.55670000  1
  C  C300  1  0.17590000  0.69770000  0.11720000  1
  C  C301  1  0.17590000  0.80230000  0.61720000  1
  C  C302  1  0.18300000  0.05360000  0.33380000  1
  C  C303  1  0.18300000  0.44640000  0.83380000  1
  C  C304  1  0.18810000  0.54270000  0.68910000  1
  C  C305  1  0.18810000  0.95730000  0.18910000  1
  C  C306  1  0.18910000  0.18810000  0.95730000  1
  C  C307  1  0.18910000  0.31190000  0.45730000  1
  C  C308  1  0.19020000  0.22910000  0.00070000  1
  C  C309  1  0.19020000  0.27090000  0.50070000  1
  C  C310  1  0.19770000  0.11720000  0.32410000  1
  C  C311  1  0.19770000  0.38280000  0.82410000  1
  C  C312  1  0.20390000  0.60350000  0.70770000  1
  C  C313  1  0.20390000  0.89650000  0.20770000  1
  C  C314  1  0.20770000  0.20390000  0.89650000  1
  C  C315  1  0.20770000  0.29610000  0.39650000  1
  C  C316  1  0.21160000  0.54620000  0.85090000  1
  C  C317  1  0.21160000  0.95380000  0.35090000  1
  C  C318  1  0.21700000  0.05670000  0.17510000  1
  C  C319  1  0.21700000  0.44330000  0.67510000  1
  C  C320  1  0.22600000  0.01270000  0.34490000  1
  C  C321  1  0.22600000  0.48730000  0.84490000  1
  C  C322  1  0.22910000  0.00070000  0.19020000  1
  C  C323  1  0.22910000  0.49930000  0.69020000  1
  C  C324  1  0.27090000  0.50070000  0.19020000  1
  C  C325  1  0.27090000  0.99930000  0.69020000  1
  C  C326  1  0.27400000  0.51270000  0.34490000  1
  C  C327  1  0.27400000  0.98730000  0.84490000  1
  C  C328  1  0.28300000  0.55670000  0.17510000  1
  C  C329  1  0.28300000  0.94330000  0.67510000  1
  C  C330  1  0.28840000  0.04620000  0.85090000  1
  C  C331  1  0.28840000  0.45380000  0.35090000  1
  C  C332  1  0.29230000  0.70390000  0.89650000  1
  C  C333  1  0.29230000  0.79610000  0.39650000  1
  C  C334  1  0.29610000  0.10350000  0.70770000  1
  C  C335  1  0.29610000  0.39650000  0.20770000  1
  C  C336  1  0.30230000  0.61720000  0.32410000  1
  C  C337  1  0.30230000  0.88280000  0.82410000  1
  C  C338  1  0.30980000  0.72910000  0.00070000  1
  C  C339  1  0.30980000  0.77090000  0.50070000  1
  C  C340  1  0.31090000  0.68810000  0.95730000  1
  C  C341  1  0.31090000  0.81190000  0.45730000  1
  C  C342  1  0.31190000  0.04270000  0.68910000  1
  C  C343  1  0.31190000  0.45730000  0.18910000  1
  C  C344  1  0.31700000  0.55360000  0.33380000  1
  C  C345  1  0.31700000  0.94640000  0.83380000  1
  C  C346  1  0.32410000  0.19770000  0.11720000  1
  C  C347  1  0.32410000  0.30230000  0.61720000  1
  C  C348  1  0.32490000  0.71700000  0.05670000  1
  C  C349  1  0.32490000  0.78300000  0.55670000  1
  C  C350  1  0.32770000  0.63340000  0.97220000  1
  C  C351  1  0.32770000  0.86660000  0.47220000  1
  C  C352  1  0.33220000  0.12700000  0.03600000  1
  C  C353  1  0.33220000  0.37300000  0.53600000  1
  C  C354  1  0.33380000  0.18300000  0.05360000  1
  C  C355  1  0.33380000  0.31700000  0.55360000  1
  C  C356  1  0.33750000  0.66210000  0.07200000  1
  C  C357  1  0.33750000  0.83790000  0.57200000  1
  C  C358  1  0.33780000  0.61840000  0.03000000  1
  C  C359  1  0.33780000  0.88160000  0.53000000  1
  C  C360  1  0.33790000  0.57200000  0.16250000  1
  C  C361  1  0.33790000  0.92800000  0.66250000  1
  C  C362  1  0.34010000  0.11160000  0.97640000  1
  C  C363  1  0.34010000  0.38840000  0.47640000  1
  C  C364  1  0.34490000  0.22600000  0.01270000  1
  C  C365  1  0.34490000  0.27400000  0.51270000  1
  C  C366  1  0.34520000  0.06380000  0.84860000  1
  C  C367  1  0.34520000  0.43620000  0.34860000  1
  C  C368  1  0.34860000  0.15480000  0.93620000  1
  C  C369  1  0.34860000  0.34520000  0.43620000  1
  C  C370  1  0.35090000  0.21160000  0.95380000  1
  C  C371  1  0.35090000  0.28840000  0.45380000  1
  C  C372  1  0.36660000  0.02780000  0.67230000  1
  C  C373  1  0.36660000  0.47220000  0.17230000  1
  C  C374  1  0.37300000  0.53600000  0.33220000  1
  C  C375  1  0.37300000  0.96400000  0.83220000  1
  C  C376  1  0.38160000  0.53000000  0.16220000  1
  C  C377  1  0.38160000  0.97000000  0.66220000  1
  C  C378  1  0.38280000  0.67590000  0.69770000  1
  C  C379  1  0.38280000  0.82410000  0.19770000  1
  C  C380  1  0.38840000  0.02360000  0.84010000  1
  C  C381  1  0.38840000  0.47640000  0.34010000  1
  C  C382  1  0.39650000  0.20770000  0.29610000  1
  C  C383  1  0.39650000  0.29230000  0.79610000  1
  C  C384  1  0.42800000  0.66250000  0.16210000  1
  C  C385  1  0.42800000  0.83750000  0.66210000  1
  C  C386  1  0.43620000  0.15140000  0.84520000  1
  C  C387  1  0.43620000  0.34860000  0.34520000  1
  C  C388  1  0.44330000  0.67510000  0.21700000  1
  C  C389  1  0.44330000  0.82490000  0.71700000  1
  C  C390  1  0.44640000  0.66620000  0.68300000  1
  C  C391  1  0.44640000  0.83380000  0.18300000  1
  C  C392  1  0.45380000  0.14910000  0.78840000  1
  C  C393  1  0.45380000  0.35090000  0.28840000  1
  C  C394  1  0.45730000  0.18910000  0.31190000  1
  C  C395  1  0.45730000  0.31090000  0.81190000  1
  C  C396  1  0.46400000  0.66780000  0.62700000  1
  C  C397  1  0.46400000  0.83220000  0.12700000  1
  C  C398  1  0.47000000  0.66220000  0.11840000  1
  C  C399  1  0.47000000  0.83780000  0.61840000  1
  C  C400  1  0.47220000  0.17230000  0.36660000  1
  C  C401  1  0.47220000  0.32770000  0.86660000  1
  C  C402  1  0.47640000  0.15990000  0.88840000  1
  C  C403  1  0.47640000  0.34010000  0.38840000  1
  C  C404  1  0.48730000  0.65510000  0.72600000  1
  C  C405  1  0.48730000  0.84490000  0.22600000  1
  C  C406  1  0.49930000  0.69020000  0.22910000  1
  C  C407  1  0.49930000  0.80980000  0.72910000  1
  C  C408  1  0.50070000  0.19020000  0.27090000  1
  C  C409  1  0.50070000  0.30980000  0.77090000  1
  C  C410  1  0.51270000  0.15510000  0.77400000  1
  C  C411  1  0.51270000  0.34490000  0.27400000  1
  C  C412  1  0.52360000  0.65990000  0.61160000  1
  C  C413  1  0.52360000  0.84010000  0.11160000  1
  C  C414  1  0.52780000  0.67230000  0.13340000  1
  C  C415  1  0.52780000  0.82770000  0.63340000  1
  C  C416  1  0.53000000  0.16220000  0.38160000  1
  C  C417  1  0.53000000  0.33780000  0.88160000  1
  C  C418  1  0.53600000  0.16780000  0.87300000  1
  C  C419  1  0.53600000  0.33220000  0.37300000  1
  C  C420  1  0.54270000  0.68910000  0.18810000  1
  C  C421  1  0.54270000  0.81090000  0.68810000  1
  C  C422  1  0.54620000  0.64910000  0.71160000  1
  C  C423  1  0.54620000  0.85090000  0.21160000  1
  C  C424  1  0.55360000  0.16620000  0.81700000  1
  C  C425  1  0.55360000  0.33380000  0.31700000  1
  C  C426  1  0.55670000  0.17510000  0.28300000  1
  C  C427  1  0.55670000  0.32490000  0.78300000  1
  C  C428  1  0.56380000  0.65140000  0.65480000  1
  C  C429  1  0.56380000  0.84860000  0.15480000  1
  C  C430  1  0.57200000  0.16250000  0.33790000  1
  C  C431  1  0.57200000  0.33750000  0.83790000  1
  C  C432  1  0.60350000  0.70770000  0.20390000  1
  C  C433  1  0.60350000  0.79230000  0.70390000  1
  C  C434  1  0.61160000  0.52360000  0.65990000  1
  C  C435  1  0.61160000  0.97640000  0.15990000  1
  C  C436  1  0.61720000  0.17590000  0.80230000  1
  C  C437  1  0.61720000  0.32410000  0.30230000  1
  C  C438  1  0.61840000  0.03000000  0.33780000  1
  C  C439  1  0.61840000  0.47000000  0.83780000  1
  C  C440  1  0.62700000  0.03600000  0.16780000  1
  C  C441  1  0.62700000  0.46400000  0.66780000  1
  C  C442  1  0.63340000  0.52780000  0.82770000  1
  C  C443  1  0.63340000  0.97220000  0.32770000  1
  C  C444  1  0.64910000  0.71160000  0.54620000  1
  C  C445  1  0.64910000  0.78840000  0.04620000  1
  C  C446  1  0.65140000  0.65480000  0.56380000  1
  C  C447  1  0.65140000  0.84520000  0.06380000  1
  C  C448  1  0.65480000  0.56380000  0.65140000  1
  C  C449  1  0.65480000  0.93620000  0.15140000  1
  C  C450  1  0.65510000  0.72600000  0.48730000  1
  C  C451  1  0.65510000  0.77400000  0.98730000  1
  C  C452  1  0.65990000  0.61160000  0.52360000  1
  C  C453  1  0.65990000  0.88840000  0.02360000  1
  C  C454  1  0.66210000  0.07200000  0.33750000  1
  C  C455  1  0.66210000  0.42800000  0.83750000  1
  C  C456  1  0.66220000  0.11840000  0.47000000  1
  C  C457  1  0.66220000  0.38160000  0.97000000  1
  C  C458  1  0.66250000  0.16210000  0.42800000  1
  C  C459  1  0.66250000  0.33790000  0.92800000  1
  C  C460  1  0.66620000  0.68300000  0.44640000  1
  C  C461  1  0.66620000  0.81700000  0.94640000  1
  C  C462  1  0.66780000  0.62700000  0.46400000  1
  C  C463  1  0.66780000  0.87300000  0.96400000  1
  C  C464  1  0.67230000  0.13340000  0.52780000  1
  C  C465  1  0.67230000  0.36660000  0.02780000  1
  C  C466  1  0.67510000  0.21700000  0.44330000  1
  C  C467  1  0.67510000  0.28300000  0.94330000  1
  C  C468  1  0.67590000  0.69770000  0.38280000  1
  C  C469  1  0.67590000  0.80230000  0.88280000  1
  C  C470  1  0.68300000  0.05360000  0.16620000  1
  C  C471  1  0.68300000  0.44640000  0.66620000  1
  C  C472  1  0.68810000  0.54270000  0.81090000  1
  C  C473  1  0.68810000  0.95730000  0.31090000  1
  C  C474  1  0.68910000  0.18810000  0.54270000  1
  C  C475  1  0.68910000  0.31190000  0.04270000  1
  C  C476  1  0.69020000  0.22910000  0.49930000  1
  C  C477  1  0.69020000  0.27090000  0.99930000  1
  C  C478  1  0.69770000  0.11720000  0.17590000  1
  C  C479  1  0.69770000  0.38280000  0.67590000  1
  C  C480  1  0.70390000  0.60350000  0.79230000  1
  C  C481  1  0.70390000  0.89650000  0.29230000  1
  C  C482  1  0.70770000  0.20390000  0.60350000  1
  C  C483  1  0.70770000  0.29610000  0.10350000  1
  C  C484  1  0.71160000  0.54620000  0.64910000  1
  C  C485  1  0.71160000  0.95380000  0.14910000  1
  C  C486  1  0.71700000  0.05670000  0.32490000  1
  C  C487  1  0.71700000  0.44330000  0.82490000  1
  C  C488  1  0.72600000  0.01270000  0.15510000  1
  C  C489  1  0.72600000  0.48730000  0.65510000  1
  C  C490  1  0.72910000  0.00070000  0.30980000  1
  C  C491  1  0.72910000  0.49930000  0.80980000  1
  C  C492  1  0.77090000  0.50070000  0.30980000  1
  C  C493  1  0.77090000  0.99930000  0.80980000  1
  C  C494  1  0.77400000  0.51270000  0.15510000  1
  C  C495  1  0.77400000  0.98730000  0.65510000  1
  C  C496  1  0.78300000  0.55670000  0.32490000  1
  C  C497  1  0.78300000  0.94330000  0.82490000  1
  C  C498  1  0.78840000  0.04620000  0.64910000  1
  C  C499  1  0.78840000  0.45380000  0.14910000  1
  C  C500  1  0.79230000  0.70390000  0.60350000  1
  C  C501  1  0.79230000  0.79610000  0.10350000  1
  C  C502  1  0.79610000  0.10350000  0.79230000  1
  C  C503  1  0.79610000  0.39650000  0.29230000  1
  C  C504  1  0.80230000  0.61720000  0.17590000  1
  C  C505  1  0.80230000  0.88280000  0.67590000  1
  C  C506  1  0.80980000  0.72910000  0.49930000  1
  C  C507  1  0.80980000  0.77090000  0.99930000  1
  C  C508  1  0.81090000  0.68810000  0.54270000  1
  C  C509  1  0.81090000  0.81190000  0.04270000  1
  C  C510  1  0.81190000  0.04270000  0.81090000  1
  C  C511  1  0.81190000  0.45730000  0.31090000  1
  C  C512  1  0.81700000  0.55360000  0.16620000  1
  C  C513  1  0.81700000  0.94640000  0.66620000  1
  C  C514  1  0.82410000  0.19770000  0.38280000  1
  C  C515  1  0.82410000  0.30230000  0.88280000  1
  C  C516  1  0.82490000  0.71700000  0.44330000  1
  C  C517  1  0.82490000  0.78300000  0.94330000  1
  C  C518  1  0.82770000  0.63340000  0.52780000  1
  C  C519  1  0.82770000  0.86660000  0.02780000  1
  C  C520  1  0.83220000  0.12700000  0.46400000  1
  C  C521  1  0.83220000  0.37300000  0.96400000  1
  C  C522  1  0.83380000  0.18300000  0.44640000  1
  C  C523  1  0.83380000  0.31700000  0.94640000  1
  C  C524  1  0.83750000  0.66210000  0.42800000  1
  C  C525  1  0.83750000  0.83790000  0.92800000  1
  C  C526  1  0.83780000  0.61840000  0.47000000  1
  C  C527  1  0.83780000  0.88160000  0.97000000  1
  C  C528  1  0.83790000  0.57200000  0.33750000  1
  C  C529  1  0.83790000  0.92800000  0.83750000  1
  C  C530  1  0.84010000  0.11160000  0.52360000  1
  C  C531  1  0.84010000  0.38840000  0.02360000  1
  C  C532  1  0.84490000  0.22600000  0.48730000  1
  C  C533  1  0.84490000  0.27400000  0.98730000  1
  C  C534  1  0.84520000  0.06380000  0.65140000  1
  C  C535  1  0.84520000  0.43620000  0.15140000  1
  C  C536  1  0.84860000  0.15480000  0.56380000  1
  C  C537  1  0.84860000  0.34520000  0.06380000  1
  C  C538  1  0.85090000  0.21160000  0.54620000  1
  C  C539  1  0.85090000  0.28840000  0.04620000  1
  C  C540  1  0.86660000  0.02780000  0.82770000  1
  C  C541  1  0.86660000  0.47220000  0.32770000  1
  C  C542  1  0.87300000  0.53600000  0.16780000  1
  C  C543  1  0.87300000  0.96400000  0.66780000  1
  C  C544  1  0.88160000  0.53000000  0.33780000  1
  C  C545  1  0.88160000  0.97000000  0.83780000  1
  C  C546  1  0.88280000  0.67590000  0.80230000  1
  C  C547  1  0.88280000  0.82410000  0.30230000  1
  C  C548  1  0.88840000  0.02360000  0.65990000  1
  C  C549  1  0.88840000  0.47640000  0.15990000  1
  C  C550  1  0.89650000  0.20770000  0.20390000  1
  C  C551  1  0.89650000  0.29230000  0.70390000  1
  C  C552  1  0.92800000  0.66250000  0.33790000  1
  C  C553  1  0.92800000  0.83750000  0.83790000  1
  C  C554  1  0.93620000  0.15140000  0.65480000  1
  C  C555  1  0.93620000  0.34860000  0.15480000  1
  C  C556  1  0.94330000  0.67510000  0.28300000  1
  C  C557  1  0.94330000  0.82490000  0.78300000  1
  C  C558  1  0.94640000  0.66620000  0.81700000  1
  C  C559  1  0.94640000  0.83380000  0.31700000  1
  C  C560  1  0.95380000  0.14910000  0.71160000  1
  C  C561  1  0.95380000  0.35090000  0.21160000  1
  C  C562  1  0.95730000  0.18910000  0.18810000  1
  C  C563  1  0.95730000  0.31090000  0.68810000  1
  C  C564  1  0.96400000  0.66780000  0.87300000  1
  C  C565  1  0.96400000  0.83220000  0.37300000  1
  C  C566  1  0.97000000  0.66220000  0.38160000  1
  C  C567  1  0.97000000  0.83780000  0.88160000  1
  C  C568  1  0.97220000  0.17230000  0.13340000  1
  C  C569  1  0.97220000  0.32770000  0.63340000  1
  C  C570  1  0.97640000  0.15990000  0.61160000  1
  C  C571  1  0.97640000  0.34010000  0.11160000  1
  C  C572  1  0.98730000  0.65510000  0.77400000  1
  C  C573  1  0.98730000  0.84490000  0.27400000  1
  C  C574  1  0.99930000  0.69020000  0.27090000  1
  C  C575  1  0.99930000  0.80980000  0.77090000  1
  O  O576  1  0.10890000  0.73440000  0.24710000  1
  O  O577  1  0.10890000  0.76560000  0.74710000  1
  O  O578  1  0.13040000  0.17410000  0.75190000  1
  O  O579  1  0.13040000  0.32590000  0.25190000  1
  O  O580  1  0.14310000  0.69790000  0.33410000  1
  O  O581  1  0.14310000  0.80210000  0.83410000  1
  O  O582  1  0.15340000  0.17890000  0.66020000  1
  O  O583  1  0.15340000  0.32110000  0.16020000  1
  O  O584  1  0.16020000  0.15340000  0.32110000  1
  O  O585  1  0.16020000  0.34660000  0.82110000  1
  O  O586  1  0.16590000  0.64310000  0.69790000  1
  O  O587  1  0.16590000  0.85690000  0.19790000  1
  O  O588  1  0.17410000  0.74810000  0.63040000  1
  O  O589  1  0.17410000  0.75190000  0.13040000  1
  O  O590  1  0.17810000  0.67810000  0.82190000  1
  O  O591  1  0.17810000  0.82190000  0.32190000  1
  O  O592  1  0.17890000  0.66020000  0.15340000  1
  O  O593  1  0.17890000  0.83980000  0.65340000  1
  O  O594  1  0.18660000  0.18660000  0.18660000  1
  O  O595  1  0.18660000  0.31340000  0.68660000  1
  O  O596  1  0.19790000  0.16590000  0.85690000  1
  O  O597  1  0.19790000  0.33410000  0.35690000  1
  O  O598  1  0.23440000  0.24710000  0.39110000  1
  O  O599  1  0.23440000  0.25290000  0.89110000  1
  O  O600  1  0.24710000  0.10890000  0.73440000  1
  O  O601  1  0.24710000  0.39110000  0.23440000  1
  O  O602  1  0.24810000  0.63040000  0.32590000  1
  O  O603  1  0.24810000  0.86960000  0.82590000  1
  O  O604  1  0.24860000  0.74860000  0.75140000  1
  O  O605  1  0.24860000  0.75140000  0.25140000  1
  O  O606  1  0.25140000  0.24860000  0.75140000  1
  O  O607  1  0.25140000  0.25140000  0.25140000  1
  O  O608  1  0.25190000  0.13040000  0.32590000  1
  O  O609  1  0.25190000  0.36960000  0.82590000  1
  O  O610  1  0.25290000  0.60890000  0.73440000  1
  O  O611  1  0.25290000  0.89110000  0.23440000  1
  O  O612  1  0.26560000  0.74710000  0.39110000  1
  O  O613  1  0.26560000  0.75290000  0.89110000  1
  O  O614  1  0.30210000  0.66590000  0.85690000  1
  O  O615  1  0.30210000  0.83410000  0.35690000  1
  O  O616  1  0.31340000  0.68660000  0.18660000  1
  O  O617  1  0.31340000  0.81340000  0.68660000  1
  O  O618  1  0.32110000  0.16020000  0.15340000  1
  O  O619  1  0.32110000  0.33980000  0.65340000  1
  O  O620  1  0.32190000  0.17810000  0.82190000  1
  O  O621  1  0.32190000  0.32190000  0.32190000  1
  O  O622  1  0.32590000  0.24810000  0.63040000  1
  O  O623  1  0.32590000  0.25190000  0.13040000  1
  O  O624  1  0.33410000  0.14310000  0.69790000  1
  O  O625  1  0.33410000  0.35690000  0.19790000  1
  O  O626  1  0.33980000  0.65340000  0.32110000  1
  O  O627  1  0.33980000  0.84660000  0.82110000  1
  O  O628  1  0.34660000  0.67890000  0.66020000  1
  O  O629  1  0.34660000  0.82110000  0.16020000  1
  O  O630  1  0.35690000  0.19790000  0.33410000  1
  O  O631  1  0.35690000  0.30210000  0.83410000  1
  O  O632  1  0.36960000  0.67410000  0.75190000  1
  O  O633  1  0.36960000  0.82590000  0.25190000  1
  O  O634  1  0.39110000  0.23440000  0.24710000  1
  O  O635  1  0.39110000  0.26560000  0.74710000  1
  O  O636  1  0.60890000  0.73440000  0.25290000  1
  O  O637  1  0.60890000  0.76560000  0.75290000  1
  O  O638  1  0.63040000  0.17410000  0.74810000  1
  O  O639  1  0.63040000  0.32590000  0.24810000  1
  O  O640  1  0.64310000  0.69790000  0.16590000  1
  O  O641  1  0.64310000  0.80210000  0.66590000  1
  O  O642  1  0.65340000  0.17890000  0.83980000  1
  O  O643  1  0.65340000  0.32110000  0.33980000  1
  O  O644  1  0.66020000  0.15340000  0.17890000  1
  O  O645  1  0.66020000  0.34660000  0.67890000  1
  O  O646  1  0.66590000  0.64310000  0.80210000  1
  O  O647  1  0.66590000  0.85690000  0.30210000  1
  O  O648  1  0.67410000  0.74810000  0.86960000  1
  O  O649  1  0.67410000  0.75190000  0.36960000  1
  O  O650  1  0.67810000  0.67810000  0.67810000  1
  O  O651  1  0.67810000  0.82190000  0.17810000  1
  O  O652  1  0.67890000  0.66020000  0.34660000  1
  O  O653  1  0.67890000  0.83980000  0.84660000  1
  O  O654  1  0.68660000  0.18660000  0.31340000  1
  O  O655  1  0.68660000  0.31340000  0.81340000  1
  O  O656  1  0.69790000  0.16590000  0.64310000  1
  O  O657  1  0.69790000  0.33410000  0.14310000  1
  O  O658  1  0.73440000  0.24710000  0.10890000  1
  O  O659  1  0.73440000  0.25290000  0.60890000  1
  O  O660  1  0.74710000  0.10890000  0.76560000  1
  O  O661  1  0.74710000  0.39110000  0.26560000  1
  O  O662  1  0.74810000  0.63040000  0.17410000  1
  O  O663  1  0.74810000  0.86960000  0.67410000  1
  O  O664  1  0.74860000  0.74860000  0.74860000  1
  O  O665  1  0.74860000  0.75140000  0.24860000  1
  O  O666  1  0.75140000  0.24860000  0.74860000  1
  O  O667  1  0.75140000  0.25140000  0.24860000  1
  O  O668  1  0.75190000  0.13040000  0.17410000  1
  O  O669  1  0.75190000  0.36960000  0.67410000  1
  O  O670  1  0.75290000  0.60890000  0.76560000  1
  O  O671  1  0.75290000  0.89110000  0.26560000  1
  O  O672  1  0.76560000  0.74710000  0.10890000  1
  O  O673  1  0.76560000  0.75290000  0.60890000  1
  O  O674  1  0.80210000  0.66590000  0.64310000  1
  O  O675  1  0.80210000  0.83410000  0.14310000  1
  O  O676  1  0.81340000  0.68660000  0.31340000  1
  O  O677  1  0.81340000  0.81340000  0.81340000  1
  O  O678  1  0.82110000  0.16020000  0.34660000  1
  O  O679  1  0.82110000  0.33980000  0.84660000  1
  O  O680  1  0.82190000  0.17810000  0.67810000  1
  O  O681  1  0.82190000  0.32190000  0.17810000  1
  O  O682  1  0.82590000  0.24810000  0.86960000  1
  O  O683  1  0.82590000  0.25190000  0.36960000  1
  O  O684  1  0.83410000  0.14310000  0.80210000  1
  O  O685  1  0.83410000  0.35690000  0.30210000  1
  O  O686  1  0.83980000  0.65340000  0.17890000  1
  O  O687  1  0.83980000  0.84660000  0.67890000  1
  O  O688  1  0.84660000  0.67890000  0.83980000  1
  O  O689  1  0.84660000  0.82110000  0.33980000  1
  O  O690  1  0.85690000  0.19790000  0.16590000  1
  O  O691  1  0.85690000  0.30210000  0.66590000  1
  O  O692  1  0.86960000  0.67410000  0.74810000  1
  O  O693  1  0.86960000  0.82590000  0.24810000  1
  O  O694  1  0.89110000  0.23440000  0.25290000  1
  O  O695  1  0.89110000  0.26560000  0.75290000  1
