# generated using pymatgen
data_TbH14C24(NO3)2
_symmetry_space_group_name_H-M   'P 1'
_cell_length_a   12.60800000
_cell_length_b   14.21450000
_cell_length_c   14.89800000
_cell_angle_alpha   69.32100000
_cell_angle_beta   67.50300000
_cell_angle_gamma   78.32900000
_symmetry_Int_Tables_number   1
_chemical_formula_structural   TbH14C24(NO3)2
_chemical_formula_sum   'Tb4 H56 C96 N8 O24'
_cell_volume   2300.87560147
_cell_formula_units_Z   4
loop_
 _symmetry_equiv_pos_site_id
 _symmetry_equiv_pos_as_xyz
  1  'x, y, z'
loop_
 _atom_site_type_symbol
 _atom_site_label
 _atom_site_symmetry_multiplicity
 _atom_site_fract_x
 _atom_site_fract_y
 _atom_site_fract_z
 _atom_site_occupancy
  Tb  Tb0  1  0.05119000  0.05389000  0.09337000  1
  Tb  Tb1  1  0.43554000  0.48139000  0.40405000  1
  Tb  Tb2  1  0.56446000  0.51861000  0.59595000  1
  Tb  Tb3  1  0.94881000  0.94611000  0.90663000  1
  H  H4  1  0.02780000  0.93530000  0.56090000  1
  H  H5  1  0.02990000  0.18850000  0.67930000  1
  H  H6  1  0.03320000  0.33180000  0.71450000  1
  H  H7  1  0.05850000  0.30680000  0.96540000  1
  H  H8  1  0.10480000  0.87210000  0.42280000  1
  H  H9  1  0.12460000  0.07680000  0.56360000  1
  H  H10  1  0.16860000  0.72030000  0.95230000  1
  H  H11  1  0.17390000  0.44110000  0.87610000  1
  H  H12  1  0.18100000  0.43640000  0.61250000  1
  H  H13  1  0.19560000  0.70830000  0.21650000  1
  H  H14  1  0.20200000  0.71070000  0.71470000  1
  H  H15  1  0.22360000  0.72520000  0.43460000  1
  H  H16  1  0.23670000  0.88350000  0.21220000  1
  H  H17  1  0.26330000  0.04720000  0.42740000  1
  H  H18  1  0.29710000  0.57820000  0.94700000  1
  H  H19  1  0.30950000  0.21040000  0.80250000  1
  H  H20  1  0.32390000  0.99130000  0.68550000  1
  H  H21  1  0.35620000  0.42260000  0.87680000  1
  H  H22  1  0.37750000  0.50330000  0.07560000  1
  H  H23  1  0.40470000  0.79460000  0.80630000  1
  H  H24  1  0.40730000  0.66410000  0.74750000  1
  H  H25  1  0.41830000  0.85590000  0.22150000  1
  H  H26  1  0.42310000  0.83720000  0.97070000  1
  H  H27  1  0.45030000  0.09650000  0.28050000  1
  H  H28  1  0.45480000  0.02270000  0.86450000  1
  H  H29  1  0.45680000  0.79080000  0.47120000  1
  H  H30  1  0.48580000  0.68770000  0.05820000  1
  H  H31  1  0.48810000  0.05340000  0.55200000  1
  H  H32  1  0.51190000  0.94660000  0.44800000  1
  H  H33  1  0.51420000  0.31230000  0.94180000  1
  H  H34  1  0.54320000  0.20920000  0.52880000  1
  H  H35  1  0.54520000  0.97730000  0.13550000  1
  H  H36  1  0.54970000  0.90350000  0.71950000  1
  H  H37  1  0.57690000  0.16280000  0.02930000  1
  H  H38  1  0.58170000  0.14410000  0.77850000  1
  H  H39  1  0.59270000  0.33590000  0.25250000  1
  H  H40  1  0.59530000  0.20540000  0.19370000  1
  H  H41  1  0.62250000  0.49670000  0.92440000  1
  H  H42  1  0.64380000  0.57740000  0.12320000  1
  H  H43  1  0.67610000  0.00870000  0.31450000  1
  H  H44  1  0.69050000  0.78960000  0.19750000  1
  H  H45  1  0.70290000  0.42180000  0.05300000  1
  H  H46  1  0.73670000  0.95280000  0.57260000  1
  H  H47  1  0.76330000  0.11650000  0.78780000  1
  H  H48  1  0.77640000  0.27480000  0.56540000  1
  H  H49  1  0.79800000  0.28930000  0.28530000  1
  H  H50  1  0.80440000  0.29170000  0.78350000  1
  H  H51  1  0.81900000  0.56360000  0.38750000  1
  H  H52  1  0.82610000  0.55890000  0.12390000  1
  H  H53  1  0.83140000  0.27970000  0.04770000  1
  H  H54  1  0.87540000  0.92320000  0.43640000  1
  H  H55  1  0.89520000  0.12790000  0.57720000  1
  H  H56  1  0.94150000  0.69320000  0.03460000  1
  H  H57  1  0.96680000  0.66820000  0.28550000  1
  H  H58  1  0.97010000  0.81150000  0.32070000  1
  H  H59  1  0.97220000  0.06470000  0.43910000  1
  C  C60  1  0.05260000  0.86890000  0.74120000  1
  C  C61  1  0.07760000  0.87720000  0.56430000  1
  C  C62  1  0.08890000  0.23110000  0.63880000  1
  C  C63  1  0.09080000  0.31540000  0.65950000  1
  C  C64  1  0.09800000  0.82680000  0.08190000  1
  C  C65  1  0.10650000  0.82830000  0.65240000  1
  C  C66  1  0.12290000  0.83910000  0.48180000  1
  C  C67  1  0.13300000  0.29820000  0.96680000  1
  C  C68  1  0.17260000  0.73030000  0.08270000  1
  C  C69  1  0.17740000  0.20810000  0.55490000  1
  C  C70  1  0.18100000  0.37860000  0.59680000  1
  C  C71  1  0.18120000  0.74220000  0.65680000  1
  C  C72  1  0.18200000  0.12140000  0.52540000  1
  C  C73  1  0.19490000  0.75170000  0.48890000  1
  C  C74  1  0.20040000  0.04700000  0.84900000  1
  C  C75  1  0.20090000  0.69020000  0.00350000  1
  C  C76  1  0.20240000  0.38010000  0.91230000  1
  C  C77  1  0.21740000  0.68280000  0.16190000  1
  C  C78  1  0.22570000  0.70210000  0.57590000  1
  C  C79  1  0.26500000  0.10290000  0.44560000  1
  C  C80  1  0.26540000  0.27550000  0.49710000  1
  C  C81  1  0.27750000  0.60490000  0.00050000  1
  C  C82  1  0.27830000  0.19760000  0.02150000  1
  C  C83  1  0.28540000  0.93570000  0.17800000  1
  C  C84  1  0.29390000  0.59830000  0.15940000  1
  C  C85  1  0.30020000  0.09380000  0.75810000  1
  C  C86  1  0.30410000  0.60710000  0.58000000  1
  C  C87  1  0.30940000  0.36910000  0.91340000  1
  C  C88  1  0.31850000  0.10240000  0.07710000  1
  C  C89  1  0.32510000  0.55950000  0.07820000  1
  C  C90  1  0.34100000  0.18180000  0.74960000  1
  C  C91  1  0.34570000  0.55240000  0.24220000  1
  C  C92  1  0.35250000  0.27670000  0.96970000  1
  C  C93  1  0.35270000  0.04850000  0.68150000  1
  C  C94  1  0.35850000  0.25320000  0.41310000  1
  C  C95  1  0.35870000  0.16740000  0.38590000  1
  C  C96  1  0.39570000  0.91870000  0.18320000  1
  C  C97  1  0.42920000  0.22690000  0.66160000  1
  C  C98  1  0.43120000  0.08680000  0.08140000  1
  C  C99  1  0.44790000  0.08820000  0.59920000  1
  C  C100  1  0.44860000  0.15090000  0.30200000  1
  C  C101  1  0.46490000  0.78500000  0.74910000  1
  C  C102  1  0.46560000  0.26010000  0.97520000  1
  C  C103  1  0.46580000  0.32840000  0.64470000  1
  C  C104  1  0.46830000  0.70520000  0.71420000  1
  C  C105  1  0.47030000  0.99040000  0.13450000  1
  C  C106  1  0.48340000  0.17980000  0.58690000  1
  C  C107  1  0.49740000  0.82880000  0.97260000  1
  C  C108  1  0.50260000  0.17120000  0.02740000  1
  C  C109  1  0.51660000  0.82020000  0.41310000  1
  C  C110  1  0.52970000  0.00960000  0.86550000  1
  C  C111  1  0.53170000  0.29480000  0.28580000  1
  C  C112  1  0.53420000  0.67160000  0.35530000  1
  C  C113  1  0.53440000  0.73990000  0.02480000  1
  C  C114  1  0.53510000  0.21500000  0.25090000  1
  C  C115  1  0.55140000  0.84910000  0.69800000  1
  C  C116  1  0.55210000  0.91180000  0.40080000  1
  C  C117  1  0.56880000  0.91320000  0.91860000  1
  C  C118  1  0.57080000  0.77310000  0.33840000  1
  C  C119  1  0.60430000  0.08130000  0.81680000  1
  C  C120  1  0.64130000  0.83260000  0.61410000  1
  C  C121  1  0.64150000  0.74680000  0.58690000  1
  C  C122  1  0.64730000  0.95150000  0.31850000  1
  C  C123  1  0.64750000  0.72330000  0.03030000  1
  C  C124  1  0.65430000  0.44760000  0.75780000  1
  C  C125  1  0.65900000  0.81820000  0.25040000  1
  C  C126  1  0.67490000  0.44050000  0.92180000  1
  C  C127  1  0.68150000  0.89760000  0.92290000  1
  C  C128  1  0.69060000  0.63090000  0.08660000  1
  C  C129  1  0.69590000  0.39290000  0.42000000  1
  C  C130  1  0.69980000  0.90620000  0.24190000  1
  C  C131  1  0.70610000  0.40170000  0.84060000  1
  C  C132  1  0.71460000  0.06430000  0.82200000  1
  C  C133  1  0.72170000  0.80240000  0.97850000  1
  C  C134  1  0.72250000  0.39510000  0.99950000  1
  C  C135  1  0.73460000  0.72450000  0.50290000  1
  C  C136  1  0.73500000  0.89710000  0.55440000  1
  C  C137  1  0.77430000  0.29790000  0.42410000  1
  C  C138  1  0.78260000  0.31720000  0.83810000  1
  C  C139  1  0.79760000  0.61990000  0.08770000  1
  C  C140  1  0.79910000  0.30980000  0.99650000  1
  C  C141  1  0.79960000  0.95300000  0.15100000  1
  C  C142  1  0.80510000  0.24830000  0.51110000  1
  C  C143  1  0.81800000  0.87860000  0.47460000  1
  C  C144  1  0.81880000  0.25780000  0.34320000  1
  C  C145  1  0.81900000  0.62140000  0.40320000  1
  C  C146  1  0.82260000  0.79190000  0.44510000  1
  C  C147  1  0.82740000  0.26970000  0.91730000  1
  C  C148  1  0.86700000  0.70180000  0.03320000  1
  C  C149  1  0.87710000  0.16090000  0.51820000  1
  C  C150  1  0.89350000  0.17170000  0.34760000  1
  C  C151  1  0.90200000  0.17320000  0.91810000  1
  C  C152  1  0.90920000  0.68460000  0.34050000  1
  C  C153  1  0.91110000  0.76890000  0.36120000  1
  C  C154  1  0.92240000  0.12280000  0.43570000  1
  C  C155  1  0.94740000  0.13110000  0.25880000  1
  N  N156  1  0.16890000  0.20850000  0.02060000  1
  N  N157  1  0.24710000  0.02440000  0.12550000  1
  N  N158  1  0.26480000  0.36130000  0.51810000  1
  N  N159  1  0.44590000  0.31520000  0.36410000  1
  N  N160  1  0.55410000  0.68480000  0.63590000  1
  N  N161  1  0.73520000  0.63870000  0.48190000  1
  N  N162  1  0.75290000  0.97560000  0.87450000  1
  N  N163  1  0.83110000  0.79150000  0.97940000  1
  O  O164  1  0.00850000  0.04900000  0.26820000  1
  O  O165  1  0.03680000  0.85540000  0.02520000  1
  O  O166  1  0.07090000  0.82040000  0.82380000  1
  O  O167  1  0.10080000  0.87590000  0.13570000  1
  O  O168  1  0.13000000  0.01200000  0.83170000  1
  O  O169  1  0.19600000  0.04720000  0.93510000  1
  O  O170  1  0.28750000  0.55970000  0.32960000  1
  O  O171  1  0.30820000  0.56230000  0.51920000  1
  O  O172  1  0.36390000  0.58180000  0.63730000  1
  O  O173  1  0.44470000  0.50870000  0.22300000  1
  O  O174  1  0.46940000  0.39560000  0.55940000  1
  O  O175  1  0.49300000  0.34550000  0.70900000  1
  O  O176  1  0.50700000  0.65450000  0.29100000  1
  O  O177  1  0.53060000  0.60440000  0.44060000  1
  O  O178  1  0.55530000  0.49130000  0.77700000  1
  O  O179  1  0.63610000  0.41820000  0.36270000  1
  O  O180  1  0.69180000  0.43770000  0.48080000  1
  O  O181  1  0.71250000  0.44030000  0.67040000  1
  O  O182  1  0.80400000  0.95280000  0.06490000  1
  O  O183  1  0.87000000  0.98800000  0.16830000  1
  O  O184  1  0.89920000  0.12410000  0.86430000  1
  O  O185  1  0.92910000  0.17960000  0.17620000  1
  O  O186  1  0.96320000  0.14460000  0.97480000  1
  O  O187  1  0.99150000  0.95100000  0.73180000  1
