# generated using pymatgen
data_VH4C8O5
_symmetry_space_group_name_H-M   'P 1'
_cell_length_a   6.78840000
_cell_length_b   13.23050000
_cell_length_c   16.63570000
_cell_angle_alpha   90.00000000
_cell_angle_beta   90.00000000
_cell_angle_gamma   90.00000000
_symmetry_Int_Tables_number   1
_chemical_formula_structural   VH4C8O5
_chemical_formula_sum   'V4 H16 C32 O20'
_cell_volume   1494.11753209
_cell_formula_units_Z   4
loop_
 _symmetry_equiv_pos_site_id
 _symmetry_equiv_pos_as_xyz
  1  'x, y, z'
loop_
 _atom_site_type_symbol
 _atom_site_label
 _atom_site_symmetry_multiplicity
 _atom_site_fract_x
 _atom_site_fract_y
 _atom_site_fract_z
 _atom_site_occupancy
  V  V0  1  0.06123000  0.73539000  0.99945000  1
  V  V1  1  0.43877000  0.26461000  0.49945000  1
  V  V2  1  0.56123000  0.76461000  0.00055000  1
  V  V3  1  0.93877000  0.23539000  0.50055000  1
  H  H4  1  0.03070000  0.41300000  0.29180000  1
  H  H5  1  0.03310000  0.43560000  0.69280000  1
  H  H6  1  0.04950000  0.51670000  0.18120000  1
  H  H7  1  0.05170000  0.53930000  0.80430000  1
  H  H8  1  0.44830000  0.46070000  0.30430000  1
  H  H9  1  0.45050000  0.48330000  0.68120000  1
  H  H10  1  0.46690000  0.56440000  0.19280000  1
  H  H11  1  0.46930000  0.58700000  0.79180000  1
  H  H12  1  0.53070000  0.08700000  0.70820000  1
  H  H13  1  0.53310000  0.06440000  0.30720000  1
  H  H14  1  0.54950000  0.98330000  0.81880000  1
  H  H15  1  0.55170000  0.96070000  0.19570000  1
  H  H16  1  0.94830000  0.03930000  0.69570000  1
  H  H17  1  0.95050000  0.01670000  0.31880000  1
  H  H18  1  0.96690000  0.93560000  0.80720000  1
  H  H19  1  0.96930000  0.91300000  0.20820000  1
  C  C20  1  0.06910000  0.02810000  0.72054000  1
  C  C21  1  0.07150000  0.00550000  0.29413000  1
  C  C22  1  0.08020000  0.96600000  0.78714000  1
  C  C23  1  0.08290000  0.94350000  0.22792000  1
  C  C24  1  0.22690000  0.13840000  0.61753000  1
  C  C25  1  0.22720000  0.12200000  0.39332000  1
  C  C26  1  0.23840000  0.07400000  0.69041000  1
  C  C27  1  0.23940000  0.05110000  0.32410000  1
  C  C28  1  0.26060000  0.94890000  0.82410000  1
  C  C29  1  0.26160000  0.92600000  0.19041000  1
  C  C30  1  0.27280000  0.87800000  0.89332000  1
  C  C31  1  0.27310000  0.86160000  0.11753000  1
  C  C32  1  0.41710000  0.05650000  0.72792000  1
  C  C33  1  0.41980000  0.03400000  0.28714000  1
  C  C34  1  0.42850000  0.99450000  0.79413000  1
  C  C35  1  0.43090000  0.97190000  0.22054000  1
  C  C36  1  0.56910000  0.47190000  0.27946000  1
  C  C37  1  0.57150000  0.49450000  0.70587000  1
  C  C38  1  0.58020000  0.53400000  0.21286000  1
  C  C39  1  0.58290000  0.55650000  0.77208000  1
  C  C40  1  0.72690000  0.36160000  0.38247000  1
  C  C41  1  0.72720000  0.37800000  0.60668000  1
  C  C42  1  0.73840000  0.42600000  0.30959000  1
  C  C43  1  0.73940000  0.44890000  0.67590000  1
  C  C44  1  0.76060000  0.55110000  0.17590000  1
  C  C45  1  0.76160000  0.57400000  0.80959000  1
  C  C46  1  0.77280000  0.62200000  0.10668000  1
  C  C47  1  0.77310000  0.63840000  0.88247000  1
  C  C48  1  0.91710000  0.44350000  0.27208000  1
  C  C49  1  0.91980000  0.46600000  0.71286000  1
  C  C50  1  0.92850000  0.50550000  0.20587000  1
  C  C51  1  0.93090000  0.52810000  0.77946000  1
  O  O52  1  0.05790000  0.14215000  0.42067000  1
  O  O53  1  0.05970000  0.15637000  0.58916000  1
  O  O54  1  0.11220000  0.84273000  0.91962000  1
  O  O55  1  0.11230000  0.82882000  0.08981000  1
  O  O56  1  0.21969000  0.31192000  0.49691000  1
  O  O57  1  0.28031000  0.68808000  0.99691000  1
  O  O58  1  0.38770000  0.17118000  0.58981000  1
  O  O59  1  0.38780000  0.15727000  0.41962000  1
  O  O60  1  0.44030000  0.84363000  0.08916000  1
  O  O61  1  0.44210000  0.85785000  0.92067000  1
  O  O62  1  0.55790000  0.35785000  0.57933000  1
  O  O63  1  0.55970000  0.34363000  0.41084000  1
  O  O64  1  0.61220000  0.65727000  0.08038000  1
  O  O65  1  0.61230000  0.67118000  0.91019000  1
  O  O66  1  0.71969000  0.18808000  0.50309000  1
  O  O67  1  0.78031000  0.81192000  0.00309000  1
  O  O68  1  0.88770000  0.32882000  0.41019000  1
  O  O69  1  0.88780000  0.34273000  0.58038000  1
  O  O70  1  0.94030000  0.65637000  0.91084000  1
  O  O71  1  0.94210000  0.64215000  0.07933000  1
