# generated using pymatgen
data_CdH3C8NO4
_symmetry_space_group_name_H-M   'P 1'
_cell_length_a   14.31900000
_cell_length_b   14.49000000
_cell_length_c   22.59800000
_cell_angle_alpha   90.00000000
_cell_angle_beta   98.21000000
_cell_angle_gamma   90.00000000
_symmetry_Int_Tables_number   1
_chemical_formula_structural   CdH3C8NO4
_chemical_formula_sum   'Cd8 H24 C64 N8 O32'
_cell_volume   4640.63241792
_cell_formula_units_Z   8
loop_
 _symmetry_equiv_pos_site_id
 _symmetry_equiv_pos_as_xyz
  1  'x, y, z'
loop_
 _atom_site_type_symbol
 _atom_site_label
 _atom_site_symmetry_multiplicity
 _atom_site_fract_x
 _atom_site_fract_y
 _atom_site_fract_z
 _atom_site_occupancy
  Cd  Cd0  1  0.17877000  0.13256000  0.86001000  1
  Cd  Cd1  1  0.17877000  0.36744000  0.36001000  1
  Cd  Cd2  1  0.25586000  0.24923000  0.24117000  1
  Cd  Cd3  1  0.25586000  0.25077000  0.74117000  1
  Cd  Cd4  1  0.74414000  0.74923000  0.25883000  1
  Cd  Cd5  1  0.74414000  0.75077000  0.75883000  1
  Cd  Cd6  1  0.82123000  0.63256000  0.63999000  1
  Cd  Cd7  1  0.82123000  0.86744000  0.13999000  1
  H  H8  1  0.01520000  0.02410000  0.25990000  1
  H  H9  1  0.01520000  0.47590000  0.75990000  1
  H  H10  1  0.07460000  0.08330000  0.59580000  1
  H  H11  1  0.07460000  0.41670000  0.09580000  1
  H  H12  1  0.11090000  0.12450000  0.42200000  1
  H  H13  1  0.11090000  0.37550000  0.92200000  1
  H  H14  1  0.38990000  0.11410000  0.08330000  1
  H  H15  1  0.38990000  0.38590000  0.58330000  1
  H  H16  1  0.40180000  0.07390000  0.90860000  1
  H  H17  1  0.40180000  0.42610000  0.40860000  1
  H  H18  1  0.49880000  0.50660000  0.25840000  1
  H  H19  1  0.49880000  0.99340000  0.75840000  1
  H  H20  1  0.50120000  0.00660000  0.24160000  1
  H  H21  1  0.50120000  0.49340000  0.74160000  1
  H  H22  1  0.59820000  0.57390000  0.59140000  1
  H  H23  1  0.59820000  0.92610000  0.09140000  1
  H  H24  1  0.61010000  0.61410000  0.41670000  1
  H  H25  1  0.61010000  0.88590000  0.91670000  1
  H  H26  1  0.88910000  0.62450000  0.07800000  1
  H  H27  1  0.88910000  0.87550000  0.57800000  1
  H  H28  1  0.92540000  0.58330000  0.90420000  1
  H  H29  1  0.92540000  0.91670000  0.40420000  1
  H  H30  1  0.98480000  0.52410000  0.24010000  1
  H  H31  1  0.98480000  0.97590000  0.74010000  1
  C  C32  1  0.01500000  0.02370000  0.30102000  1
  C  C33  1  0.01500000  0.47630000  0.80102000  1
  C  C34  1  0.01830000  0.02180000  0.42350000  1
  C  C35  1  0.01830000  0.47820000  0.92350000  1
  C  C36  1  0.03850000  0.04030000  0.61303000  1
  C  C37  1  0.03850000  0.45970000  0.11303000  1
  C  C38  1  0.04160000  0.03860000  0.67422000  1
  C  C39  1  0.04160000  0.46140000  0.17422000  1
  C  C40  1  0.07140000  0.08540000  0.33680000  1
  C  C41  1  0.07140000  0.41460000  0.83680000  1
  C  C42  1  0.07270000  0.08350000  0.39800000  1
  C  C43  1  0.07270000  0.41650000  0.89800000  1
  C  C44  1  0.10540000  0.10320000  0.71310000  1
  C  C45  1  0.10540000  0.39680000  0.21310000  1
  C  C46  1  0.13440000  0.15160000  0.31030000  1
  C  C47  1  0.13440000  0.34840000  0.81030000  1
  C  C48  1  0.36970000  0.13000000  0.19700000  1
  C  C49  1  0.36970000  0.37000000  0.69700000  1
  C  C50  1  0.37460000  0.11070000  0.79180000  1
  C  C51  1  0.37460000  0.38930000  0.29180000  1
  C  C52  1  0.43250000  0.07480000  0.10570000  1
  C  C53  1  0.43250000  0.42520000  0.60570000  1
  C  C54  1  0.43590000  0.07000000  0.16730000  1
  C  C55  1  0.43590000  0.43000000  0.66730000  1
  C  C56  1  0.44060000  0.04410000  0.82830000  1
  C  C57  1  0.44060000  0.45590000  0.32830000  1
  C  C58  1  0.44280000  0.03860000  0.88950000  1
  C  C59  1  0.44280000  0.46140000  0.38950000  1
  C  C60  1  0.49290000  0.02060000  0.07770000  1
  C  C61  1  0.49290000  0.47940000  0.57770000  1
  C  C62  1  0.49910000  0.01030000  0.20030000  1
  C  C63  1  0.49910000  0.48970000  0.70030000  1
  C  C64  1  0.50090000  0.51030000  0.29970000  1
  C  C65  1  0.50090000  0.98970000  0.79970000  1
  C  C66  1  0.50710000  0.52060000  0.42230000  1
  C  C67  1  0.50710000  0.97940000  0.92230000  1
  C  C68  1  0.55720000  0.53860000  0.61050000  1
  C  C69  1  0.55720000  0.96140000  0.11050000  1
  C  C70  1  0.55940000  0.54410000  0.67170000  1
  C  C71  1  0.55940000  0.95590000  0.17170000  1
  C  C72  1  0.56410000  0.57000000  0.33270000  1
  C  C73  1  0.56410000  0.93000000  0.83270000  1
  C  C74  1  0.56750000  0.57480000  0.39430000  1
  C  C75  1  0.56750000  0.92520000  0.89430000  1
  C  C76  1  0.62540000  0.61070000  0.70820000  1
  C  C77  1  0.62540000  0.88930000  0.20820000  1
  C  C78  1  0.63030000  0.63000000  0.30300000  1
  C  C79  1  0.63030000  0.87000000  0.80300000  1
  C  C80  1  0.86560000  0.65160000  0.18970000  1
  C  C81  1  0.86560000  0.84840000  0.68970000  1
  C  C82  1  0.89460000  0.60320000  0.78690000  1
  C  C83  1  0.89460000  0.89680000  0.28690000  1
  C  C84  1  0.92730000  0.58350000  0.10200000  1
  C  C85  1  0.92730000  0.91650000  0.60200000  1
  C  C86  1  0.92860000  0.58540000  0.16320000  1
  C  C87  1  0.92860000  0.91460000  0.66320000  1
  C  C88  1  0.95840000  0.53860000  0.82578000  1
  C  C89  1  0.95840000  0.96140000  0.32578000  1
  C  C90  1  0.96150000  0.54030000  0.88697000  1
  C  C91  1  0.96150000  0.95970000  0.38697000  1
  C  C92  1  0.98170000  0.52180000  0.07650000  1
  C  C93  1  0.98170000  0.97820000  0.57650000  1
  C  C94  1  0.98500000  0.52370000  0.19898000  1
  C  C95  1  0.98500000  0.97630000  0.69898000  1
  N  N96  1  0.02850000  0.02310000  0.48777000  1
  N  N97  1  0.02850000  0.47690000  0.98777000  1
  N  N98  1  0.48540000  0.03290000  0.01444000  1
  N  N99  1  0.48540000  0.46710000  0.51444000  1
  N  N100  1  0.51460000  0.53290000  0.48556000  1
  N  N101  1  0.51460000  0.96710000  0.98556000  1
  N  N102  1  0.97150000  0.52310000  0.01223000  1
  N  N103  1  0.97150000  0.97690000  0.51223000  1
  O  O104  1  0.10270000  0.09880000  0.76796000  1
  O  O105  1  0.10270000  0.40120000  0.26796000  1
  O  O106  1  0.14250000  0.14370000  0.25600000  1
  O  O107  1  0.14250000  0.35630000  0.75600000  1
  O  O108  1  0.15250000  0.15800000  0.68746000  1
  O  O109  1  0.15250000  0.34200000  0.18746000  1
  O  O110  1  0.17770000  0.21160000  0.34404000  1
  O  O111  1  0.17770000  0.28840000  0.84404000  1
  O  O112  1  0.31170000  0.17750000  0.16444000  1
  O  O113  1  0.31170000  0.32250000  0.66444000  1
  O  O114  1  0.31550000  0.15520000  0.81865000  1
  O  O115  1  0.31550000  0.34480000  0.31865000  1
  O  O116  1  0.37820000  0.13220000  0.25226000  1
  O  O117  1  0.37820000  0.36780000  0.75226000  1
  O  O118  1  0.38000000  0.12460000  0.73870000  1
  O  O119  1  0.38000000  0.37540000  0.23870000  1
  O  O120  1  0.62000000  0.62460000  0.76130000  1
  O  O121  1  0.62000000  0.87540000  0.26130000  1
  O  O122  1  0.62180000  0.63220000  0.24774000  1
  O  O123  1  0.62180000  0.86780000  0.74774000  1
  O  O124  1  0.68450000  0.65520000  0.68135000  1
  O  O125  1  0.68450000  0.84480000  0.18135000  1
  O  O126  1  0.68830000  0.67750000  0.33556000  1
  O  O127  1  0.68830000  0.82250000  0.83556000  1
  O  O128  1  0.82230000  0.71160000  0.15596000  1
  O  O129  1  0.82230000  0.78840000  0.65596000  1
  O  O130  1  0.84750000  0.65800000  0.81254000  1
  O  O131  1  0.84750000  0.84200000  0.31254000  1
  O  O132  1  0.85750000  0.64370000  0.24400000  1
  O  O133  1  0.85750000  0.85630000  0.74400000  1
  O  O134  1  0.89730000  0.59880000  0.73204000  1
  O  O135  1  0.89730000  0.90120000  0.23204000  1
