# generated using pymatgen
data_La2H18(C5O4)3
_symmetry_space_group_name_H-M   'P 1'
_cell_length_a   9.07600000
_cell_length_b   9.86700000
_cell_length_c   16.30300000
_cell_angle_alpha   103.34900000
_cell_angle_beta   104.11000000
_cell_angle_gamma   98.52600000
_symmetry_Int_Tables_number   1
_chemical_formula_structural   La2H18(C5O4)3
_chemical_formula_sum   'La4 H36 C30 O24'
_cell_volume   1344.92106748
_cell_formula_units_Z   2
loop_
 _symmetry_equiv_pos_site_id
 _symmetry_equiv_pos_as_xyz
  1  'x, y, z'
loop_
 _atom_site_type_symbol
 _atom_site_label
 _atom_site_symmetry_multiplicity
 _atom_site_fract_x
 _atom_site_fract_y
 _atom_site_fract_z
 _atom_site_occupancy
  La  La0  1  0.15158000  0.57330000  0.13567000  1
  La  La1  1  0.30787000  0.54856000  0.40189000  1
  La  La2  1  0.69213000  0.45144000  0.59811000  1
  La  La3  1  0.84842000  0.42670000  0.86433000  1
  H  H4  1  0.20110000  0.48040000  0.80210000  1
  H  H5  1  0.24220000  0.44200000  0.71290000  1
  H  H6  1  0.25350000  0.07340000  0.88350000  1
  H  H7  1  0.27250000  0.72330000  0.81730000  1
  H  H8  1  0.28740000  0.24970000  0.00990000  1
  H  H9  1  0.29130000  0.03750000  0.38320000  1
  H  H10  1  0.29530000  0.69260000  0.72280000  1
  H  H11  1  0.31140000  0.18440000  0.83690000  1
  H  H12  1  0.37260000  0.36360000  0.97470000  1
  H  H13  1  0.37740000  0.02750000  0.61690000  1
  H  H14  1  0.39070000  0.06140000  0.27040000  1
  H  H15  1  0.40950000  0.06310000  0.71930000  1
  H  H16  1  0.45410000  0.10270000  0.45370000  1
  H  H17  1  0.45430000  0.83740000  0.66490000  1
  H  H18  1  0.46610000  0.24990000  0.15960000  1
  H  H19  1  0.47950000  0.60560000  0.85950000  1
  H  H20  1  0.48750000  0.85830000  0.01350000  1
  H  H21  1  0.49950000  0.94830000  0.10830000  1
  H  H22  1  0.50050000  0.05170000  0.89170000  1
  H  H23  1  0.51250000  0.14170000  0.98650000  1
  H  H24  1  0.52050000  0.39440000  0.14050000  1
  H  H25  1  0.53390000  0.75010000  0.84040000  1
  H  H26  1  0.54570000  0.16260000  0.33510000  1
  H  H27  1  0.54590000  0.89730000  0.54630000  1
  H  H28  1  0.59050000  0.93690000  0.28070000  1
  H  H29  1  0.60930000  0.93860000  0.72960000  1
  H  H30  1  0.62260000  0.97250000  0.38310000  1
  H  H31  1  0.62740000  0.63640000  0.02530000  1
  H  H32  1  0.68860000  0.81560000  0.16310000  1
  H  H33  1  0.70470000  0.30740000  0.27720000  1
  H  H34  1  0.70870000  0.96250000  0.61680000  1
  H  H35  1  0.71260000  0.75030000  0.99010000  1
  H  H36  1  0.72750000  0.27670000  0.18270000  1
  H  H37  1  0.74650000  0.92660000  0.11650000  1
  H  H38  1  0.75780000  0.55800000  0.28710000  1
  H  H39  1  0.79890000  0.51960000  0.19790000  1
  C  C40  1  0.03420000  0.50100000  0.69980000  1
  C  C41  1  0.13850000  0.32220000  0.92490000  1
  C  C42  1  0.19980000  0.50920000  0.74900000  1
  C  C43  1  0.28890000  0.28000000  0.95750000  1
  C  C44  1  0.30510000  0.65790000  0.77450000  1
  C  C45  1  0.32570000  0.16240000  0.89290000  1
  C  C46  1  0.35140000  0.25450000  0.41120000  1
  C  C47  1  0.38230000  0.74280000  0.08020000  1
  C  C48  1  0.38700000  0.10860000  0.39900000  1
  C  C49  1  0.42820000  0.81630000  0.31670000  1
  C  C50  1  0.45000000  0.42130000  0.25110000  1
  C  C51  1  0.45830000  0.04840000  0.67220000  1
  C  C52  1  0.46660000  0.07910000  0.32720000  1
  C  C53  1  0.47420000  0.65300000  0.81330000  1
  C  C54  1  0.49250000  0.14360000  0.92560000  1
  C  C55  1  0.50750000  0.85640000  0.07440000  1
  C  C56  1  0.52580000  0.34700000  0.18670000  1
  C  C57  1  0.53340000  0.92090000  0.67280000  1
  C  C58  1  0.54170000  0.95160000  0.32780000  1
  C  C59  1  0.55000000  0.57870000  0.74890000  1
  C  C60  1  0.57180000  0.18370000  0.68330000  1
  C  C61  1  0.61300000  0.89140000  0.60100000  1
  C  C62  1  0.61770000  0.25720000  0.91980000  1
  C  C63  1  0.64860000  0.74550000  0.58880000  1
  C  C64  1  0.67430000  0.83760000  0.10710000  1
  C  C65  1  0.69490000  0.34210000  0.22550000  1
  C  C66  1  0.71110000  0.72000000  0.04250000  1
  C  C67  1  0.80020000  0.49080000  0.25100000  1
  C  C68  1  0.86150000  0.67780000  0.07510000  1
  C  C69  1  0.96580000  0.49900000  0.30020000  1
  O  O70  1  0.00210000  0.54170000  0.63185000  1
  O  O71  1  0.04460000  0.26080000  0.85126000  1
  O  O72  1  0.07580000  0.55550000  0.27430000  1
  O  O73  1  0.10820000  0.42690000  0.97591000  1
  O  O74  1  0.23790000  0.27470000  0.35701000  1
  O  O75  1  0.24160000  0.75600000  0.05665000  1
  O  O76  1  0.30190000  0.78470000  0.25720000  1
  O  O77  1  0.31820000  0.44790000  0.22220000  1
  O  O78  1  0.41670000  0.64290000  0.11020000  1
  O  O79  1  0.44050000  0.35800000  0.47328000  1
  O  O80  1  0.46680000  0.74200000  0.36750000  1
  O  O81  1  0.48600000  0.54710000  0.66773000  1
  O  O82  1  0.51400000  0.45290000  0.33227000  1
  O  O83  1  0.53320000  0.25800000  0.63250000  1
  O  O84  1  0.55950000  0.64200000  0.52672000  1
  O  O85  1  0.58330000  0.35710000  0.88980000  1
  O  O86  1  0.68180000  0.55210000  0.77780000  1
  O  O87  1  0.69810000  0.21530000  0.74280000  1
  O  O88  1  0.75840000  0.24400000  0.94335000  1
  O  O89  1  0.76210000  0.72530000  0.64299000  1
  O  O90  1  0.89180000  0.57310000  0.02409000  1
  O  O91  1  0.92420000  0.44450000  0.72570000  1
  O  O92  1  0.95540000  0.73920000  0.14874000  1
  O  O93  1  0.99790000  0.45830000  0.36815000  1
