# generated using pymatgen
data_EuH8C17O8
_symmetry_space_group_name_H-M   'P 1'
_cell_length_a   9.23900000
_cell_length_b   13.52780000
_cell_length_c   14.63790000
_cell_angle_alpha   90.00000000
_cell_angle_beta   90.35400000
_cell_angle_gamma   90.00000000
_symmetry_Int_Tables_number   1
_chemical_formula_structural   EuH8C17O8
_chemical_formula_sum   'Eu4 H32 C68 O32'
_cell_volume   1829.45877515
_cell_formula_units_Z   4
loop_
 _symmetry_equiv_pos_site_id
 _symmetry_equiv_pos_as_xyz
  1  'x, y, z'
loop_
 _atom_site_type_symbol
 _atom_site_label
 _atom_site_symmetry_multiplicity
 _atom_site_fract_x
 _atom_site_fract_y
 _atom_site_fract_z
 _atom_site_occupancy
  Eu  Eu0  1  0.24883000  0.49690000  0.40735000  1
  Eu  Eu1  1  0.25117000  0.99690000  0.09265000  1
  Eu  Eu2  1  0.74883000  0.00310000  0.90735000  1
  Eu  Eu3  1  0.75117000  0.50310000  0.59265000  1
  H  H4  1  0.09220000  0.75110000  0.33560000  1
  H  H5  1  0.10760000  0.98240000  0.65330000  1
  H  H6  1  0.10770000  0.74060000  0.15560000  1
  H  H7  1  0.10910000  0.52040000  0.85390000  1
  H  H8  1  0.17400000  0.95600000  0.45500000  1
  H  H9  1  0.18310000  0.18610000  0.45860000  1
  H  H10  1  0.19920000  0.30960000  0.03990000  1
  H  H11  1  0.21000000  0.53300000  0.05500000  1
  H  H12  1  0.29000000  0.03300000  0.44500000  1
  H  H13  1  0.30080000  0.80960000  0.46010000  1
  H  H14  1  0.31690000  0.68610000  0.04140000  1
  H  H15  1  0.32600000  0.45600000  0.04500000  1
  H  H16  1  0.39090000  0.02040000  0.64610000  1
  H  H17  1  0.39230000  0.24060000  0.34440000  1
  H  H18  1  0.39240000  0.48240000  0.84670000  1
  H  H19  1  0.40780000  0.25110000  0.16440000  1
  H  H20  1  0.59220000  0.74890000  0.83560000  1
  H  H21  1  0.60760000  0.51760000  0.15330000  1
  H  H22  1  0.60770000  0.75940000  0.65560000  1
  H  H23  1  0.60910000  0.97960000  0.35390000  1
  H  H24  1  0.67400000  0.54400000  0.95500000  1
  H  H25  1  0.68310000  0.31390000  0.95860000  1
  H  H26  1  0.69920000  0.19040000  0.53990000  1
  H  H27  1  0.71000000  0.96700000  0.55500000  1
  H  H28  1  0.79000000  0.46700000  0.94500000  1
  H  H29  1  0.80080000  0.69040000  0.96010000  1
  H  H30  1  0.81690000  0.81390000  0.54140000  1
  H  H31  1  0.82600000  0.04400000  0.54500000  1
  H  H32  1  0.89090000  0.47960000  0.14610000  1
  H  H33  1  0.89230000  0.25940000  0.84440000  1
  H  H34  1  0.89240000  0.01760000  0.34670000  1
  H  H35  1  0.90780000  0.24890000  0.66440000  1
  C  C36  1  0.00330000  0.88910000  0.32780000  1
  C  C37  1  0.00830000  0.60540000  0.16390000  1
  C  C38  1  0.02350000  0.16530000  0.98620000  1
  C  C39  1  0.02480000  0.33460000  0.51580000  1
  C  C40  1  0.02710000  0.79530000  0.36460000  1
  C  C41  1  0.03600000  0.69940000  0.12850000  1
  C  C42  1  0.04360000  0.26780000  0.94780000  1
  C  C43  1  0.04430000  0.23380000  0.55590000  1
  C  C44  1  0.08290000  0.92520000  0.24450000  1
  C  C45  1  0.08720000  0.56750000  0.24740000  1
  C  C46  1  0.08910000  0.04560000  0.62740000  1
  C  C47  1  0.09110000  0.45680000  0.87890000  1
  C  C48  1  0.13420000  0.16650000  0.51250000  1
  C  C49  1  0.14400000  0.33210000  0.98900000  1
  C  C50  1  0.15450000  0.07140000  0.54570000  1
  C  C51  1  0.16450000  0.42770000  0.95730000  1
  C  C52  1  0.23820000  0.99680000  0.49130000  1
  C  C53  1  0.26180000  0.49680000  0.00870000  1
  C  C54  1  0.33550000  0.92770000  0.54270000  1
  C  C55  1  0.34550000  0.57140000  0.95430000  1
  C  C56  1  0.35600000  0.83210000  0.51100000  1
  C  C57  1  0.36580000  0.66650000  0.98750000  1
  C  C58  1  0.40890000  0.95680000  0.62110000  1
  C  C59  1  0.41090000  0.54560000  0.87260000  1
  C  C60  1  0.41280000  0.06750000  0.25260000  1
  C  C61  1  0.41710000  0.42520000  0.25550000  1
  C  C62  1  0.45570000  0.73380000  0.94410000  1
  C  C63  1  0.45640000  0.76780000  0.55220000  1
  C  C64  1  0.46400000  0.19940000  0.37150000  1
  C  C65  1  0.47290000  0.29530000  0.13540000  1
  C  C66  1  0.47520000  0.83460000  0.98420000  1
  C  C67  1  0.47650000  0.66530000  0.51380000  1
  C  C68  1  0.49170000  0.10540000  0.33610000  1
  C  C69  1  0.49670000  0.38910000  0.17220000  1
  C  C70  1  0.50330000  0.61090000  0.82780000  1
  C  C71  1  0.50830000  0.89460000  0.66390000  1
  C  C72  1  0.52350000  0.33470000  0.48620000  1
  C  C73  1  0.52480000  0.16540000  0.01580000  1
  C  C74  1  0.52710000  0.70470000  0.86460000  1
  C  C75  1  0.53600000  0.80060000  0.62850000  1
  C  C76  1  0.54360000  0.23220000  0.44780000  1
  C  C77  1  0.54430000  0.26620000  0.05590000  1
  C  C78  1  0.58290000  0.57480000  0.74450000  1
  C  C79  1  0.58720000  0.93250000  0.74740000  1
  C  C80  1  0.58910000  0.45440000  0.12740000  1
  C  C81  1  0.59110000  0.04320000  0.37890000  1
  C  C82  1  0.63420000  0.33350000  0.01250000  1
  C  C83  1  0.64400000  0.16790000  0.48900000  1
  C  C84  1  0.65450000  0.42860000  0.04570000  1
  C  C85  1  0.66450000  0.07230000  0.45730000  1
  C  C86  1  0.73820000  0.50320000  0.99130000  1
  C  C87  1  0.76180000  0.00320000  0.50870000  1
  C  C88  1  0.83550000  0.57230000  0.04270000  1
  C  C89  1  0.84550000  0.92860000  0.45430000  1
  C  C90  1  0.85600000  0.66790000  0.01100000  1
  C  C91  1  0.86580000  0.83350000  0.48750000  1
  C  C92  1  0.90890000  0.54320000  0.12110000  1
  C  C93  1  0.91090000  0.95440000  0.37260000  1
  C  C94  1  0.91280000  0.43250000  0.75260000  1
  C  C95  1  0.91710000  0.07480000  0.75550000  1
  C  C96  1  0.95570000  0.76620000  0.44410000  1
  C  C97  1  0.95640000  0.73220000  0.05220000  1
  C  C98  1  0.96400000  0.30060000  0.87150000  1
  C  C99  1  0.97290000  0.20470000  0.63540000  1
  C  C100  1  0.97520000  0.66540000  0.48420000  1
  C  C101  1  0.97650000  0.83470000  0.01380000  1
  C  C102  1  0.99170000  0.39460000  0.83610000  1
  C  C103  1  0.99670000  0.11090000  0.67220000  1
  O  O104  1  0.02560000  0.99200000  0.19590000  1
  O  O105  1  0.02940000  0.49760000  0.29270000  1
  O  O106  1  0.06400000  0.60770000  0.44880000  1
  O  O107  1  0.08350000  0.88290000  0.03790000  1
  O  O108  1  0.09940000  0.35710000  0.44610000  1
  O  O109  1  0.11910000  0.13480000  0.04020000  1
  O  O110  1  0.20510000  0.88730000  0.22630000  1
  O  O111  1  0.20690000  0.60440000  0.26940000  1
  O  O112  1  0.29310000  0.10440000  0.23060000  1
  O  O113  1  0.29490000  0.38730000  0.27370000  1
  O  O114  1  0.38090000  0.63480000  0.45980000  1
  O  O115  1  0.40060000  0.85710000  0.05390000  1
  O  O116  1  0.41650000  0.38290000  0.46210000  1
  O  O117  1  0.43600000  0.10770000  0.05120000  1
  O  O118  1  0.47060000  0.99760000  0.20730000  1
  O  O119  1  0.47440000  0.49200000  0.30410000  1
  O  O120  1  0.52560000  0.50800000  0.69590000  1
  O  O121  1  0.52940000  0.00240000  0.79270000  1
  O  O122  1  0.56400000  0.89230000  0.94880000  1
  O  O123  1  0.58350000  0.61710000  0.53790000  1
  O  O124  1  0.59940000  0.14290000  0.94610000  1
  O  O125  1  0.61910000  0.36520000  0.54020000  1
  O  O126  1  0.70510000  0.61270000  0.72630000  1
  O  O127  1  0.70690000  0.89560000  0.76940000  1
  O  O128  1  0.79310000  0.39560000  0.73060000  1
  O  O129  1  0.79490000  0.11270000  0.77370000  1
  O  O130  1  0.88090000  0.86520000  0.95980000  1
  O  O131  1  0.90060000  0.64290000  0.55390000  1
  O  O132  1  0.91650000  0.11710000  0.96210000  1
  O  O133  1  0.93600000  0.39230000  0.55120000  1
  O  O134  1  0.97060000  0.50240000  0.70730000  1
  O  O135  1  0.97440000  0.00800000  0.80410000  1
