# generated using pymatgen
data_Co3Mo10P4H44C54(N4O15)3
_symmetry_space_group_name_H-M   'P 1'
_cell_length_a   18.21740000
_cell_length_b   20.29870000
_cell_length_c   28.47490000
_cell_angle_alpha   90.00000000
_cell_angle_beta   98.94700000
_cell_angle_gamma   90.00000000
_symmetry_Int_Tables_number   1
_chemical_formula_structural   Co3Mo10P4H44C54(N4O15)3
_chemical_formula_sum   'Co12 Mo40 P16 H176 C216 N48 O180'
_cell_volume   10401.60103139
_cell_formula_units_Z   4
loop_
 _symmetry_equiv_pos_site_id
 _symmetry_equiv_pos_as_xyz
  1  'x, y, z'
loop_
 _atom_site_type_symbol
 _atom_site_label
 _atom_site_symmetry_multiplicity
 _atom_site_fract_x
 _atom_site_fract_y
 _atom_site_fract_z
 _atom_site_occupancy
  Co  Co0  1  0.17724000  0.08408000  0.72616000  1
  Co  Co1  1  0.21591000  0.62977000  0.23010000  1
  Co  Co2  1  0.24581000  0.14266000  0.50151000  1
  Co  Co3  1  0.25419000  0.64266000  0.99849000  1
  Co  Co4  1  0.28409000  0.12977000  0.26990000  1
  Co  Co5  1  0.32276000  0.58408000  0.77384000  1
  Co  Co6  1  0.67724000  0.41592000  0.22616000  1
  Co  Co7  1  0.71591000  0.87023000  0.73010000  1
  Co  Co8  1  0.74581000  0.35734000  0.00151000  1
  Co  Co9  1  0.75419000  0.85734000  0.49849000  1
  Co  Co10  1  0.78409000  0.37023000  0.76990000  1
  Co  Co11  1  0.82276000  0.91592000  0.27384000  1
  Mo  Mo12  1  0.00369000  0.31379000  0.07390000  1
  Mo  Mo13  1  0.01135000  0.83786000  0.59307000  1
  Mo  Mo14  1  0.09742000  0.68819000  0.60235000  1
  Mo  Mo15  1  0.09794000  0.17081000  0.09291000  1
  Mo  Mo16  1  0.10233000  0.44059000  0.13269000  1
  Mo  Mo17  1  0.13032000  0.95212000  0.64575000  1
  Mo  Mo18  1  0.20891000  0.38313000  0.80402000  1
  Mo  Mo19  1  0.22657000  0.70817000  0.34500000  1
  Mo  Mo20  1  0.23219000  0.21648000  0.81311000  1
  Mo  Mo21  1  0.24859000  0.87477000  0.29800000  1
  Mo  Mo22  1  0.25141000  0.37477000  0.20200000  1
  Mo  Mo23  1  0.26781000  0.71648000  0.68689000  1
  Mo  Mo24  1  0.27343000  0.20817000  0.15500000  1
  Mo  Mo25  1  0.29109000  0.88313000  0.69598000  1
  Mo  Mo26  1  0.36968000  0.45212000  0.85425000  1
  Mo  Mo27  1  0.39767000  0.94059000  0.36731000  1
  Mo  Mo28  1  0.40206000  0.67081000  0.40709000  1
  Mo  Mo29  1  0.40258000  0.18819000  0.89765000  1
  Mo  Mo30  1  0.48865000  0.33786000  0.90693000  1
  Mo  Mo31  1  0.49631000  0.81379000  0.42610000  1
  Mo  Mo32  1  0.50369000  0.18621000  0.57390000  1
  Mo  Mo33  1  0.51135000  0.66214000  0.09307000  1
  Mo  Mo34  1  0.59742000  0.81181000  0.10235000  1
  Mo  Mo35  1  0.59794000  0.32919000  0.59291000  1
  Mo  Mo36  1  0.60233000  0.05941000  0.63269000  1
  Mo  Mo37  1  0.63032000  0.54788000  0.14575000  1
  Mo  Mo38  1  0.70891000  0.11687000  0.30402000  1
  Mo  Mo39  1  0.72657000  0.79183000  0.84500000  1
  Mo  Mo40  1  0.73219000  0.28352000  0.31311000  1
  Mo  Mo41  1  0.74859000  0.62523000  0.79800000  1
  Mo  Mo42  1  0.75141000  0.12523000  0.70200000  1
  Mo  Mo43  1  0.76781000  0.78352000  0.18689000  1
  Mo  Mo44  1  0.77343000  0.29183000  0.65500000  1
  Mo  Mo45  1  0.79109000  0.61687000  0.19598000  1
  Mo  Mo46  1  0.86968000  0.04788000  0.35425000  1
  Mo  Mo47  1  0.89767000  0.55941000  0.86731000  1
  Mo  Mo48  1  0.90206000  0.82919000  0.90709000  1
  Mo  Mo49  1  0.90258000  0.31181000  0.39765000  1
  Mo  Mo50  1  0.98865000  0.16214000  0.40693000  1
  Mo  Mo51  1  0.99631000  0.68621000  0.92610000  1
  P  P52  1  0.10250000  0.27560000  0.18481000  1
  P  P53  1  0.11670000  0.80084000  0.70018000  1
  P  P54  1  0.19384000  0.31924000  0.08167000  1
  P  P55  1  0.20294000  0.82155000  0.59015000  1
  P  P56  1  0.29706000  0.32155000  0.90985000  1
  P  P57  1  0.30616000  0.81924000  0.41833000  1
  P  P58  1  0.38330000  0.30084000  0.79982000  1
  P  P59  1  0.39750000  0.77560000  0.31519000  1
  P  P60  1  0.60250000  0.22440000  0.68481000  1
  P  P61  1  0.61670000  0.69916000  0.20018000  1
  P  P62  1  0.69384000  0.18076000  0.58167000  1
  P  P63  1  0.70294000  0.67845000  0.09015000  1
  P  P64  1  0.79706000  0.17845000  0.40985000  1
  P  P65  1  0.80616000  0.68076000  0.91833000  1
  P  P66  1  0.88330000  0.19916000  0.29982000  1
  P  P67  1  0.89750000  0.72440000  0.81519000  1
  H  H68  1  0.00130000  0.98650000  0.72220000  1
  H  H69  1  0.00170000  0.58600000  0.76110000  1
  H  H70  1  0.00440000  0.84010000  0.71500000  1
  H  H71  1  0.01390000  0.18290000  0.58600000  1
  H  H72  1  0.01850000  0.19290000  0.18920000  1
  H  H73  1  0.02070000  0.27170000  0.27280000  1
  H  H74  1  0.02630000  0.14090000  0.74720000  1
  H  H75  1  0.02840000  0.68880000  0.08990000  1
  H  H76  1  0.04430000  0.72550000  0.77220000  1
  H  H77  1  0.04590000  0.00880000  0.20550000  1
  H  H78  1  0.04780000  0.27410000  0.78620000  1
  H  H79  1  0.05150000  0.46400000  0.99380000  1
  H  H80  1  0.05170000  0.43580000  0.91440000  1
  H  H81  1  0.05450000  0.55790000  0.69340000  1
  H  H82  1  0.06390000  0.84200000  0.76220000  1
  H  H83  1  0.06770000  0.95170000  0.50790000  1
  H  H84  1  0.06780000  0.36610000  0.54430000  1
  H  H85  1  0.06800000  0.69550000  0.25490000  1
  H  H86  1  0.06960000  0.28110000  0.86960000  1
  H  H87  1  0.07790000  0.04910000  0.34670000  1
  H  H88  1  0.08040000  0.59920000  0.83480000  1
  H  H89  1  0.08280000  0.19020000  0.23380000  1
  H  H90  1  0.08400000  0.82040000  0.29610000  1
  H  H91  1  0.08800000  0.87180000  0.04420000  1
  H  H92  1  0.08840000  0.90610000  0.43520000  1
  H  H93  1  0.09260000  0.80220000  0.37770000  1
  H  H94  1  0.09600000  0.27880000  0.59830000  1
  H  H95  1  0.09660000  0.35690000  0.46790000  1
  H  H96  1  0.11750000  0.86210000  0.96760000  1
  H  H97  1  0.11930000  0.05310000  0.53070000  1
  H  H98  1  0.11990000  0.78660000  0.09900000  1
  H  H99  1  0.12910000  0.54830000  0.02750000  1
  H  H100  1  0.12920000  0.49460000  0.86970000  1
  H  H101  1  0.15340000  0.37720000  0.01240000  1
  H  H102  1  0.15700000  0.96690000  0.38610000  1
  H  H103  1  0.16060000  0.26360000  0.44790000  1
  H  H104  1  0.16650000  0.04620000  0.20380000  1
  H  H105  1  0.17940000  0.76910000  0.94760000  1
  H  H106  1  0.18200000  0.54730000  0.70020000  1
  H  H107  1  0.18450000  0.35180000  0.93240000  1
  H  H108  1  0.19720000  0.83650000  0.48970000  1
  H  H109  1  0.22750000  0.40990000  0.04040000  1
  H  H110  1  0.23680000  0.28490000  0.99600000  1
  H  H111  1  0.24560000  0.40750000  0.94790000  1
  H  H112  1  0.25440000  0.90750000  0.55210000  1
  H  H113  1  0.26320000  0.78490000  0.50400000  1
  H  H114  1  0.27250000  0.90990000  0.45960000  1
  H  H115  1  0.30280000  0.33650000  0.01030000  1
  H  H116  1  0.31550000  0.85180000  0.56760000  1
  H  H117  1  0.31800000  0.04730000  0.79980000  1
  H  H118  1  0.32060000  0.26910000  0.55240000  1
  H  H119  1  0.33350000  0.54620000  0.29620000  1
  H  H120  1  0.33940000  0.76360000  0.05210000  1
  H  H121  1  0.34300000  0.46690000  0.11390000  1
  H  H122  1  0.34660000  0.87720000  0.48760000  1
  H  H123  1  0.37080000  0.99460000  0.63030000  1
  H  H124  1  0.37090000  0.04830000  0.47250000  1
  H  H125  1  0.38010000  0.28660000  0.40100000  1
  H  H126  1  0.38070000  0.55310000  0.96930000  1
  H  H127  1  0.38250000  0.36210000  0.53240000  1
  H  H128  1  0.40340000  0.85690000  0.03210000  1
  H  H129  1  0.40400000  0.77880000  0.90170000  1
  H  H130  1  0.40740000  0.30220000  0.12230000  1
  H  H131  1  0.41160000  0.40610000  0.06480000  1
  H  H132  1  0.41200000  0.37180000  0.45580000  1
  H  H133  1  0.41600000  0.32040000  0.20390000  1
  H  H134  1  0.41720000  0.69020000  0.26620000  1
  H  H135  1  0.41960000  0.09920000  0.66520000  1
  H  H136  1  0.42210000  0.54910000  0.15330000  1
  H  H137  1  0.43040000  0.78110000  0.63040000  1
  H  H138  1  0.43200000  0.19550000  0.24510000  1
  H  H139  1  0.43220000  0.86610000  0.95570000  1
  H  H140  1  0.43230000  0.45170000  0.99210000  1
  H  H141  1  0.43610000  0.34200000  0.73780000  1
  H  H142  1  0.44550000  0.05790000  0.80660000  1
  H  H143  1  0.44830000  0.93580000  0.58560000  1
  H  H144  1  0.44850000  0.96400000  0.50620000  1
  H  H145  1  0.45220000  0.77410000  0.71380000  1
  H  H146  1  0.45410000  0.50880000  0.29450000  1
  H  H147  1  0.45570000  0.22550000  0.72780000  1
  H  H148  1  0.47160000  0.18880000  0.41010000  1
  H  H149  1  0.47370000  0.64090000  0.75280000  1
  H  H150  1  0.47930000  0.77170000  0.22720000  1
  H  H151  1  0.48150000  0.69290000  0.31080000  1
  H  H152  1  0.48610000  0.68290000  0.91400000  1
  H  H153  1  0.49560000  0.34010000  0.78500000  1
  H  H154  1  0.49830000  0.08600000  0.73890000  1
  H  H155  1  0.49870000  0.48650000  0.77780000  1
  H  H156  1  0.50130000  0.51350000  0.22220000  1
  H  H157  1  0.50170000  0.91400000  0.26110000  1
  H  H158  1  0.50440000  0.65990000  0.21500000  1
  H  H159  1  0.51390000  0.31710000  0.08600000  1
  H  H160  1  0.51850000  0.30710000  0.68920000  1
  H  H161  1  0.52070000  0.22830000  0.77280000  1
  H  H162  1  0.52630000  0.35910000  0.24720000  1
  H  H163  1  0.52840000  0.81120000  0.58990000  1
  H  H164  1  0.54430000  0.77450000  0.27220000  1
  H  H165  1  0.54590000  0.49120000  0.70550000  1
  H  H166  1  0.54780000  0.22590000  0.28620000  1
  H  H167  1  0.55150000  0.03600000  0.49380000  1
  H  H168  1  0.55170000  0.06420000  0.41440000  1
  H  H169  1  0.55450000  0.94210000  0.19340000  1
  H  H170  1  0.56390000  0.65800000  0.26220000  1
  H  H171  1  0.56770000  0.54830000  0.00790000  1
  H  H172  1  0.56780000  0.13390000  0.04430000  1
  H  H173  1  0.56800000  0.80450000  0.75490000  1
  H  H174  1  0.56960000  0.21890000  0.36960000  1
  H  H175  1  0.57790000  0.45090000  0.84670000  1
  H  H176  1  0.58040000  0.90080000  0.33480000  1
  H  H177  1  0.58280000  0.30980000  0.73380000  1
  H  H178  1  0.58400000  0.67960000  0.79610000  1
  H  H179  1  0.58800000  0.62820000  0.54420000  1
  H  H180  1  0.58840000  0.59390000  0.93520000  1
  H  H181  1  0.59260000  0.69780000  0.87770000  1
  H  H182  1  0.59600000  0.22120000  0.09830000  1
  H  H183  1  0.59660000  0.14310000  0.96790000  1
  H  H184  1  0.61750000  0.63790000  0.46760000  1
  H  H185  1  0.61930000  0.44690000  0.03070000  1
  H  H186  1  0.61990000  0.71340000  0.59900000  1
  H  H187  1  0.62910000  0.95170000  0.52750000  1
  H  H188  1  0.62920000  0.00540000  0.36970000  1
  H  H189  1  0.65340000  0.12280000  0.51240000  1
  H  H190  1  0.65700000  0.53310000  0.88610000  1
  H  H191  1  0.66060000  0.23640000  0.94790000  1
  H  H192  1  0.66650000  0.45380000  0.70380000  1
  H  H193  1  0.67940000  0.73090000  0.44760000  1
  H  H194  1  0.68200000  0.95270000  0.20020000  1
  H  H195  1  0.68450000  0.14820000  0.43240000  1
  H  H196  1  0.69720000  0.66350000  0.98970000  1
  H  H197  1  0.72750000  0.09010000  0.54040000  1
  H  H198  1  0.73680000  0.21510000  0.49600000  1
  H  H199  1  0.74560000  0.09250000  0.44790000  1
  H  H200  1  0.75440000  0.59250000  0.05210000  1
  H  H201  1  0.76320000  0.71510000  0.00400000  1
  H  H202  1  0.77250000  0.59010000  0.95960000  1
  H  H203  1  0.80280000  0.16350000  0.51030000  1
  H  H204  1  0.81550000  0.64820000  0.06760000  1
  H  H205  1  0.81800000  0.45270000  0.29980000  1
  H  H206  1  0.82060000  0.23090000  0.05240000  1
  H  H207  1  0.83350000  0.95380000  0.79620000  1
  H  H208  1  0.83940000  0.73640000  0.55210000  1
  H  H209  1  0.84300000  0.03310000  0.61390000  1
  H  H210  1  0.84660000  0.62280000  0.98760000  1
  H  H211  1  0.87080000  0.50540000  0.13030000  1
  H  H212  1  0.87090000  0.45170000  0.97250000  1
  H  H213  1  0.88010000  0.21340000  0.90100000  1
  H  H214  1  0.88070000  0.94690000  0.46930000  1
  H  H215  1  0.88250000  0.13790000  0.03240000  1
  H  H216  1  0.90340000  0.64310000  0.53210000  1
  H  H217  1  0.90400000  0.72120000  0.40170000  1
  H  H218  1  0.90740000  0.19780000  0.62230000  1
  H  H219  1  0.91160000  0.09390000  0.56480000  1
  H  H220  1  0.91200000  0.12820000  0.95580000  1
  H  H221  1  0.91600000  0.17960000  0.70390000  1
  H  H222  1  0.91720000  0.80980000  0.76620000  1
  H  H223  1  0.91960000  0.40080000  0.16520000  1
  H  H224  1  0.92210000  0.95090000  0.65330000  1
  H  H225  1  0.93040000  0.71890000  0.13040000  1
  H  H226  1  0.93200000  0.30450000  0.74510000  1
  H  H227  1  0.93220000  0.63390000  0.45570000  1
  H  H228  1  0.93230000  0.04830000  0.49210000  1
  H  H229  1  0.93610000  0.15800000  0.23780000  1
  H  H230  1  0.94550000  0.44210000  0.30660000  1
  H  H231  1  0.94830000  0.56420000  0.08560000  1
  H  H232  1  0.94850000  0.53600000  0.00620000  1
  H  H233  1  0.95220000  0.72590000  0.21380000  1
  H  H234  1  0.95410000  0.99120000  0.79450000  1
  H  H235  1  0.95570000  0.27450000  0.22780000  1
  H  H236  1  0.97160000  0.31120000  0.91010000  1
  H  H237  1  0.97370000  0.85910000  0.25280000  1
  H  H238  1  0.97930000  0.72830000  0.72720000  1
  H  H239  1  0.98150000  0.80710000  0.81080000  1
  H  H240  1  0.98610000  0.81710000  0.41400000  1
  H  H241  1  0.99560000  0.15990000  0.28500000  1
  H  H242  1  0.99830000  0.41400000  0.23890000  1
  H  H243  1  0.99870000  0.01350000  0.27780000  1
  C  C244  1  0.00640000  0.75420000  0.75381000  1
  C  C245  1  0.00960000  0.28830000  0.80310000  1
  C  C246  1  0.01590000  0.17570000  0.61920000  1
  C  C247  1  0.02200000  0.29140000  0.85240000  1
  C  C248  1  0.02410000  0.15010000  0.71430000  1
  C  C249  1  0.03550000  0.69050000  0.12370000  1
  C  C250  1  0.04210000  0.82760000  0.31160000  1
  C  C251  1  0.04370000  0.81410000  0.73470000  1
  C  C252  1  0.04700000  0.81580000  0.35950000  1
  C  C253  1  0.04770000  0.22020000  0.21422000  1
  C  C254  1  0.04840000  0.02630000  0.27630000  1
  C  C255  1  0.05390000  0.58040000  0.76340000  1
  C  C256  1  0.05960000  0.69360000  0.22110000  1
  C  C257  1  0.07570000  0.02440000  0.23370000  1
  C  C258  1  0.08230000  0.15630000  0.64740000  1
  C  C259  1  0.08240000  0.47050000  0.92860000  1
  C  C260  1  0.08240000  0.48680000  0.97523000  1
  C  C261  1  0.08510000  0.56420000  0.72330000  1
  C  C262  1  0.09180000  0.32770000  0.53510000  1
  C  C263  1  0.09570000  0.04730000  0.31709000  1
  C  C264  1  0.09610000  0.97470000  0.48795000  1
  C  C265  1  0.10020000  0.58820000  0.80680000  1
  C  C266  1  0.10390000  0.67490000  0.15022000  1
  C  C267  1  0.10770000  0.94830000  0.44480000  1
  C  C268  1  0.10890000  0.27630000  0.56730000  1
  C  C269  1  0.10960000  0.32280000  0.49060000  1
  C  C270  1  0.11230000  0.83350000  0.03530000  1
  C  C271  1  0.12700000  0.03510000  0.50104000  1
  C  C272  1  0.12800000  0.50550000  0.90199000  1
  C  C273  1  0.12870000  0.53750000  0.99497000  1
  C  C274  1  0.13010000  0.82800000  0.99020000  1
  C  C275  1  0.13020000  0.78290000  0.06740000  1
  C  C276  1  0.14490000  0.22160000  0.55320000  1
  C  C277  1  0.14750000  0.26680000  0.47880000  1
  C  C278  1  0.14790000  0.98420000  0.41570000  1
  C  C279  1  0.14800000  0.04600000  0.23320000  1
  C  C280  1  0.15350000  0.14710000  0.62909000  1
  C  C281  1  0.16090000  0.55770000  0.72780000  1
  C  C282  1  0.16320000  0.72670000  0.05280000  1
  C  C283  1  0.16630000  0.77220000  0.97860000  1
  C  C284  1  0.16720000  0.06520000  0.31454000  1
  C  C285  1  0.17020000  0.65460000  0.12918000  1
  C  C286  1  0.17110000  0.55630000  0.92385000  1
  C  C287  1  0.17440000  0.04570000  0.43094000  1
  C  C288  1  0.17460000  0.16780000  0.58611000  1
  C  C289  1  0.17540000  0.57940000  0.80812000  1
  C  C290  1  0.18890000  0.67050000  0.08471000  1
  C  C291  1  0.20340000  0.36740000  0.03014000  1
  C  C292  1  0.21880000  0.08880000  0.40356000  1
  C  C293  1  0.22220000  0.08900000  0.35487000  1
  C  C294  1  0.22240000  0.59620000  0.89951000  1
  C  C295  1  0.23080000  0.59530000  0.85102000  1
  C  C296  1  0.23680000  0.35940000  0.94678000  1
  C  C297  1  0.24940000  0.33230000  0.99701000  1
  C  C298  1  0.25060000  0.83230000  0.50299000  1
  C  C299  1  0.26320000  0.85940000  0.55322000  1
  C  C300  1  0.26920000  0.09530000  0.64898000  1
  C  C301  1  0.27760000  0.09620000  0.60049000  1
  C  C302  1  0.27780000  0.58900000  0.14513000  1
  C  C303  1  0.28120000  0.58880000  0.09644000  1
  C  C304  1  0.29660000  0.86740000  0.46986000  1
  C  C305  1  0.31110000  0.17050000  0.41529000  1
  C  C306  1  0.32460000  0.07940000  0.69188000  1
  C  C307  1  0.32540000  0.66780000  0.91389000  1
  C  C308  1  0.32560000  0.54570000  0.06906000  1
  C  C309  1  0.32890000  0.05630000  0.57615000  1
  C  C310  1  0.32980000  0.15460000  0.37082000  1
  C  C311  1  0.33280000  0.56520000  0.18546000  1
  C  C312  1  0.33370000  0.27220000  0.52140000  1
  C  C313  1  0.33680000  0.22670000  0.44720000  1
  C  C314  1  0.33910000  0.05770000  0.77220000  1
  C  C315  1  0.34650000  0.64710000  0.87091000  1
  C  C316  1  0.35200000  0.54600000  0.26680000  1
  C  C317  1  0.35210000  0.48420000  0.08430000  1
  C  C318  1  0.35250000  0.76680000  0.02120000  1
  C  C319  1  0.35510000  0.72160000  0.94680000  1
  C  C320  1  0.36980000  0.28290000  0.43260000  1
  C  C321  1  0.36990000  0.32800000  0.50980000  1
  C  C322  1  0.37130000  0.03750000  0.50503000  1
  C  C323  1  0.37200000  0.00550000  0.59801000  1
  C  C324  1  0.37300000  0.53510000  0.99896000  1
  C  C325  1  0.38770000  0.33350000  0.46470000  1
  C  C326  1  0.39040000  0.82280000  0.00940000  1
  C  C327  1  0.39110000  0.77630000  0.93270000  1
  C  C328  1  0.39230000  0.44830000  0.05520000  1
  C  C329  1  0.39610000  0.17490000  0.34978000  1
  C  C330  1  0.39980000  0.08820000  0.69320000  1
  C  C331  1  0.40390000  0.47470000  0.01205000  1
  C  C332  1  0.40430000  0.54730000  0.18291000  1
  C  C333  1  0.40820000  0.82770000  0.96490000  1
  C  C334  1  0.41490000  0.06420000  0.77670000  1
  C  C335  1  0.41760000  0.97050000  0.57140000  1
  C  C336  1  0.41760000  0.98680000  0.52477000  1
  C  C337  1  0.41770000  0.65630000  0.85260000  1
  C  C338  1  0.42430000  0.52440000  0.26630000  1
  C  C339  1  0.44040000  0.19360000  0.27890000  1
  C  C340  1  0.44610000  0.08040000  0.73660000  1
  C  C341  1  0.45160000  0.52630000  0.22370000  1
  C  C342  1  0.45230000  0.72020000  0.28578000  1
  C  C343  1  0.45300000  0.31580000  0.14050000  1
  C  C344  1  0.45630000  0.31410000  0.76530000  1
  C  C345  1  0.45790000  0.32760000  0.18840000  1
  C  C346  1  0.46450000  0.19050000  0.37630000  1
  C  C347  1  0.47590000  0.65010000  0.78570000  1
  C  C348  1  0.47800000  0.79140000  0.64760000  1
  C  C349  1  0.48410000  0.67570000  0.88080000  1
  C  C350  1  0.49040000  0.78830000  0.69690000  1
  C  C351  1  0.49360000  0.25420000  0.74619000  1
  C  C352  1  0.50640000  0.74580000  0.25381000  1
  C  C353  1  0.50960000  0.21170000  0.30310000  1
  C  C354  1  0.51590000  0.32430000  0.11920000  1
  C  C355  1  0.52200000  0.20860000  0.35240000  1
  C  C356  1  0.52410000  0.34990000  0.21430000  1
  C  C357  1  0.53550000  0.80950000  0.62370000  1
  C  C358  1  0.54210000  0.67240000  0.81160000  1
  C  C359  1  0.54370000  0.68590000  0.23470000  1
  C  C360  1  0.54700000  0.68420000  0.85950000  1
  C  C361  1  0.54770000  0.27980000  0.71422000  1
  C  C362  1  0.54840000  0.47370000  0.77630000  1
  C  C363  1  0.55390000  0.91960000  0.26340000  1
  C  C364  1  0.55960000  0.80640000  0.72110000  1
  C  C365  1  0.57570000  0.47560000  0.73370000  1
  C  C366  1  0.58230000  0.34370000  0.14740000  1
  C  C367  1  0.58240000  0.01320000  0.47523000  1
  C  C368  1  0.58240000  0.02950000  0.42860000  1
  C  C369  1  0.58510000  0.93580000  0.22330000  1
  C  C370  1  0.59180000  0.17230000  0.03510000  1
  C  C371  1  0.59570000  0.45270000  0.81709000  1
  C  C372  1  0.59610000  0.52530000  0.98795000  1
  C  C373  1  0.60020000  0.91180000  0.30680000  1
  C  C374  1  0.60390000  0.82510000  0.65022000  1
  C  C375  1  0.60770000  0.55170000  0.94480000  1
  C  C376  1  0.60890000  0.22370000  0.06730000  1
  C  C377  1  0.60960000  0.17720000  0.99060000  1
  C  C378  1  0.61230000  0.66650000  0.53530000  1
  C  C379  1  0.62700000  0.46490000  0.00104000  1
  C  C380  1  0.62800000  0.99450000  0.40199000  1
  C  C381  1  0.62870000  0.96250000  0.49497000  1
  C  C382  1  0.63010000  0.67200000  0.49020000  1
  C  C383  1  0.63020000  0.71710000  0.56740000  1
  C  C384  1  0.64490000  0.27840000  0.05320000  1
  C  C385  1  0.64750000  0.23320000  0.97880000  1
  C  C386  1  0.64790000  0.51580000  0.91570000  1
  C  C387  1  0.64800000  0.45400000  0.73320000  1
  C  C388  1  0.65350000  0.35290000  0.12909000  1
  C  C389  1  0.66090000  0.94230000  0.22780000  1
  C  C390  1  0.66320000  0.77330000  0.55280000  1
  C  C391  1  0.66630000  0.72780000  0.47860000  1
  C  C392  1  0.66720000  0.43480000  0.81454000  1
  C  C393  1  0.67020000  0.84540000  0.62918000  1
  C  C394  1  0.67110000  0.94370000  0.42385000  1
  C  C395  1  0.67440000  0.45430000  0.93094000  1
  C  C396  1  0.67460000  0.33220000  0.08611000  1
  C  C397  1  0.67540000  0.92060000  0.30812000  1
  C  C398  1  0.68890000  0.82950000  0.58471000  1
  C  C399  1  0.70340000  0.13260000  0.53014000  1
  C  C400  1  0.71880000  0.41120000  0.90356000  1
  C  C401  1  0.72220000  0.41100000  0.85487000  1
  C  C402  1  0.72240000  0.90380000  0.39951000  1
  C  C403  1  0.73080000  0.90470000  0.35102000  1
  C  C404  1  0.73680000  0.14060000  0.44678000  1
  C  C405  1  0.74940000  0.16770000  0.49701000  1
  C  C406  1  0.75060000  0.66770000  0.00299000  1
  C  C407  1  0.76320000  0.64060000  0.05322000  1
  C  C408  1  0.76920000  0.40470000  0.14898000  1
  C  C409  1  0.77760000  0.40380000  0.10049000  1
  C  C410  1  0.77780000  0.91100000  0.64513000  1
  C  C411  1  0.78120000  0.91120000  0.59644000  1
  C  C412  1  0.79660000  0.63260000  0.96986000  1
  C  C413  1  0.81110000  0.32950000  0.91529000  1
  C  C414  1  0.82460000  0.42060000  0.19188000  1
  C  C415  1  0.82540000  0.83220000  0.41389000  1
  C  C416  1  0.82560000  0.95430000  0.56906000  1
  C  C417  1  0.82890000  0.44370000  0.07615000  1
  C  C418  1  0.82980000  0.34540000  0.87082000  1
  C  C419  1  0.83280000  0.93480000  0.68546000  1
  C  C420  1  0.83370000  0.22780000  0.02140000  1
  C  C421  1  0.83680000  0.27330000  0.94720000  1
  C  C422  1  0.83910000  0.44230000  0.27220000  1
  C  C423  1  0.84650000  0.85290000  0.37091000  1
  C  C424  1  0.85200000  0.95400000  0.76680000  1
  C  C425  1  0.85210000  0.01580000  0.58430000  1
  C  C426  1  0.85250000  0.73320000  0.52120000  1
  C  C427  1  0.85510000  0.77840000  0.44680000  1
  C  C428  1  0.86980000  0.21710000  0.93260000  1
  C  C429  1  0.86990000  0.17200000  0.00980000  1
  C  C430  1  0.87130000  0.46250000  0.00503000  1
  C  C431  1  0.87200000  0.49450000  0.09801000  1
  C  C432  1  0.87300000  0.96490000  0.49896000  1
  C  C433  1  0.88770000  0.16650000  0.96470000  1
  C  C434  1  0.89040000  0.67720000  0.50940000  1
  C  C435  1  0.89110000  0.72370000  0.43270000  1
  C  C436  1  0.89230000  0.05170000  0.55520000  1
  C  C437  1  0.89610000  0.32510000  0.84978000  1
  C  C438  1  0.89980000  0.41180000  0.19320000  1
  C  C439  1  0.90390000  0.02530000  0.51205000  1
  C  C440  1  0.90430000  0.95270000  0.68291000  1
  C  C441  1  0.90820000  0.67230000  0.46490000  1
  C  C442  1  0.91490000  0.43580000  0.27670000  1
  C  C443  1  0.91760000  0.51320000  0.02477000  1
  C  C444  1  0.91760000  0.52950000  0.07140000  1
  C  C445  1  0.91770000  0.84370000  0.35260000  1
  C  C446  1  0.92430000  0.97560000  0.76630000  1
  C  C447  1  0.94040000  0.30640000  0.77890000  1
  C  C448  1  0.94610000  0.41960000  0.23660000  1
  C  C449  1  0.95160000  0.97370000  0.72370000  1
  C  C450  1  0.95230000  0.77980000  0.78578000  1
  C  C451  1  0.95300000  0.18420000  0.64050000  1
  C  C452  1  0.95630000  0.18590000  0.26530000  1
  C  C453  1  0.95790000  0.17240000  0.68840000  1
  C  C454  1  0.96450000  0.30950000  0.87630000  1
  C  C455  1  0.97590000  0.84990000  0.28570000  1
  C  C456  1  0.97800000  0.70860000  0.14760000  1
  C  C457  1  0.98410000  0.82430000  0.38080000  1
  C  C458  1  0.99040000  0.71170000  0.19690000  1
  C  C459  1  0.99360000  0.24580000  0.24619000  1
  N  N460  1  0.08530000  0.14130000  0.69383000  1
  N  N461  1  0.11490000  0.67370000  0.19860000  1
  N  N462  1  0.16570000  0.21780000  0.50937000  1
  N  N463  1  0.16700000  0.06960000  0.47453000  1
  N  N464  1  0.17250000  0.57160000  0.97040000  1
  N  N465  1  0.18400000  0.72200000  0.00892000  1
  N  N466  1  0.19260000  0.06660000  0.27190000  1
  N  N467  1  0.20370000  0.11450000  0.65964000  1
  N  N468  1  0.20670000  0.56530000  0.76925000  1
  N  N469  1  0.21820000  0.61820000  0.15837000  1
  N  N470  1  0.23270000  0.13600000  0.57210000  1
  N  N471  1  0.23980000  0.63270000  0.06887000  1
  N  N472  1  0.26020000  0.13270000  0.43113000  1
  N  N473  1  0.26730000  0.63600000  0.92790000  1
  N  N474  1  0.28180000  0.11820000  0.34163000  1
  N  N475  1  0.29330000  0.06530000  0.73075000  1
  N  N476  1  0.29630000  0.61450000  0.84036000  1
  N  N477  1  0.30740000  0.56660000  0.22810000  1
  N  N478  1  0.31600000  0.22200000  0.49108000  1
  N  N479  1  0.32750000  0.07160000  0.52960000  1
  N  N480  1  0.33300000  0.56960000  0.02547000  1
  N  N481  1  0.33430000  0.71780000  0.99063000  1
  N  N482  1  0.38510000  0.17370000  0.30140000  1
  N  N483  1  0.41470000  0.64130000  0.80617000  1
  N  N484  1  0.58530000  0.35870000  0.19383000  1
  N  N485  1  0.61490000  0.82630000  0.69860000  1
  N  N486  1  0.66570000  0.28220000  0.00937000  1
  N  N487  1  0.66700000  0.43040000  0.97453000  1
  N  N488  1  0.67250000  0.92840000  0.47040000  1
  N  N489  1  0.68400000  0.77800000  0.50892000  1
  N  N490  1  0.69260000  0.43340000  0.77190000  1
  N  N491  1  0.70370000  0.38550000  0.15964000  1
  N  N492  1  0.70670000  0.93470000  0.26925000  1
  N  N493  1  0.71820000  0.88180000  0.65837000  1
  N  N494  1  0.73270000  0.36400000  0.07210000  1
  N  N495  1  0.73980000  0.86730000  0.56887000  1
  N  N496  1  0.76020000  0.36730000  0.93113000  1
  N  N497  1  0.76730000  0.86400000  0.42790000  1
  N  N498  1  0.78180000  0.38180000  0.84163000  1
  N  N499  1  0.79330000  0.43470000  0.23075000  1
  N  N500  1  0.79630000  0.88550000  0.34036000  1
  N  N501  1  0.80740000  0.93340000  0.72810000  1
  N  N502  1  0.81600000  0.27800000  0.99108000  1
  N  N503  1  0.82750000  0.42840000  0.02960000  1
  N  N504  1  0.83300000  0.93040000  0.52547000  1
  N  N505  1  0.83430000  0.78220000  0.49063000  1
  N  N506  1  0.88510000  0.32630000  0.80140000  1
  N  N507  1  0.91470000  0.85870000  0.30617000  1
  O  O508  1  0.00880000  0.12280000  0.45993000  1
  O  O509  1  0.01110000  0.22056000  0.09389000  1
  O  O510  1  0.01610000  0.69432000  0.98634000  1
  O  O511  1  0.03100000  0.47430000  0.15620000  1
  O  O512  1  0.03120000  0.75250000  0.56533000  1
  O  O513  1  0.03420000  0.64840000  0.63053000  1
  O  O514  1  0.03680000  0.90964000  0.63708000  1
  O  O515  1  0.04990000  0.39831000  0.07718000  1
  O  O516  1  0.05590000  0.32576000  0.15303000  1
  O  O517  1  0.07360000  0.17760000  0.39029000  1
  O  O518  1  0.07530000  0.10220000  0.12270000  1
  O  O519  1  0.08040000  0.77964000  0.64965000  1
  O  O520  1  0.08050000  0.67123000  0.90929000  1
  O  O521  1  0.08990000  0.14562000  0.03496000  1
  O  O522  1  0.10930000  0.63470000  0.55818000  1
  O  O523  1  0.11760000  0.00821000  0.60059000  1
  O  O524  1  0.12244000  0.27753000  0.06814000  1
  O  O525  1  0.12320000  0.39960000  0.81769000  1
  O  O526  1  0.12630000  0.00040000  0.69547000  1
  O  O527  1  0.13630000  0.86765000  0.59240000  1
  O  O528  1  0.13960000  0.50454000  0.10549000  1
  O  O529  1  0.14120000  0.68950000  0.35742000  1
  O  O530  1  0.14551000  0.22796000  0.15565000  1
  O  O531  1  0.14750000  0.04900000  0.78817000  1
  O  O532  1  0.15340000  0.54554000  0.24789000  1
  O  O533  1  0.15800000  0.86704000  0.69803000  1
  O  O534  1  0.15935000  0.31031000  0.22156000  1
  O  O535  1  0.16100000  0.19760000  0.84353000  1
  O  O536  1  0.16980000  0.74820000  0.72228000  1
  O  O537  1  0.17090000  0.43619000  0.19283000  1
  O  O538  1  0.17720000  0.75531000  0.56884000  1
  O  O539  1  0.18250000  0.91664000  0.32158000  1
  O  O540  1  0.18714000  0.36570000  0.12387000  1
  O  O541  1  0.18780000  0.67740000  0.64571000  1
  O  O542  1  0.19030000  0.29378000  0.77748000  1
  O  O543  1  0.20870000  0.41960000  0.75060000  1
  O  O544  1  0.20960000  0.15639000  0.10454000  1
  O  O545  1  0.21358000  0.78588000  0.31061000  1
  O  O546  1  0.21600000  0.16320000  0.76605000  1
  O  O547  1  0.21830000  0.88130000  0.23825000  1
  O  O548  1  0.22620000  0.21530000  0.28125000  1
  O  O549  1  0.23370000  0.65313000  0.29903000  1
  O  O550  1  0.23649000  0.94263000  0.65196000  1
  O  O551  1  0.23870000  0.77577000  0.40519000  1
  O  O552  1  0.24840000  0.81040000  0.64057000  1
  O  O553  1  0.25160000  0.31040000  0.85943000  1
  O  O554  1  0.26130000  0.27577000  0.09481000  1
  O  O555  1  0.26351000  0.44263000  0.84804000  1
  O  O556  1  0.26630000  0.15313000  0.20097000  1
  O  O557  1  0.27380000  0.71530000  0.21875000  1
  O  O558  1  0.28170000  0.38130000  0.26175000  1
  O  O559  1  0.28400000  0.66320000  0.73395000  1
  O  O560  1  0.28642000  0.28588000  0.18939000  1
  O  O561  1  0.29040000  0.65639000  0.39546000  1
  O  O562  1  0.29130000  0.91960000  0.74940000  1
  O  O563  1  0.30970000  0.79378000  0.72252000  1
  O  O564  1  0.31220000  0.17740000  0.85429000  1
  O  O565  1  0.31286000  0.86570000  0.37613000  1
  O  O566  1  0.31750000  0.41664000  0.17842000  1
  O  O567  1  0.32280000  0.25531000  0.93116000  1
  O  O568  1  0.32910000  0.93619000  0.30717000  1
  O  O569  1  0.33020000  0.24820000  0.77772000  1
  O  O570  1  0.33900000  0.69760000  0.65647000  1
  O  O571  1  0.34065000  0.81031000  0.27844000  1
  O  O572  1  0.34200000  0.36704000  0.80197000  1
  O  O573  1  0.34660000  0.04554000  0.25211000  1
  O  O574  1  0.35250000  0.54900000  0.71183000  1
  O  O575  1  0.35449000  0.72796000  0.34435000  1
  O  O576  1  0.35880000  0.18950000  0.14258000  1
  O  O577  1  0.36040000  0.00454000  0.39451000  1
  O  O578  1  0.36370000  0.36765000  0.90760000  1
  O  O579  1  0.37370000  0.50040000  0.80453000  1
  O  O580  1  0.37680000  0.89960000  0.68231000  1
  O  O581  1  0.37756000  0.77753000  0.43186000  1
  O  O582  1  0.38240000  0.50821000  0.89941000  1
  O  O583  1  0.39070000  0.13470000  0.94182000  1
  O  O584  1  0.41010000  0.64562000  0.46504000  1
  O  O585  1  0.41950000  0.17123000  0.59071000  1
  O  O586  1  0.41960000  0.27964000  0.85035000  1
  O  O587  1  0.42470000  0.60220000  0.37730000  1
  O  O588  1  0.42640000  0.67760000  0.10971000  1
  O  O589  1  0.44410000  0.82576000  0.34697000  1
  O  O590  1  0.45010000  0.89831000  0.42282000  1
  O  O591  1  0.46320000  0.40964000  0.86292000  1
  O  O592  1  0.46580000  0.14840000  0.86947000  1
  O  O593  1  0.46880000  0.25250000  0.93467000  1
  O  O594  1  0.46900000  0.97430000  0.34380000  1
  O  O595  1  0.48390000  0.19432000  0.51366000  1
  O  O596  1  0.48890000  0.72056000  0.40611000  1
  O  O597  1  0.49120000  0.62280000  0.04007000  1
  O  O598  1  0.50880000  0.37720000  0.95993000  1
  O  O599  1  0.51110000  0.27944000  0.59389000  1
  O  O600  1  0.51610000  0.80568000  0.48634000  1
  O  O601  1  0.53100000  0.02570000  0.65620000  1
  O  O602  1  0.53120000  0.74750000  0.06533000  1
  O  O603  1  0.53420000  0.85160000  0.13053000  1
  O  O604  1  0.53680000  0.59036000  0.13708000  1
  O  O605  1  0.54990000  0.10169000  0.57718000  1
  O  O606  1  0.55590000  0.17424000  0.65303000  1
  O  O607  1  0.57360000  0.32240000  0.89029000  1
  O  O608  1  0.57530000  0.39780000  0.62270000  1
  O  O609  1  0.58040000  0.72036000  0.14965000  1
  O  O610  1  0.58050000  0.82877000  0.40929000  1
  O  O611  1  0.58990000  0.35438000  0.53496000  1
  O  O612  1  0.60930000  0.86530000  0.05818000  1
  O  O613  1  0.61760000  0.49179000  0.10059000  1
  O  O614  1  0.62244000  0.22247000  0.56814000  1
  O  O615  1  0.62320000  0.10040000  0.31769000  1
  O  O616  1  0.62630000  0.49960000  0.19547000  1
  O  O617  1  0.63630000  0.63235000  0.09240000  1
  O  O618  1  0.63960000  0.99546000  0.60549000  1
  O  O619  1  0.64120000  0.81050000  0.85742000  1
  O  O620  1  0.64551000  0.27204000  0.65565000  1
  O  O621  1  0.64750000  0.45100000  0.28817000  1
  O  O622  1  0.65340000  0.95446000  0.74789000  1
  O  O623  1  0.65800000  0.63296000  0.19803000  1
  O  O624  1  0.65935000  0.18969000  0.72156000  1
  O  O625  1  0.66100000  0.30240000  0.34353000  1
  O  O626  1  0.66980000  0.75180000  0.22228000  1
  O  O627  1  0.67090000  0.06381000  0.69283000  1
  O  O628  1  0.67720000  0.74469000  0.06884000  1
  O  O629  1  0.68250000  0.58336000  0.82158000  1
  O  O630  1  0.68714000  0.13430000  0.62387000  1
  O  O631  1  0.68780000  0.82260000  0.14571000  1
  O  O632  1  0.69030000  0.20622000  0.27748000  1
  O  O633  1  0.70870000  0.08040000  0.25060000  1
  O  O634  1  0.70960000  0.34361000  0.60454000  1
  O  O635  1  0.71358000  0.71412000  0.81061000  1
  O  O636  1  0.71600000  0.33680000  0.26605000  1
  O  O637  1  0.71830000  0.61870000  0.73825000  1
  O  O638  1  0.72620000  0.28470000  0.78125000  1
  O  O639  1  0.73370000  0.84687000  0.79903000  1
  O  O640  1  0.73649000  0.55737000  0.15196000  1
  O  O641  1  0.73870000  0.72423000  0.90519000  1
  O  O642  1  0.74840000  0.68960000  0.14057000  1
  O  O643  1  0.75160000  0.18960000  0.35943000  1
  O  O644  1  0.76130000  0.22423000  0.59481000  1
  O  O645  1  0.76351000  0.05737000  0.34804000  1
  O  O646  1  0.76630000  0.34687000  0.70097000  1
  O  O647  1  0.77380000  0.78470000  0.71875000  1
  O  O648  1  0.78170000  0.11870000  0.76175000  1
  O  O649  1  0.78400000  0.83680000  0.23395000  1
  O  O650  1  0.78642000  0.21412000  0.68939000  1
  O  O651  1  0.79040000  0.84361000  0.89546000  1
  O  O652  1  0.79130000  0.58040000  0.24940000  1
  O  O653  1  0.80970000  0.70622000  0.22252000  1
  O  O654  1  0.81220000  0.32260000  0.35429000  1
  O  O655  1  0.81286000  0.63430000  0.87613000  1
  O  O656  1  0.81750000  0.08336000  0.67842000  1
  O  O657  1  0.82280000  0.24469000  0.43116000  1
  O  O658  1  0.82910000  0.56381000  0.80717000  1
  O  O659  1  0.83020000  0.25180000  0.27772000  1
  O  O660  1  0.83900000  0.80240000  0.15647000  1
  O  O661  1  0.84065000  0.68969000  0.77844000  1
  O  O662  1  0.84200000  0.13296000  0.30197000  1
  O  O663  1  0.84660000  0.45446000  0.75211000  1
  O  O664  1  0.85250000  0.95100000  0.21183000  1
  O  O665  1  0.85449000  0.77204000  0.84435000  1
  O  O666  1  0.85880000  0.31050000  0.64258000  1
  O  O667  1  0.86040000  0.49546000  0.89451000  1
  O  O668  1  0.86370000  0.13235000  0.40760000  1
  O  O669  1  0.87370000  0.99960000  0.30453000  1
  O  O670  1  0.87680000  0.60040000  0.18231000  1
  O  O671  1  0.87756000  0.72247000  0.93186000  1
  O  O672  1  0.88240000  0.99179000  0.39941000  1
  O  O673  1  0.89070000  0.36530000  0.44182000  1
  O  O674  1  0.91010000  0.85438000  0.96504000  1
  O  O675  1  0.91950000  0.32877000  0.09071000  1
  O  O676  1  0.91960000  0.22036000  0.35035000  1
  O  O677  1  0.92470000  0.89780000  0.87730000  1
  O  O678  1  0.92640000  0.82240000  0.60971000  1
  O  O679  1  0.94410000  0.67424000  0.84697000  1
  O  O680  1  0.95010000  0.60169000  0.92282000  1
  O  O681  1  0.96320000  0.09036000  0.36292000  1
  O  O682  1  0.96580000  0.35160000  0.36947000  1
  O  O683  1  0.96880000  0.24750000  0.43467000  1
  O  O684  1  0.96900000  0.52570000  0.84380000  1
  O  O685  1  0.98390000  0.30568000  0.01366000  1
  O  O686  1  0.98890000  0.77944000  0.90611000  1
  O  O687  1  0.99120000  0.87720000  0.54007000  1
