# generated using pymatgen
data_ZnH8C14O5
_symmetry_space_group_name_H-M   'P 1'
_cell_length_a   15.80850000
_cell_length_b   15.80850000
_cell_length_c   21.02070000
_cell_angle_alpha   85.28610000
_cell_angle_beta   85.28610000
_cell_angle_gamma   60.57120000
_symmetry_Int_Tables_number   1
_chemical_formula_structural   ZnH8C14O5
_chemical_formula_sum   'Zn8 H64 C112 O40'
_cell_volume   4554.64459675
_cell_formula_units_Z   8
loop_
 _symmetry_equiv_pos_site_id
 _symmetry_equiv_pos_as_xyz
  1  'x, y, z'
loop_
 _atom_site_type_symbol
 _atom_site_label
 _atom_site_symmetry_multiplicity
 _atom_site_fract_x
 _atom_site_fract_y
 _atom_site_fract_z
 _atom_site_occupancy
  Zn  Zn0  1  0.99150000  0.99782000  0.81916000  1
  Zn  Zn1  1  0.99782000  0.99150000  0.31916000  1
  Zn  Zn2  1  0.43533000  0.95773000  0.50741000  1
  Zn  Zn3  1  0.04227000  0.56467000  0.99259000  1
  Zn  Zn4  1  0.95773000  0.43533000  0.00741000  1
  Zn  Zn5  1  0.56467000  0.04227000  0.49259000  1
  Zn  Zn6  1  0.00218000  0.00850000  0.68084000  1
  Zn  Zn7  1  0.00850000  0.00218000  0.18084000  1
  H  H8  1  0.29500000  0.96340000  0.67440000  1
  H  H9  1  0.29370000  0.95510000  0.34070000  1
  H  H10  1  0.45500000  0.93520000  0.67890000  1
  H  H11  1  0.44870000  0.93370000  0.33570000  1
  H  H12  1  0.28760000  0.90520000  0.86130000  1
  H  H13  1  0.31500000  0.90380000  0.15390000  1
  H  H14  1  0.71550000  0.89410000  0.18630000  1
  H  H15  1  0.70180000  0.89100000  0.80570000  1
  H  H16  1  0.47040000  0.87880000  0.15060000  1
  H  H17  1  0.44800000  0.86320000  0.86910000  1
  H  H18  1  0.77210000  0.84870000  0.63110000  1
  H  H19  1  0.78070000  0.83590000  0.35520000  1
  H  H20  1  0.83590000  0.78070000  0.85520000  1
  H  H21  1  0.84870000  0.77210000  0.13110000  1
  H  H22  1  0.60500000  0.73260000  0.64430000  1
  H  H23  1  0.60380000  0.72680000  0.38530000  1
  H  H24  1  0.89410000  0.71550000  0.68630000  1
  H  H25  1  0.60140000  0.71320000  0.20490000  1
  H  H26  1  0.09480000  0.71240000  0.63870000  1
  H  H27  1  0.59490000  0.70670000  0.82850000  1
  H  H28  1  0.04490000  0.70630000  0.15930000  1
  H  H29  1  0.03660000  0.70500000  0.82560000  1
  H  H30  1  0.89100000  0.70180000  0.30570000  1
  H  H31  1  0.09620000  0.68500000  0.34610000  1
  H  H32  1  0.73260000  0.60500000  0.14430000  1
  H  H33  1  0.72680000  0.60380000  0.88530000  1
  H  H34  1  0.71320000  0.60140000  0.70490000  1
  H  H35  1  0.70670000  0.59490000  0.32850000  1
  H  H36  1  0.13680000  0.55200000  0.63090000  1
  H  H37  1  0.06630000  0.55130000  0.16430000  1
  H  H38  1  0.06480000  0.54500000  0.82110000  1
  H  H39  1  0.12120000  0.52960000  0.34940000  1
  H  H40  1  0.87880000  0.47040000  0.65060000  1
  H  H41  1  0.93520000  0.45500000  0.17890000  1
  H  H42  1  0.93370000  0.44870000  0.83570000  1
  H  H43  1  0.86320000  0.44800000  0.36910000  1
  H  H44  1  0.29330000  0.40510000  0.67150000  1
  H  H45  1  0.28680000  0.39860000  0.29510000  1
  H  H46  1  0.27320000  0.39620000  0.11470000  1
  H  H47  1  0.26740000  0.39500000  0.85570000  1
  H  H48  1  0.90380000  0.31500000  0.65390000  1
  H  H49  1  0.10900000  0.29820000  0.69430000  1
  H  H50  1  0.96340000  0.29500000  0.17440000  1
  H  H51  1  0.95510000  0.29370000  0.84070000  1
  H  H52  1  0.40510000  0.29330000  0.17150000  1
  H  H53  1  0.90520000  0.28760000  0.36130000  1
  H  H54  1  0.39860000  0.28680000  0.79510000  1
  H  H55  1  0.10590000  0.28450000  0.31370000  1
  H  H56  1  0.39620000  0.27320000  0.61470000  1
  H  H57  1  0.39500000  0.26740000  0.35570000  1
  H  H58  1  0.15130000  0.22790000  0.86890000  1
  H  H59  1  0.16410000  0.21930000  0.14480000  1
  H  H60  1  0.21930000  0.16410000  0.64480000  1
  H  H61  1  0.22790000  0.15130000  0.36890000  1
  H  H62  1  0.55200000  0.13680000  0.13090000  1
  H  H63  1  0.52960000  0.12120000  0.84940000  1
  H  H64  1  0.29820000  0.10900000  0.19430000  1
  H  H65  1  0.28450000  0.10590000  0.81370000  1
  H  H66  1  0.68500000  0.09620000  0.84610000  1
  H  H67  1  0.71240000  0.09480000  0.13870000  1
  H  H68  1  0.55130000  0.06630000  0.66430000  1
  H  H69  1  0.54500000  0.06480000  0.32110000  1
  H  H70  1  0.70630000  0.04490000  0.65930000  1
  H  H71  1  0.70500000  0.03660000  0.32560000  1
  C  C72  1  0.17670000  0.95730000  0.77130000  1
  C  C73  1  0.18170000  0.95430000  0.25780000  1
  C  C74  1  0.32640000  0.94420000  0.71270000  1
  C  C75  1  0.32880000  0.94000000  0.30170000  1
  C  C76  1  0.28030000  0.93550000  0.24920000  1
  C  C77  1  0.27890000  0.93270000  0.76940000  1
  C  C78  1  0.42260000  0.92580000  0.71540000  1
  C  C79  1  0.42310000  0.92390000  0.30050000  1
  C  C80  1  0.34030000  0.90910000  0.19090000  1
  C  C81  1  0.32330000  0.90730000  0.82440000  1
  C  C82  1  0.46790000  0.89410000  0.77160000  1
  C  C83  1  0.47770000  0.89230000  0.24320000  1
  C  C84  1  0.43460000  0.89160000  0.18940000  1
  C  C85  1  0.41800000  0.88400000  0.83030000  1
  C  C86  1  0.61220000  0.88160000  0.58300000  1
  C  C87  1  0.61440000  0.87320000  0.42310000  1
  C  C88  1  0.71840000  0.83580000  0.17820000  1
  C  C89  1  0.70650000  0.83210000  0.82120000  1
  C  C90  1  0.04270000  0.82330000  0.72870000  1
  C  C91  1  0.04570000  0.81830000  0.24220000  1
  C  C92  1  0.63250000  0.81350000  0.81180000  1
  C  C93  1  0.64390000  0.81110000  0.20040000  1
  C  C94  1  0.68240000  0.80200000  0.62570000  1
  C  C95  1  0.76230000  0.79610000  0.64310000  1
  C  C96  1  0.68230000  0.79230000  0.37920000  1
  C  C97  1  0.76770000  0.78510000  0.35210000  1
  C  C98  1  0.78510000  0.76770000  0.85210000  1
  C  C99  1  0.79610000  0.76230000  0.14310000  1
  C  C100  1  0.66410000  0.72830000  0.65200000  1
  C  C101  1  0.64920000  0.72820000  0.18890000  1
  C  C102  1  0.64190000  0.72370000  0.83550000  1
  C  C103  1  0.66250000  0.72130000  0.36880000  1
  C  C104  1  0.06730000  0.72110000  0.73060000  1
  C  C105  1  0.06450000  0.71970000  0.25080000  1
  C  C106  1  0.83580000  0.71840000  0.67820000  1
  C  C107  1  0.83210000  0.70650000  0.32120000  1
  C  C108  1  0.80200000  0.68240000  0.12570000  1
  C  C109  1  0.79230000  0.68230000  0.87920000  1
  C  C110  1  0.09270000  0.67670000  0.67560000  1
  C  C111  1  0.05580000  0.67360000  0.78730000  1
  C  C112  1  0.06000000  0.67120000  0.19830000  1
  C  C113  1  0.72830000  0.66410000  0.15200000  1
  C  C114  1  0.72130000  0.66250000  0.86880000  1
  C  C115  1  0.09090000  0.65970000  0.30910000  1
  C  C116  1  0.72820000  0.64920000  0.68890000  1
  C  C117  1  0.81110000  0.64390000  0.70040000  1
  C  C118  1  0.72370000  0.64190000  0.33550000  1
  C  C119  1  0.81350000  0.63250000  0.31180000  1
  C  C120  1  0.87320000  0.61440000  0.92310000  1
  C  C121  1  0.88160000  0.61220000  0.08300000  1
  C  C122  1  0.11600000  0.58200000  0.66970000  1
  C  C123  1  0.07420000  0.57740000  0.78460000  1
  C  C124  1  0.07610000  0.57690000  0.19950000  1
  C  C125  1  0.10840000  0.56540000  0.31060000  1
  C  C126  1  0.10590000  0.53210000  0.72840000  1
  C  C127  1  0.10770000  0.52230000  0.25680000  1
  C  C128  1  0.89230000  0.47770000  0.74320000  1
  C  C129  1  0.89410000  0.46790000  0.27160000  1
  C  C130  1  0.89160000  0.43460000  0.68940000  1
  C  C131  1  0.92390000  0.42310000  0.80050000  1
  C  C132  1  0.92580000  0.42260000  0.21540000  1
  C  C133  1  0.88400000  0.41800000  0.33030000  1
  C  C134  1  0.11840000  0.38780000  0.91700000  1
  C  C135  1  0.12680000  0.38560000  0.07690000  1
  C  C136  1  0.18650000  0.36750000  0.68820000  1
  C  C137  1  0.27630000  0.35810000  0.66450000  1
  C  C138  1  0.18890000  0.35610000  0.29960000  1
  C  C139  1  0.27180000  0.35080000  0.31110000  1
  C  C140  1  0.90910000  0.34030000  0.69090000  1
  C  C141  1  0.27870000  0.33750000  0.13120000  1
  C  C142  1  0.27170000  0.33590000  0.84800000  1
  C  C143  1  0.94000000  0.32880000  0.80170000  1
  C  C144  1  0.94420000  0.32640000  0.21270000  1
  C  C145  1  0.90730000  0.32330000  0.32440000  1
  C  C146  1  0.20770000  0.31770000  0.12080000  1
  C  C147  1  0.19800000  0.31760000  0.87430000  1
  C  C148  1  0.16790000  0.29350000  0.67880000  1
  C  C149  1  0.16420000  0.28160000  0.32180000  1
  C  C150  1  0.93550000  0.28030000  0.74920000  1
  C  C151  1  0.93270000  0.27890000  0.26940000  1
  C  C152  1  0.33750000  0.27870000  0.63120000  1
  C  C153  1  0.35810000  0.27630000  0.16450000  1
  C  C154  1  0.35080000  0.27180000  0.81110000  1
  C  C155  1  0.33590000  0.27170000  0.34800000  1
  C  C156  1  0.20390000  0.23770000  0.85690000  1
  C  C157  1  0.21490000  0.23230000  0.14790000  1
  C  C158  1  0.23230000  0.21490000  0.64790000  1
  C  C159  1  0.31770000  0.20770000  0.62080000  1
  C  C160  1  0.23770000  0.20390000  0.35690000  1
  C  C161  1  0.31760000  0.19800000  0.37430000  1
  C  C162  1  0.35610000  0.18890000  0.79960000  1
  C  C163  1  0.36750000  0.18650000  0.18820000  1
  C  C164  1  0.95430000  0.18170000  0.75780000  1
  C  C165  1  0.95730000  0.17670000  0.27130000  1
  C  C166  1  0.29350000  0.16790000  0.17880000  1
  C  C167  1  0.28160000  0.16420000  0.82180000  1
  C  C168  1  0.38560000  0.12680000  0.57690000  1
  C  C169  1  0.38780000  0.11840000  0.41700000  1
  C  C170  1  0.58200000  0.11600000  0.16970000  1
  C  C171  1  0.56540000  0.10840000  0.81060000  1
  C  C172  1  0.52230000  0.10770000  0.75680000  1
  C  C173  1  0.53210000  0.10590000  0.22840000  1
  C  C174  1  0.67670000  0.09270000  0.17560000  1
  C  C175  1  0.65970000  0.09090000  0.80910000  1
  C  C176  1  0.57690000  0.07610000  0.69950000  1
  C  C177  1  0.57740000  0.07420000  0.28460000  1
  C  C178  1  0.72110000  0.06730000  0.23060000  1
  C  C179  1  0.71970000  0.06450000  0.75080000  1
  C  C180  1  0.67120000  0.06000000  0.69830000  1
  C  C181  1  0.67360000  0.05580000  0.28730000  1
  C  C182  1  0.81830000  0.04570000  0.74220000  1
  C  C183  1  0.82330000  0.04270000  0.22870000  1
  O  O184  1  0.13620000  0.97880000  0.71360000  1
  O  O185  1  0.13570000  0.96890000  0.30810000  1
  O  O186  1  0.14280000  0.95440000  0.20060000  1
  O  O187  1  0.13250000  0.94890000  0.81840000  1
  O  O188  1  0.64250000  0.94170000  0.56200000  1
  O  O189  1  0.63430000  0.93070000  0.43150000  1
  O  O190  1  0.55750000  0.88250000  0.77260000  1
  O  O191  1  0.54320000  0.88140000  0.56950000  1
  O  O192  1  0.56980000  0.87960000  0.23830000  1
  O  O193  1  0.53650000  0.87030000  0.43990000  1
  O  O194  1  0.05110000  0.86750000  0.68160000  1
  O  O195  1  0.03110000  0.86430000  0.19190000  1
  O  O196  1  0.02120000  0.86380000  0.78640000  1
  O  O197  1  0.04560000  0.85720000  0.29940000  1
  O  O198  1  0.94170000  0.64250000  0.06200000  1
  O  O199  1  0.93070000  0.63430000  0.93150000  1
  O  O200  1  0.87960000  0.56980000  0.73830000  1
  O  O201  1  0.88250000  0.55750000  0.27260000  1
  O  O202  1  0.88140000  0.54320000  0.06950000  1
  O  O203  1  0.87030000  0.53650000  0.93990000  1
  O  O204  1  0.12970000  0.46350000  0.06010000  1
  O  O205  1  0.11860000  0.45680000  0.93050000  1
  O  O206  1  0.11750000  0.44250000  0.72740000  1
  O  O207  1  0.12040000  0.43020000  0.26170000  1
  O  O208  1  0.06930000  0.36570000  0.06850000  1
  O  O209  1  0.05830000  0.35750000  0.93800000  1
  O  O210  1  0.95440000  0.14280000  0.70060000  1
  O  O211  1  0.97880000  0.13620000  0.21360000  1
  O  O212  1  0.96890000  0.13570000  0.80810000  1
  O  O213  1  0.94890000  0.13250000  0.31840000  1
  O  O214  1  0.46350000  0.12970000  0.56010000  1
  O  O215  1  0.43020000  0.12040000  0.76170000  1
  O  O216  1  0.45680000  0.11860000  0.43050000  1
  O  O217  1  0.44250000  0.11750000  0.22740000  1
  O  O218  1  0.36570000  0.06930000  0.56850000  1
  O  O219  1  0.35750000  0.05830000  0.43800000  1
  O  O220  1  0.86750000  0.05110000  0.18160000  1
  O  O221  1  0.85720000  0.04560000  0.79940000  1
  O  O222  1  0.86430000  0.03110000  0.69190000  1
  O  O223  1  0.86380000  0.02120000  0.28640000  1
