# generated using pymatgen
data_MgH3C7NO4
_symmetry_space_group_name_H-M   'P 1'
_cell_length_a   11.19290000
_cell_length_b   12.34750000
_cell_length_c   28.67340000
_cell_angle_alpha   98.81600000
_cell_angle_beta   90.00000000
_cell_angle_gamma   90.00000000
_symmetry_Int_Tables_number   1
_chemical_formula_structural   MgH3C7NO4
_chemical_formula_sum   'Mg12 H36 C84 N12 O48'
_cell_volume   3915.97023482
_cell_formula_units_Z   12
loop_
 _symmetry_equiv_pos_site_id
 _symmetry_equiv_pos_as_xyz
  1  'x, y, z'
loop_
 _atom_site_type_symbol
 _atom_site_label
 _atom_site_symmetry_multiplicity
 _atom_site_fract_x
 _atom_site_fract_y
 _atom_site_fract_z
 _atom_site_occupancy
  Mg  Mg0  1  0.04225000  0.05341000  0.33391000  1
  Mg  Mg1  1  0.17327000  0.33707000  0.85988000  1
  Mg  Mg2  1  0.21020000  0.77260000  0.64158000  1
  Mg  Mg3  1  0.28980000  0.27260000  0.14158000  1
  Mg  Mg4  1  0.32673000  0.83707000  0.35988000  1
  Mg  Mg5  1  0.45775000  0.55341000  0.83391000  1
  Mg  Mg6  1  0.54225000  0.44659000  0.16609000  1
  Mg  Mg7  1  0.67327000  0.16293000  0.64012000  1
  Mg  Mg8  1  0.71020000  0.72740000  0.85842000  1
  Mg  Mg9  1  0.78980000  0.22740000  0.35842000  1
  Mg  Mg10  1  0.82673000  0.66293000  0.14012000  1
  Mg  Mg11  1  0.95775000  0.94659000  0.66609000  1
  H  H12  1  0.01600000  0.16800000  0.78410000  1
  H  H13  1  0.03390000  0.35240000  0.11620000  1
  H  H14  1  0.06730000  0.55080000  0.13870000  1
  H  H15  1  0.12800000  0.18250000  0.21570000  1
  H  H16  1  0.14490000  0.14800000  0.43650000  1
  H  H17  1  0.14960000  0.07510000  0.56480000  1
  H  H18  1  0.15640000  0.81560000  0.48540000  1
  H  H19  1  0.19410000  0.19560000  0.73360000  1
  H  H20  1  0.20050000  0.68010000  0.78020000  1
  H  H21  1  0.29950000  0.18010000  0.28020000  1
  H  H22  1  0.30590000  0.69560000  0.23360000  1
  H  H23  1  0.34360000  0.31560000  0.98540000  1
  H  H24  1  0.35040000  0.57510000  0.06480000  1
  H  H25  1  0.35510000  0.64800000  0.93650000  1
  H  H26  1  0.37200000  0.68250000  0.71570000  1
  H  H27  1  0.43270000  0.05080000  0.63870000  1
  H  H28  1  0.46610000  0.85240000  0.61620000  1
  H  H29  1  0.48400000  0.66800000  0.28410000  1
  H  H30  1  0.51600000  0.33200000  0.71590000  1
  H  H31  1  0.53390000  0.14760000  0.38380000  1
  H  H32  1  0.56730000  0.94920000  0.36130000  1
  H  H33  1  0.62800000  0.31750000  0.28430000  1
  H  H34  1  0.64490000  0.35200000  0.06350000  1
  H  H35  1  0.64960000  0.42490000  0.93520000  1
  H  H36  1  0.65640000  0.68440000  0.01460000  1
  H  H37  1  0.69410000  0.30440000  0.76640000  1
  H  H38  1  0.70050000  0.81990000  0.71980000  1
  H  H39  1  0.79950000  0.31990000  0.21980000  1
  H  H40  1  0.80590000  0.80440000  0.26640000  1
  H  H41  1  0.84360000  0.18440000  0.51460000  1
  H  H42  1  0.85040000  0.92490000  0.43520000  1
  H  H43  1  0.85510000  0.85200000  0.56350000  1
  H  H44  1  0.87200000  0.81750000  0.78430000  1
  H  H45  1  0.93270000  0.44920000  0.86130000  1
  H  H46  1  0.96610000  0.64760000  0.88380000  1
  H  H47  1  0.98400000  0.83200000  0.21590000  1
  C  C48  1  0.01350000  0.87359000  0.45275000  1
  C  C49  1  0.01481000  0.32352000  0.14411000  1
  C  C50  1  0.01630000  0.83120000  0.53154000  1
  C  C51  1  0.03768000  0.75231000  0.77425000  1
  C  C52  1  0.03930000  0.77390000  0.20762000  1
  C  C53  1  0.05549000  0.78945000  0.72703000  1
  C  C54  1  0.07070000  0.22571000  0.20243000  1
  C  C55  1  0.07500000  0.83679000  0.48928000  1
  C  C56  1  0.07540000  0.89096000  0.40762000  1
  C  C57  1  0.08540000  0.80260000  0.57310000  1
  C  C58  1  0.08810000  0.60990000  0.16255000  1
  C  C59  1  0.09662000  0.65370000  0.83595000  1
  C  C60  1  0.10450000  0.14290000  0.46526000  1
  C  C61  1  0.10710000  0.10110000  0.54010000  1
  C  C62  1  0.12423000  0.69319000  0.79445000  1
  C  C63  1  0.14940000  0.77890000  0.23091000  1
  C  C64  1  0.17560000  0.86914000  0.27129000  1
  C  C65  1  0.18436000  0.58244000  0.85737000  1
  C  C66  1  0.19959000  0.60778000  0.18358000  1
  C  C67  1  0.21846000  0.01125000  0.67110000  1
  C  C68  1  0.23030000  0.69440000  0.21847000  1
  C  C69  1  0.26970000  0.19440000  0.71847000  1
  C  C70  1  0.28154000  0.51125000  0.17110000  1
  C  C71  1  0.30041000  0.10778000  0.68358000  1
  C  C72  1  0.31564000  0.08244000  0.35737000  1
  C  C73  1  0.32440000  0.36914000  0.77129000  1
  C  C74  1  0.35060000  0.27890000  0.73091000  1
  C  C75  1  0.37577000  0.19319000  0.29445000  1
  C  C76  1  0.39290000  0.60110000  0.04010000  1
  C  C77  1  0.39550000  0.64290000  0.96526000  1
  C  C78  1  0.40338000  0.15370000  0.33595000  1
  C  C79  1  0.41190000  0.10990000  0.66255000  1
  C  C80  1  0.41460000  0.30260000  0.07310000  1
  C  C81  1  0.42460000  0.39096000  0.90762000  1
  C  C82  1  0.42500000  0.33679000  0.98928000  1
  C  C83  1  0.42930000  0.72571000  0.70243000  1
  C  C84  1  0.44451000  0.28945000  0.22703000  1
  C  C85  1  0.46070000  0.27390000  0.70762000  1
  C  C86  1  0.46232000  0.25231000  0.27425000  1
  C  C87  1  0.48370000  0.33120000  0.03154000  1
  C  C88  1  0.48519000  0.82352000  0.64411000  1
  C  C89  1  0.48650000  0.37359000  0.95275000  1
  C  C90  1  0.51350000  0.62641000  0.04725000  1
  C  C91  1  0.51481000  0.17648000  0.35589000  1
  C  C92  1  0.51630000  0.66880000  0.96846000  1
  C  C93  1  0.53768000  0.74769000  0.72575000  1
  C  C94  1  0.53930000  0.72610000  0.29238000  1
  C  C95  1  0.55549000  0.71055000  0.77297000  1
  C  C96  1  0.57070000  0.27429000  0.29757000  1
  C  C97  1  0.57500000  0.66321000  0.01072000  1
  C  C98  1  0.57540000  0.60904000  0.09238000  1
  C  C99  1  0.58540000  0.69740000  0.92690000  1
  C  C100  1  0.58810000  0.89010000  0.33745000  1
  C  C101  1  0.59662000  0.84630000  0.66405000  1
  C  C102  1  0.60450000  0.35710000  0.03474000  1
  C  C103  1  0.60710000  0.39890000  0.95990000  1
  C  C104  1  0.62423000  0.80681000  0.70555000  1
  C  C105  1  0.64940000  0.72110000  0.26909000  1
  C  C106  1  0.67560000  0.63086000  0.22871000  1
  C  C107  1  0.68436000  0.91756000  0.64263000  1
  C  C108  1  0.69959000  0.89222000  0.31642000  1
  C  C109  1  0.71846000  0.48875000  0.82890000  1
  C  C110  1  0.73030000  0.80560000  0.28153000  1
  C  C111  1  0.76970000  0.30560000  0.78153000  1
  C  C112  1  0.78154000  0.98875000  0.32890000  1
  C  C113  1  0.80041000  0.39222000  0.81642000  1
  C  C114  1  0.81564000  0.41756000  0.14263000  1
  C  C115  1  0.82440000  0.13086000  0.72871000  1
  C  C116  1  0.85060000  0.22110000  0.76909000  1
  C  C117  1  0.87577000  0.30681000  0.20555000  1
  C  C118  1  0.89290000  0.89890000  0.45990000  1
  C  C119  1  0.89550000  0.85710000  0.53474000  1
  C  C120  1  0.90338000  0.34630000  0.16405000  1
  C  C121  1  0.91190000  0.39010000  0.83745000  1
  C  C122  1  0.91460000  0.19740000  0.42690000  1
  C  C123  1  0.92460000  0.10904000  0.59238000  1
  C  C124  1  0.92500000  0.16321000  0.51072000  1
  C  C125  1  0.92930000  0.77429000  0.79757000  1
  C  C126  1  0.94451000  0.21055000  0.27297000  1
  C  C127  1  0.96070000  0.22610000  0.79238000  1
  C  C128  1  0.96232000  0.24769000  0.22575000  1
  C  C129  1  0.98370000  0.16880000  0.46846000  1
  C  C130  1  0.98519000  0.67648000  0.85589000  1
  C  C131  1  0.98650000  0.12641000  0.54725000  1
  N  N132  1  0.00816000  0.69050000  0.17400000  1
  N  N133  1  0.09787000  0.26259000  0.16220000  1
  N  N134  1  0.16679000  0.11120000  0.50050000  1
  N  N135  1  0.33321000  0.61120000  0.00050000  1
  N  N136  1  0.40213000  0.76259000  0.66220000  1
  N  N137  1  0.49184000  0.19050000  0.67400000  1
  N  N138  1  0.50816000  0.80950000  0.32600000  1
  N  N139  1  0.59787000  0.23741000  0.33780000  1
  N  N140  1  0.66679000  0.38880000  0.99950000  1
  N  N141  1  0.83321000  0.88880000  0.49950000  1
  N  N142  1  0.90213000  0.73741000  0.83780000  1
  N  N143  1  0.99184000  0.30950000  0.82600000  1
  O  O144  1  0.02361000  0.95188000  0.38317000  1
  O  O145  1  0.03199000  0.16794000  0.28969000  1
  O  O146  1  0.03789000  0.81683000  0.61406000  1
  O  O147  1  0.10559000  0.94797000  0.27734000  1
  O  O148  1  0.11930000  0.01499000  0.69077000  1
  O  O149  1  0.14225000  0.50547000  0.87635000  1
  O  O150  1  0.15693000  0.77196000  0.70825000  1
  O  O151  1  0.17299000  0.84242000  0.39890000  1
  O  O152  1  0.18961000  0.76521000  0.56698000  1
  O  O153  1  0.20799000  0.10735000  0.35442000  1
  O  O154  1  0.23461000  0.35540000  0.79580000  1
  O  O155  1  0.24105000  0.43202000  0.14255000  1
  O  O156  1  0.25895000  0.93202000  0.64255000  1
  O  O157  1  0.26539000  0.85540000  0.29580000  1
  O  O158  1  0.29201000  0.60735000  0.85442000  1
  O  O159  1  0.31039000  0.26521000  0.06698000  1
  O  O160  1  0.32701000  0.34242000  0.89890000  1
  O  O161  1  0.34307000  0.27196000  0.20825000  1
  O  O162  1  0.35775000  0.00547000  0.37635000  1
  O  O163  1  0.38070000  0.51499000  0.19077000  1
  O  O164  1  0.39441000  0.44797000  0.77734000  1
  O  O165  1  0.46211000  0.31683000  0.11406000  1
  O  O166  1  0.46801000  0.66794000  0.78969000  1
  O  O167  1  0.47639000  0.45188000  0.88317000  1
  O  O168  1  0.52361000  0.54812000  0.11683000  1
  O  O169  1  0.53199000  0.33206000  0.21031000  1
  O  O170  1  0.53789000  0.68317000  0.88594000  1
  O  O171  1  0.60559000  0.55203000  0.22266000  1
  O  O172  1  0.61930000  0.48501000  0.80923000  1
  O  O173  1  0.64225000  0.99453000  0.62365000  1
  O  O174  1  0.65693000  0.72804000  0.79175000  1
  O  O175  1  0.67299000  0.65758000  0.10110000  1
  O  O176  1  0.68961000  0.73479000  0.93302000  1
  O  O177  1  0.70799000  0.39265000  0.14558000  1
  O  O178  1  0.73461000  0.14460000  0.70420000  1
  O  O179  1  0.74105000  0.06798000  0.35745000  1
  O  O180  1  0.75895000  0.56798000  0.85745000  1
  O  O181  1  0.76539000  0.64460000  0.20420000  1
  O  O182  1  0.79201000  0.89265000  0.64558000  1
  O  O183  1  0.81039000  0.23479000  0.43302000  1
  O  O184  1  0.82701000  0.15758000  0.60110000  1
  O  O185  1  0.84307000  0.22804000  0.29175000  1
  O  O186  1  0.85775000  0.49453000  0.12365000  1
  O  O187  1  0.88070000  0.98501000  0.30923000  1
  O  O188  1  0.89441000  0.05203000  0.72266000  1
  O  O189  1  0.96211000  0.18317000  0.38594000  1
  O  O190  1  0.96801000  0.83206000  0.71031000  1
  O  O191  1  0.97639000  0.04812000  0.61683000  1
