# generated using pymatgen
data_Zn6H88C123(N2O3)10
_symmetry_space_group_name_H-M   'P 1'
_cell_length_a   18.11580000
_cell_length_b   22.15200000
_cell_length_c   30.71800000
_cell_angle_alpha   82.20820000
_cell_angle_beta   72.85010000
_cell_angle_gamma   65.86440000
_symmetry_Int_Tables_number   1
_chemical_formula_structural   Zn6H88C123(N2O3)10
_chemical_formula_sum   'Zn12 H176 C246 N40 O60'
_cell_volume   10747.74910251
_cell_formula_units_Z   2
loop_
 _symmetry_equiv_pos_site_id
 _symmetry_equiv_pos_as_xyz
  1  'x, y, z'
loop_
 _atom_site_type_symbol
 _atom_site_label
 _atom_site_symmetry_multiplicity
 _atom_site_fract_x
 _atom_site_fract_y
 _atom_site_fract_z
 _atom_site_occupancy
  Zn  Zn0  1  0.00991000  0.28508000  0.31130000  1
  Zn  Zn1  1  0.08562000  0.23382000  0.19432000  1
  Zn  Zn2  1  0.12807000  0.91269000  0.70546000  1
  Zn  Zn3  1  0.25378000  0.41269000  0.20546000  1
  Zn  Zn4  1  0.39371000  0.78508000  0.81130000  1
  Zn  Zn5  1  0.48624000  0.73382000  0.69432000  1
  Zn  Zn6  1  0.51376000  0.26618000  0.30568000  1
  Zn  Zn7  1  0.60629000  0.21492000  0.18870000  1
  Zn  Zn8  1  0.74622000  0.58731000  0.79454000  1
  Zn  Zn9  1  0.87193000  0.08731000  0.29454000  1
  Zn  Zn10  1  0.91438000  0.76618000  0.80568000  1
  Zn  Zn11  1  0.99009000  0.71492000  0.68870000  1
  H  H12  1  0.00090000  0.86240000  0.12520000  1
  H  H13  1  0.00240000  0.41220000  0.92520000  1
  H  H14  1  0.01150000  0.36240000  0.62520000  1
  H  H15  1  0.01180000  0.90530000  0.79130000  1
  H  H16  1  0.02280000  0.06090000  0.81490000  1
  H  H17  1  0.02620000  0.18320000  0.61500000  1
  H  H18  1  0.03620000  0.13300000  0.18320000  1
  H  H19  1  0.04490000  0.67630000  0.05710000  1
  H  H20  1  0.05390000  0.84130000  0.81110000  1
  H  H21  1  0.05910000  0.75300000  0.92240000  1
  H  H22  1  0.06900000  0.76400000  0.09220000  1
  H  H23  1  0.07480000  0.26400000  0.59220000  1
  H  H24  1  0.07810000  0.19280000  0.93280000  1
  H  H25  1  0.08350000  0.47420000  0.90500000  1
  H  H26  1  0.08700000  0.80440000  0.32400000  1
  H  H27  1  0.09380000  0.35700000  0.07880000  1
  H  H28  1  0.09520000  0.58100000  0.13700000  1
  H  H29  1  0.09940000  0.51410000  0.62550000  1
  H  H30  1  0.10140000  0.56090000  0.31490000  1
  H  H31  1  0.10480000  0.91660000  0.29060000  1
  H  H32  1  0.10490000  0.69200000  0.01300000  1
  H  H33  1  0.11110000  0.77110000  0.63230000  1
  H  H34  1  0.12530000  0.40120000  0.60800000  1
  H  H35  1  0.12570000  0.36440000  0.32220000  1
  H  H36  1  0.13450000  0.09880000  0.89200000  1
  H  H37  1  0.13460000  0.41960000  0.29300000  1
  H  H38  1  0.14010000  0.20430000  0.98390000  1
  H  H39  1  0.14190000  0.43240000  0.02340000  1
  H  H40  1  0.14360000  0.81950000  0.63650000  1
  H  H41  1  0.14900000  0.48850000  0.95430000  1
  H  H42  1  0.15280000  0.91960000  0.79300000  1
  H  H43  1  0.16670000  0.66780000  0.39200000  1
  H  H44  1  0.17560000  0.68320000  0.11500000  1
  H  H45  1  0.18210000  0.92530000  0.15010000  1
  H  H46  1  0.18340000  0.03790000  0.15230000  1
  H  H47  1  0.18630000  0.33100000  0.13520000  1
  H  H48  1  0.18680000  0.08100000  0.63700000  1
  H  H49  1  0.18750000  0.62590000  0.94550000  1
  H  H50  1  0.18760000  0.68780000  0.45660000  1
  H  H51  1  0.18770000  0.86440000  0.82220000  1
  H  H52  1  0.19010000  0.19200000  0.51300000  1
  H  H53  1  0.20370000  0.30720000  0.56720000  1
  H  H54  1  0.20530000  0.92880000  0.55400000  1
  H  H55  1  0.21540000  0.69560000  0.17600000  1
  H  H56  1  0.22170000  0.17630000  0.55710000  1
  H  H57  1  0.22310000  0.76930000  0.27290000  1
  H  H58  1  0.22650000  0.83220000  0.10800000  1
  H  H59  1  0.23130000  0.91990000  0.47110000  1
  H  H60  1  0.23900000  0.98590000  0.87450000  1
  H  H61  1  0.24110000  0.12590000  0.44550000  1
  H  H62  1  0.25100000  0.63140000  0.58360000  1
  H  H63  1  0.25750000  0.57470000  0.34990000  1
  H  H64  1  0.26130000  0.06560000  0.38620000  1
  H  H65  1  0.26290000  0.31980000  0.14700000  1
  H  H66  1  0.26480000  0.95750000  0.39810000  1
  H  H67  1  0.26530000  0.73070000  0.22710000  1
  H  H68  1  0.26550000  0.25300000  0.42240000  1
  H  H69  1  0.26580000  0.12620000  0.99080000  1
  H  H70  1  0.27030000  0.81980000  0.64700000  1
  H  H71  1  0.27640000  0.60580000  0.49180000  1
  H  H72  1  0.28690000  0.56560000  0.88620000  1
  H  H73  1  0.29160000  0.40530000  0.29130000  1
  H  H74  1  0.29370000  0.34130000  0.31110000  1
  H  H75  1  0.31190000  0.42880000  0.05400000  1
  H  H76  1  0.31200000  0.58340000  0.20940000  1
  H  H77  1  0.32320000  0.14500000  0.06280000  1
  H  H78  1  0.32830000  0.29570000  0.51610000  1
  H  H79  1  0.33200000  0.81220000  0.04340000  1
  H  H80  1  0.33980000  0.08780000  0.57480000  1
  H  H81  1  0.34750000  0.83100000  0.63520000  1
  H  H82  1  0.35240000  0.36700000  0.31680000  1
  H  H83  1  0.37360000  0.46210000  0.34770000  1
  H  H84  1  0.37400000  0.89420000  0.00820000  1
  H  H85  1  0.37770000  0.41990000  0.97110000  1
  H  H86  1  0.37960000  0.45750000  0.89810000  1
  H  H87  1  0.38280000  0.37380000  0.50920000  1
  H  H88  1  0.39430000  0.53350000  0.51290000  1
  H  H89  1  0.40040000  0.31950000  0.13650000  1
  H  H90  1  0.40230000  0.93240000  0.52340000  1
  H  H91  1  0.40600000  0.04370000  0.98230000  1
  H  H92  1  0.40820000  0.98850000  0.45430000  1
  H  H93  1  0.43200000  0.45630000  0.51770000  1
  H  H94  1  0.44070000  0.96650000  0.98710000  1
  H  H95  1  0.46270000  0.02580000  0.59500000  1
  H  H96  1  0.46600000  0.86860000  0.91640000  1
  H  H97  1  0.46900000  0.64500000  0.56280000  1
  H  H98  1  0.47040000  0.85700000  0.57880000  1
  H  H99  1  0.48550000  0.27110000  0.13230000  1
  H  H100  1  0.51450000  0.72890000  0.86770000  1
  H  H101  1  0.52960000  0.14300000  0.42120000  1
  H  H102  1  0.53100000  0.35500000  0.43720000  1
  H  H103  1  0.53400000  0.13140000  0.08360000  1
  H  H104  1  0.53730000  0.97420000  0.40500000  1
  H  H105  1  0.55930000  0.03350000  0.01290000  1
  H  H106  1  0.56800000  0.54370000  0.48230000  1
  H  H107  1  0.59180000  0.01150000  0.54570000  1
  H  H108  1  0.59400000  0.95630000  0.01770000  1
  H  H109  1  0.59770000  0.06760000  0.47660000  1
  H  H110  1  0.59960000  0.68050000  0.86350000  1
  H  H111  1  0.60570000  0.46650000  0.48710000  1
  H  H112  1  0.61720000  0.62620000  0.49080000  1
  H  H113  1  0.62040000  0.54250000  0.10190000  1
  H  H114  1  0.62230000  0.58010000  0.02890000  1
  H  H115  1  0.62600000  0.10580000  0.99180000  1
  H  H116  1  0.62640000  0.53790000  0.65230000  1
  H  H117  1  0.64760000  0.63300000  0.68320000  1
  H  H118  1  0.65250000  0.16900000  0.36480000  1
  H  H119  1  0.66020000  0.91220000  0.42520000  1
  H  H120  1  0.66800000  0.18780000  0.95660000  1
  H  H121  1  0.67170000  0.70430000  0.48390000  1
  H  H122  1  0.67680000  0.85500000  0.93720000  1
  H  H123  1  0.68800000  0.41660000  0.79060000  1
  H  H124  1  0.68810000  0.57120000  0.94600000  1
  H  H125  1  0.70630000  0.65870000  0.68890000  1
  H  H126  1  0.70840000  0.59470000  0.70870000  1
  H  H127  1  0.71310000  0.43440000  0.11380000  1
  H  H128  1  0.72360000  0.39420000  0.50820000  1
  H  H129  1  0.72970000  0.18020000  0.35300000  1
  H  H130  1  0.73420000  0.87380000  0.00920000  1
  H  H131  1  0.73450000  0.74700000  0.57760000  1
  H  H132  1  0.73470000  0.26930000  0.77290000  1
  H  H133  1  0.73520000  0.04250000  0.60190000  1
  H  H134  1  0.73710000  0.68020000  0.85300000  1
  H  H135  1  0.73870000  0.93440000  0.61380000  1
  H  H136  1  0.74250000  0.42530000  0.65010000  1
  H  H137  1  0.74900000  0.36860000  0.41640000  1
  H  H138  1  0.75890000  0.87410000  0.55450000  1
  H  H139  1  0.76100000  0.01410000  0.12550000  1
  H  H140  1  0.76870000  0.08010000  0.52890000  1
  H  H141  1  0.77350000  0.16780000  0.89200000  1
  H  H142  1  0.77690000  0.23070000  0.72710000  1
  H  H143  1  0.77830000  0.82370000  0.44290000  1
  H  H144  1  0.78460000  0.30440000  0.82400000  1
  H  H145  1  0.79470000  0.07120000  0.44600000  1
  H  H146  1  0.79630000  0.69280000  0.43280000  1
  H  H147  1  0.80990000  0.80800000  0.48700000  1
  H  H148  1  0.81230000  0.13560000  0.17780000  1
  H  H149  1  0.81240000  0.31220000  0.54340000  1
  H  H150  1  0.81250000  0.37410000  0.05450000  1
  H  H151  1  0.81320000  0.91900000  0.36300000  1
  H  H152  1  0.81370000  0.66900000  0.86480000  1
  H  H153  1  0.81660000  0.96210000  0.84770000  1
  H  H154  1  0.81790000  0.07470000  0.84990000  1
  H  H155  1  0.82440000  0.31680000  0.88500000  1
  H  H156  1  0.83330000  0.33220000  0.60800000  1
  H  H157  1  0.84720000  0.08040000  0.20700000  1
  H  H158  1  0.85100000  0.51150000  0.04570000  1
  H  H159  1  0.85640000  0.18050000  0.36350000  1
  H  H160  1  0.85810000  0.56760000  0.97660000  1
  H  H161  1  0.85990000  0.79570000  0.01610000  1
  H  H162  1  0.86540000  0.58040000  0.70700000  1
  H  H163  1  0.86550000  0.90120000  0.10800000  1
  H  H164  1  0.87430000  0.63560000  0.67780000  1
  H  H165  1  0.87470000  0.59880000  0.39200000  1
  H  H166  1  0.88890000  0.22890000  0.36770000  1
  H  H167  1  0.89510000  0.30800000  0.98700000  1
  H  H168  1  0.89520000  0.08340000  0.70940000  1
  H  H169  1  0.89860000  0.43910000  0.68510000  1
  H  H170  1  0.90060000  0.48590000  0.37450000  1
  H  H171  1  0.90480000  0.41900000  0.86300000  1
  H  H172  1  0.90620000  0.64300000  0.92120000  1
  H  H173  1  0.91300000  0.19560000  0.67600000  1
  H  H174  1  0.91650000  0.52580000  0.09500000  1
  H  H175  1  0.92190000  0.80720000  0.06720000  1
  H  H176  1  0.92520000  0.73600000  0.40780000  1
  H  H177  1  0.93100000  0.23600000  0.90780000  1
  H  H178  1  0.94090000  0.24700000  0.07760000  1
  H  H179  1  0.94610000  0.15870000  0.18890000  1
  H  H180  1  0.95510000  0.32370000  0.94290000  1
  H  H181  1  0.96380000  0.86700000  0.81680000  1
  H  H182  1  0.97380000  0.81680000  0.38500000  1
  H  H183  1  0.97720000  0.93910000  0.18510000  1
  H  H184  1  0.98820000  0.09470000  0.20870000  1
  H  H185  1  0.98850000  0.63760000  0.37480000  1
  H  H186  1  0.99760000  0.58780000  0.07480000  1
  H  H187  1  0.99910000  0.13760000  0.87480000  1
  C  C188  1  0.00120000  0.77710000  0.36950000  1
  C  C189  1  0.00459000  0.02005000  0.74457000  1
  C  C190  1  0.00990000  0.67010000  0.36370000  1
  C  C191  1  0.02058000  0.90599000  0.19525000  1
  C  C192  1  0.02103000  0.69463000  0.95891000  1
  C  C193  1  0.02275000  0.30971000  0.07139000  1
  C  C194  1  0.02380000  0.27150000  0.11390000  1
  C  C195  1  0.02418000  0.38124000  0.98780000  1
  C  C196  1  0.02470000  0.65861000  0.99879000  1
  C  C197  1  0.02593000  0.83475000  0.75899000  1
  C  C198  1  0.02730000  0.27160000  0.61660000  1
  C  C199  1  0.03048000  0.41524000  0.94520000  1
  C  C200  1  0.04292000  0.91751000  0.23185000  1
  C  C201  1  0.04370000  0.82990000  0.13630000  1
  C  C202  1  0.06340000  0.84390000  0.17310000  1
  C  C203  1  0.06607000  0.80986000  0.68940000  1
  C  C204  1  0.06639000  0.35195000  0.05907000  1
  C  C205  1  0.06887000  0.38696000  0.01690000  1
  C  C206  1  0.06892000  0.76976000  0.33320000  1
  C  C207  1  0.07850000  0.45330000  0.93350000  1
  C  C208  1  0.08014000  0.66022000  0.02710000  1
  C  C209  1  0.08040000  0.65610000  0.32690000  1
  C  C210  1  0.08450000  0.77160000  0.11660000  1
  C  C211  1  0.10901000  0.86718000  0.24740000  1
  C  C212  1  0.11324000  0.70742000  0.30870000  1
  C  C213  1  0.11428000  0.42774000  0.00370000  1
  C  C214  1  0.11910000  0.46120000  0.96240000  1
  C  C215  1  0.12182000  0.59401000  0.30475000  1
  C  C216  1  0.12341000  0.35785000  0.26313000  1
  C  C217  1  0.12520000  0.62080000  0.62920000  1
  C  C218  1  0.12750000  0.15900000  0.93660000  1
  C  C219  1  0.12936000  0.79258000  0.19130000  1
  C  C220  1  0.14780000  0.72290000  0.13050000  1
  C  C221  1  0.15013000  0.56804000  0.07750000  1
  C  C222  1  0.15032000  0.80406000  0.22790000  1
  C  C223  1  0.15072000  0.59436000  0.03280000  1
  C  C224  1  0.15180000  0.50920000  0.60640000  1
  C  C225  1  0.16110000  0.10330000  0.91230000  1
  C  C226  1  0.16520000  0.16630000  0.96650000  1
  C  C227  1  0.17188000  0.73024000  0.16680000  1
  C  C228  1  0.17391000  0.98028000  0.63270000  1
  C  C229  1  0.17670000  0.39670000  0.58770000  1
  C  C230  1  0.17716000  0.31722000  0.19666000  1
  C  C231  1  0.17790000  0.56000000  0.60120000  1
  C  C232  1  0.18228000  0.69594000  0.27210000  1
  C  C233  1  0.19228000  0.58249000  0.26815000  1
  C  C234  1  0.19541000  0.00666000  0.58532000  1
  C  C235  1  0.20433000  0.06804000  0.57750000  1
  C  C236  1  0.20460000  0.44770000  0.58250000  1
  C  C237  1  0.20833000  0.97013000  0.54901000  1
  C  C238  1  0.20990000  0.63610000  0.40310000  1
  C  C239  1  0.21173000  0.55994000  0.99620000  1
  C  C240  1  0.21261000  0.50666000  0.08532000  1
  C  C241  1  0.21270000  0.75000000  0.25000000  1
  C  C242  1  0.21311000  0.48028000  0.13270000  1
  C  C243  1  0.21940000  0.64690000  0.44290000  1
  C  C244  1  0.22010000  0.92010000  0.12150000  1
  C  C245  1  0.22212000  0.09436000  0.53280000  1
  C  C246  1  0.22310000  0.34100000  0.56340000  1
  C  C247  1  0.22320000  0.58330000  0.95130000  1
  C  C248  1  0.22358000  0.03064000  0.12440000  1
  C  C249  1  0.22359000  0.63282000  0.25260000  1
  C  C250  1  0.22480000  0.13800000  0.13220000  1
  C  C251  1  0.22634000  0.99562000  0.50370000  1
  C  C252  1  0.23079000  0.52005000  0.24457000  1
  C  C253  1  0.23213000  0.05994000  0.49620000  1
  C  C254  1  0.23254000  0.16022000  0.52710000  1
  C  C255  1  0.23480000  0.05230000  0.91750000  1
  C  C256  1  0.23650000  0.96040000  0.46600000  1
  C  C257  1  0.23950000  0.11880000  0.97140000  1
  C  C258  1  0.24220000  0.08330000  0.45130000  1
  C  C259  1  0.24910000  0.86390000  0.09690000  1
  C  C260  1  0.25070000  0.96920000  0.10160000  1
  C  C261  1  0.25350000  0.04770000  0.41550000  1
  C  C262  1  0.25350000  0.98340000  0.42260000  1
  C  C263  1  0.25352000  0.07726000  0.10730000  1
  C  C264  1  0.25561000  0.85785000  0.76313000  1
  C  C265  1  0.25830000  0.55190000  0.57090000  1
  C  C266  1  0.26170000  0.57990000  0.37850000  1
  C  C267  1  0.26740000  0.99080000  0.89360000  1
  C  C268  1  0.27253000  0.47013000  0.04901000  1
  C  C269  1  0.27430000  0.59920000  0.46300000  1
  C  C270  1  0.27434000  0.49562000  0.00370000  1
  C  C271  1  0.27860000  0.05680000  0.94740000  1
  C  C272  1  0.28280000  0.44320000  0.55260000  1
  C  C273  1  0.28330000  0.54770000  0.91550000  1
  C  C274  1  0.29800000  0.33370000  0.53350000  1
  C  C275  1  0.30776000  0.49658000  0.54590000  1
  C  C276  1  0.30797000  0.96146000  0.05980000  1
  C  C277  1  0.30896000  0.81722000  0.69666000  1
  C  C278  1  0.30920000  0.85310000  0.05710000  1
  C  C279  1  0.31189000  0.06612000  0.06370000  1
  C  C280  1  0.31790000  0.15861000  0.49879000  1
  C  C281  1  0.32150000  0.53080000  0.39840000  1
  C  C282  1  0.32543000  0.19463000  0.45891000  1
  C  C283  1  0.32923000  0.53854000  0.44020000  1
  C  C284  1  0.32970000  0.38120000  0.52860000  1
  C  C285  1  0.33587000  0.01176000  0.03950000  1
  C  C286  1  0.33650000  0.90080000  0.03700000  1
  C  C287  1  0.33710000  0.46040000  0.96600000  1
  C  C288  1  0.33910000  0.94000000  0.89880000  1
  C  C289  1  0.34050000  0.48340000  0.92260000  1
  C  C290  1  0.35024000  0.00342000  0.95410000  1
  C  C291  1  0.37520000  0.87920000  0.87080000  1
  C  C292  1  0.37862000  0.46936000  0.37560000  1
  C  C293  1  0.38033000  0.33475000  0.25899000  1
  C  C294  1  0.38110000  0.94810000  0.92910000  1
  C  C295  1  0.38517000  0.49386000  0.51060000  1
  C  C296  1  0.38713000  0.48824000  0.46050000  1
  C  C297  1  0.38963000  0.00614000  0.98940000  1
  C  C298  1  0.39092000  0.08476000  0.55480000  1
  C  C299  1  0.39322000  0.11876000  0.51220000  1
  C  C300  1  0.40385000  0.19029000  0.42861000  1
  C  C301  1  0.40920000  0.22850000  0.38610000  1
  C  C302  1  0.43467000  0.30986000  0.18940000  1
  C  C303  1  0.43808000  0.42274000  0.39270000  1
  C  C304  1  0.44171000  0.43388000  0.43630000  1
  C  C305  1  0.45428000  0.92774000  0.50370000  1
  C  C306  1  0.45730000  0.96120000  0.46240000  1
  C  C307  1  0.46530000  0.04670000  0.56650000  1
  C  C308  1  0.47273000  0.11304000  0.48310000  1
  C  C309  1  0.47741000  0.14805000  0.44093000  1
  C  C310  1  0.49500000  0.36200000  0.36780000  1
  C  C311  1  0.50500000  0.63800000  0.63220000  1
  C  C312  1  0.52259000  0.85195000  0.55907000  1
  C  C313  1  0.52727000  0.88696000  0.51690000  1
  C  C314  1  0.53470000  0.95330000  0.43350000  1
  C  C315  1  0.54270000  0.03880000  0.53760000  1
  C  C316  1  0.54572000  0.07226000  0.49630000  1
  C  C317  1  0.55829000  0.56612000  0.56370000  1
  C  C318  1  0.56192000  0.57726000  0.60730000  1
  C  C319  1  0.56533000  0.69014000  0.81060000  1
  C  C320  1  0.59080000  0.77150000  0.61390000  1
  C  C321  1  0.59615000  0.80971000  0.57139000  1
  C  C322  1  0.60678000  0.88124000  0.48780000  1
  C  C323  1  0.60908000  0.91524000  0.44520000  1
  C  C324  1  0.61037000  0.99386000  0.01060000  1
  C  C325  1  0.61287000  0.51176000  0.53950000  1
  C  C326  1  0.61483000  0.50614000  0.48940000  1
  C  C327  1  0.61890000  0.05190000  0.07090000  1
  C  C328  1  0.61967000  0.66525000  0.74101000  1
  C  C329  1  0.62138000  0.53064000  0.62440000  1
  C  C330  1  0.62480000  0.12080000  0.12920000  1
  C  C331  1  0.64976000  0.99658000  0.04590000  1
  C  C332  1  0.65950000  0.51660000  0.07740000  1
  C  C333  1  0.66090000  0.06000000  0.10120000  1
  C  C334  1  0.66290000  0.53960000  0.03400000  1
  C  C335  1  0.66350000  0.09920000  0.96300000  1
  C  C336  1  0.66413000  0.98824000  0.96050000  1
  C  C337  1  0.67030000  0.61880000  0.47140000  1
  C  C338  1  0.67077000  0.46146000  0.55980000  1
  C  C339  1  0.67457000  0.80537000  0.54109000  1
  C  C340  1  0.67850000  0.46920000  0.60160000  1
  C  C341  1  0.68210000  0.84139000  0.50121000  1
  C  C342  1  0.68811000  0.93388000  0.93630000  1
  C  C343  1  0.69080000  0.14690000  0.94290000  1
  C  C344  1  0.69104000  0.18278000  0.30334000  1
  C  C345  1  0.69203000  0.03854000  0.94020000  1
  C  C346  1  0.69224000  0.50342000  0.45410000  1
  C  C347  1  0.70200000  0.66630000  0.46650000  1
  C  C348  1  0.71670000  0.45230000  0.08450000  1
  C  C349  1  0.71720000  0.55680000  0.44740000  1
  C  C350  1  0.72140000  0.94320000  0.05260000  1
  C  C351  1  0.72566000  0.50438000  0.99630000  1
  C  C352  1  0.72570000  0.40080000  0.53700000  1
  C  C353  1  0.72747000  0.52987000  0.95099000  1
  C  C354  1  0.73260000  0.00920000  0.10640000  1
  C  C355  1  0.73830000  0.42010000  0.62150000  1
  C  C356  1  0.74170000  0.44810000  0.42910000  1
  C  C357  1  0.74439000  0.14215000  0.23687000  1
  C  C358  1  0.74648000  0.92274000  0.89270000  1
  C  C359  1  0.74650000  0.01660000  0.57740000  1
  C  C360  1  0.74650000  0.95230000  0.58450000  1
  C  C361  1  0.74930000  0.03080000  0.89840000  1
  C  C362  1  0.75090000  0.13610000  0.90310000  1
  C  C363  1  0.75780000  0.91670000  0.54870000  1
  C  C364  1  0.76050000  0.88120000  0.02860000  1
  C  C365  1  0.76350000  0.03960000  0.53400000  1
  C  C366  1  0.76520000  0.94770000  0.08250000  1
  C  C367  1  0.76746000  0.83978000  0.47290000  1
  C  C368  1  0.76787000  0.94006000  0.50380000  1
  C  C369  1  0.76921000  0.47995000  0.75543000  1
  C  C370  1  0.77366000  0.00438000  0.49630000  1
  C  C371  1  0.77520000  0.86200000  0.86780000  1
  C  C372  1  0.77641000  0.36718000  0.74740000  1
  C  C373  1  0.77642000  0.96936000  0.87560000  1
  C  C374  1  0.77680000  0.41670000  0.04870000  1
  C  C375  1  0.77690000  0.65900000  0.43660000  1
  C  C376  1  0.77788000  0.90564000  0.46720000  1
  C  C377  1  0.77990000  0.07990000  0.87850000  1
  C  C378  1  0.78060000  0.35310000  0.55710000  1
  C  C379  1  0.78689000  0.51972000  0.86730000  1
  C  C380  1  0.78730000  0.25000000  0.75000000  1
  C  C381  1  0.78739000  0.49334000  0.91468000  1
  C  C382  1  0.78827000  0.44006000  0.00380000  1
  C  C383  1  0.79010000  0.36390000  0.59690000  1
  C  C384  1  0.79167000  0.02987000  0.45099000  1
  C  C385  1  0.79540000  0.55230000  0.41750000  1
  C  C386  1  0.79567000  0.93196000  0.42250000  1
  C  C387  1  0.80459000  0.99334000  0.41468000  1
  C  C388  1  0.80772000  0.41751000  0.73185000  1
  C  C389  1  0.81772000  0.30406000  0.72790000  1
  C  C390  1  0.82210000  0.44000000  0.39880000  1
  C  C391  1  0.82284000  0.68278000  0.80334000  1
  C  C392  1  0.82330000  0.60330000  0.41230000  1
  C  C393  1  0.82609000  0.01972000  0.36730000  1
  C  C394  1  0.82812000  0.26976000  0.83320000  1
  C  C395  1  0.83480000  0.83370000  0.03350000  1
  C  C396  1  0.83890000  0.89670000  0.08770000  1
  C  C397  1  0.84820000  0.49080000  0.39360000  1
  C  C398  1  0.84928000  0.40564000  0.96720000  1
  C  C399  1  0.84968000  0.19594000  0.77210000  1
  C  C400  1  0.84987000  0.43196000  0.92250000  1
  C  C401  1  0.85220000  0.27710000  0.86950000  1
  C  C402  1  0.87064000  0.20742000  0.80870000  1
  C  C403  1  0.87250000  0.84100000  0.06340000  1
  C  C404  1  0.87480000  0.37920000  0.37080000  1
  C  C405  1  0.87659000  0.64215000  0.73687000  1
  C  C406  1  0.87818000  0.40599000  0.69525000  1
  C  C407  1  0.88090000  0.53880000  0.03760000  1
  C  C408  1  0.88572000  0.57226000  0.99630000  1
  C  C409  1  0.88676000  0.29258000  0.69130000  1
  C  C410  1  0.89099000  0.13282000  0.75260000  1
  C  C411  1  0.91550000  0.22840000  0.88340000  1
  C  C412  1  0.91960000  0.34390000  0.67310000  1
  C  C413  1  0.91986000  0.33978000  0.97290000  1
  C  C414  1  0.92150000  0.54670000  0.06650000  1
  C  C415  1  0.93108000  0.23024000  0.66680000  1
  C  C416  1  0.93113000  0.61304000  0.98310000  1
  C  C417  1  0.93361000  0.64805000  0.94093000  1
  C  C418  1  0.93393000  0.19014000  0.31060000  1
  C  C419  1  0.93660000  0.15610000  0.82690000  1
  C  C420  1  0.95630000  0.17010000  0.86370000  1
  C  C421  1  0.95708000  0.08249000  0.76815000  1
  C  C422  1  0.96952000  0.58476000  0.05480000  1
  C  C423  1  0.97270000  0.72840000  0.38340000  1
  C  C424  1  0.97407000  0.16525000  0.24101000  1
  C  C425  1  0.97530000  0.34139000  0.00121000  1
  C  C426  1  0.97582000  0.61876000  0.01220000  1
  C  C427  1  0.97620000  0.72850000  0.88610000  1
  C  C428  1  0.97725000  0.69029000  0.92861000  1
  C  C429  1  0.97897000  0.30537000  0.04109000  1
  C  C430  1  0.97942000  0.09401000  0.80475000  1
  C  C431  1  0.99010000  0.32990000  0.63630000  1
  C  C432  1  0.99541000  0.97995000  0.25543000  1
  C  C433  1  0.99880000  0.22290000  0.63050000  1
  N  N434  1  0.00313000  0.20974000  0.24180000  1
  N  N435  1  0.01274000  0.86459000  0.79793000  1
  N  N436  1  0.02410000  0.77338000  0.71082000  1
  N  N437  1  0.07064000  0.84979000  0.71693000  1
  N  N438  1  0.09326000  0.31332000  0.26276000  1
  N  N439  1  0.09779000  0.81063000  0.64299000  1
  N  N440  1  0.10748000  0.39255000  0.30049000  1
  N  N441  1  0.12786000  0.28798000  0.21810000  1
  N  N442  1  0.17785000  0.36286000  0.22284000  1
  N  N443  1  0.19948000  0.89255000  0.80049000  1
  N  N444  1  0.22029000  0.30711000  0.15251000  1
  N  N445  1  0.23645000  0.86286000  0.72284000  1
  N  N446  1  0.32009000  0.80711000  0.65251000  1
  N  N447  1  0.32474000  0.36459000  0.29793000  1
  N  N448  1  0.33066000  0.81332000  0.76276000  1
  N  N449  1  0.36264000  0.34979000  0.21693000  1
  N  N450  1  0.36606000  0.78798000  0.71810000  1
  N  N451  1  0.44859000  0.31063000  0.14299000  1
  N  N452  1  0.45467000  0.29026000  0.25820000  1
  N  N453  1  0.49170000  0.27338000  0.21082000  1
  N  N454  1  0.50830000  0.72662000  0.78918000  1
  N  N455  1  0.54533000  0.70974000  0.74180000  1
  N  N456  1  0.55141000  0.68937000  0.85701000  1
  N  N457  1  0.63394000  0.21202000  0.28190000  1
  N  N458  1  0.63736000  0.65021000  0.78307000  1
  N  N459  1  0.66934000  0.18668000  0.23724000  1
  N  N460  1  0.67526000  0.63541000  0.70207000  1
  N  N461  1  0.67991000  0.19289000  0.34749000  1
  N  N462  1  0.76355000  0.13714000  0.27716000  1
  N  N463  1  0.77971000  0.69289000  0.84749000  1
  N  N464  1  0.80052000  0.10745000  0.19951000  1
  N  N465  1  0.82215000  0.63714000  0.77716000  1
  N  N466  1  0.87214000  0.71202000  0.78190000  1
  N  N467  1  0.89252000  0.60745000  0.69951000  1
  N  N468  1  0.90221000  0.18937000  0.35701000  1
  N  N469  1  0.90674000  0.68668000  0.73724000  1
  N  N470  1  0.92936000  0.15021000  0.28307000  1
  N  N471  1  0.97590000  0.22662000  0.28918000  1
  N  N472  1  0.98726000  0.13541000  0.20207000  1
  N  N473  1  0.99687000  0.79026000  0.75820000  1
  O  O474  1  0.00304000  0.77335000  0.87777000  1
  O  O475  1  0.01034000  0.99113000  0.28959000  1
  O  O476  1  0.05305000  0.28761000  0.14169000  1
  O  O477  1  0.05527000  0.62520000  0.65386000  1
  O  O478  1  0.06609000  0.73373000  0.94649000  1
  O  O479  1  0.06774000  0.97576000  0.75776000  1
  O  O480  1  0.08824000  0.60175000  0.11337000  1
  O  O481  1  0.13333000  0.87859000  0.28195000  1
  O  O482  1  0.14888000  0.66864000  0.62460000  1
  O  O483  1  0.15443000  0.51005000  0.16529000  1
  O  O484  1  0.16145000  0.92631000  0.63819000  1
  O  O485  1  0.16561000  0.14627000  0.16931000  1
  O  O486  1  0.17023000  0.01005000  0.66529000  1
  O  O487  1  0.19664000  0.10175000  0.61337000  1
  O  O488  1  0.19874000  0.47576000  0.25776000  1
  O  O489  1  0.24795000  0.18337000  0.11473000  1
  O  O490  1  0.25369000  0.23373000  0.44649000  1
  O  O491  1  0.27405000  0.42631000  0.13819000  1
  O  O492  1  0.28618000  0.60088000  0.56696000  1
  O  O493  1  0.29106000  0.50887000  0.21041000  1
  O  O494  1  0.29387000  0.62141000  0.21805000  1
  O  O495  1  0.33433000  0.87480000  0.84614000  1
  O  O496  1  0.34237000  0.11495000  0.04471000  1
  O  O497  1  0.34584000  0.27335000  0.37777000  1
  O  O498  1  0.44212000  0.83136000  0.87540000  1
  O  O499  1  0.45395000  0.68337000  0.61473000  1
  O  O500  1  0.45402000  0.89912000  0.93304000  1
  O  O501  1  0.48119000  0.35373000  0.33069000  1
  O  O502  1  0.48235000  0.21239000  0.35831000  1
  O  O503  1  0.49797000  0.61495000  0.54471000  1
  O  O504  1  0.50203000  0.38505000  0.45529000  1
  O  O505  1  0.51765000  0.78761000  0.64169000  1
  O  O506  1  0.51881000  0.64627000  0.66931000  1
  O  O507  1  0.54598000  0.10088000  0.06696000  1
  O  O508  1  0.54605000  0.31663000  0.38527000  1
  O  O509  1  0.55788000  0.16864000  0.12460000  1
  O  O510  1  0.65416000  0.72665000  0.62223000  1
  O  O511  1  0.65763000  0.88505000  0.95529000  1
  O  O512  1  0.66567000  0.12520000  0.15386000  1
  O  O513  1  0.70613000  0.37859000  0.78195000  1
  O  O514  1  0.70894000  0.49113000  0.78959000  1
  O  O515  1  0.71382000  0.39912000  0.43304000  1
  O  O516  1  0.72595000  0.57369000  0.86181000  1
  O  O517  1  0.74631000  0.76627000  0.55351000  1
  O  O518  1  0.75205000  0.81663000  0.88527000  1
  O  O519  1  0.80126000  0.52424000  0.74224000  1
  O  O520  1  0.80336000  0.89825000  0.38663000  1
  O  O521  1  0.82977000  0.98995000  0.33471000  1
  O  O522  1  0.83439000  0.85373000  0.83069000  1
  O  O523  1  0.83855000  0.07369000  0.36181000  1
  O  O524  1  0.84557000  0.48995000  0.83471000  1
  O  O525  1  0.85112000  0.33136000  0.37540000  1
  O  O526  1  0.86667000  0.12141000  0.71805000  1
  O  O527  1  0.91176000  0.39825000  0.88663000  1
  O  O528  1  0.93226000  0.02424000  0.24224000  1
  O  O529  1  0.93391000  0.26627000  0.05351000  1
  O  O530  1  0.94473000  0.37480000  0.34614000  1
  O  O531  1  0.94695000  0.71239000  0.85831000  1
  O  O532  1  0.98966000  0.00887000  0.71041000  1
  O  O533  1  0.99696000  0.22665000  0.12223000  1
