# generated using pymatgen
data_CdH36(C4N)12
_symmetry_space_group_name_H-M   'P 1'
_cell_length_a   15.95060000
_cell_length_b   15.95060000
_cell_length_c   21.12500000
_cell_angle_alpha   90.00000000
_cell_angle_beta   90.00000000
_cell_angle_gamma   90.00000000
_symmetry_Int_Tables_number   1
_chemical_formula_structural   CdH36(C4N)12
_chemical_formula_sum   'Cd4 H144 C192 N48'
_cell_volume   5374.65715261
_cell_formula_units_Z   4
loop_
 _symmetry_equiv_pos_site_id
 _symmetry_equiv_pos_as_xyz
  1  'x, y, z'
loop_
 _atom_site_type_symbol
 _atom_site_label
 _atom_site_symmetry_multiplicity
 _atom_site_fract_x
 _atom_site_fract_y
 _atom_site_fract_z
 _atom_site_occupancy
  Cd  Cd0  1  0.05947000  0.94053000  0.25000000  1
  Cd  Cd1  1  0.44053000  0.44053000  0.00000000  1
  Cd  Cd2  1  0.55947000  0.55947000  0.50000000  1
  Cd  Cd3  1  0.94053000  0.05947000  0.75000000  1
  H  H4  1  0.00530000  0.23760000  0.82330000  1
  H  H5  1  0.00560000  0.79980000  0.79190000  1
  H  H6  1  0.03960000  0.66610000  0.04270000  1
  H  H7  1  0.03970000  0.88520000  0.40290000  1
  H  H8  1  0.04510000  0.12240000  0.46010000  1
  H  H9  1  0.05390000  0.73420000  0.64680000  1
  H  H10  1  0.05490000  0.76180000  0.57970000  1
  H  H11  1  0.06040000  0.15470000  0.65880000  1
  H  H12  1  0.06700000  0.23670000  0.52820000  1
  H  H13  1  0.08120000  0.30330000  0.33770000  1
  H  H14  1  0.08710000  0.78120000  0.46790000  1
  H  H15  1  0.09510000  0.34950000  0.81480000  1
  H  H16  1  0.11480000  0.96030000  0.09710000  1
  H  H17  1  0.12240000  0.04510000  0.53990000  1
  H  H18  1  0.13240000  0.77000000  0.20730000  1
  H  H19  1  0.14510000  0.18710000  0.14010000  1
  H  H20  1  0.15030000  0.69850000  0.53290000  1
  H  H21  1  0.15050000  0.59510000  0.06480000  1
  H  H22  1  0.15470000  0.06040000  0.34120000  1
  H  H23  1  0.15760000  0.26320000  0.64200000  1
  H  H24  1  0.16610000  0.46040000  0.79270000  1
  H  H25  1  0.17690000  0.77830000  0.90640000  1
  H  H26  1  0.18710000  0.14510000  0.85990000  1
  H  H27  1  0.19670000  0.58120000  0.58770000  1
  H  H28  1  0.19850000  0.34970000  0.28290000  1
  H  H29  1  0.20020000  0.99440000  0.70810000  1
  H  H30  1  0.20940000  0.26100000  0.89480000  1
  H  H31  1  0.21880000  0.91290000  0.03210000  1
  H  H32  1  0.22170000  0.82310000  0.59360000  1
  H  H33  1  0.23000000  0.86760000  0.29270000  1
  H  H34  1  0.23420000  0.44610000  0.39680000  1
  H  H35  1  0.23670000  0.06700000  0.47180000  1
  H  H36  1  0.23680000  0.65760000  0.89200000  1
  H  H37  1  0.23760000  0.00530000  0.17670000  1
  H  H38  1  0.23820000  0.94510000  0.92030000  1
  H  H39  1  0.23900000  0.70940000  0.14480000  1
  H  H40  1  0.26100000  0.20940000  0.10520000  1
  H  H41  1  0.26180000  0.44510000  0.32970000  1
  H  H42  1  0.26240000  0.50530000  0.07330000  1
  H  H43  1  0.26320000  0.15760000  0.35800000  1
  H  H44  1  0.26330000  0.56700000  0.77820000  1
  H  H45  1  0.26580000  0.94610000  0.85320000  1
  H  H46  1  0.27000000  0.36760000  0.95730000  1
  H  H47  1  0.27830000  0.32310000  0.65640000  1
  H  H48  1  0.28120000  0.41290000  0.21790000  1
  H  H49  1  0.29060000  0.76100000  0.35520000  1
  H  H50  1  0.29980000  0.49440000  0.54190000  1
  H  H51  1  0.30150000  0.84970000  0.96710000  1
  H  H52  1  0.30330000  0.08120000  0.66230000  1
  H  H53  1  0.31290000  0.64510000  0.39010000  1
  H  H54  1  0.32310000  0.27830000  0.34360000  1
  H  H55  1  0.33390000  0.96040000  0.45730000  1
  H  H56  1  0.34240000  0.76320000  0.60800000  1
  H  H57  1  0.34530000  0.56040000  0.90880000  1
  H  H58  1  0.34950000  0.09510000  0.18520000  1
  H  H59  1  0.34970000  0.19850000  0.71710000  1
  H  H60  1  0.35490000  0.68710000  0.10990000  1
  H  H61  1  0.36760000  0.27000000  0.04270000  1
  H  H62  1  0.37760000  0.54510000  0.71010000  1
  H  H63  1  0.38520000  0.46030000  0.15290000  1
  H  H64  1  0.40490000  0.84950000  0.43520000  1
  H  H65  1  0.41290000  0.28120000  0.78210000  1
  H  H66  1  0.41880000  0.80330000  0.91230000  1
  H  H67  1  0.43300000  0.73670000  0.72180000  1
  H  H68  1  0.43960000  0.65470000  0.59120000  1
  H  H69  1  0.44510000  0.26180000  0.67030000  1
  H  H70  1  0.44610000  0.23420000  0.60320000  1
  H  H71  1  0.45490000  0.62240000  0.78990000  1
  H  H72  1  0.46030000  0.38520000  0.84710000  1
  H  H73  1  0.46040000  0.16610000  0.20730000  1
  H  H74  1  0.49440000  0.29980000  0.45810000  1
  H  H75  1  0.49470000  0.73760000  0.42670000  1
  H  H76  1  0.50530000  0.26240000  0.92670000  1
  H  H77  1  0.50560000  0.70020000  0.95810000  1
  H  H78  1  0.53960000  0.83390000  0.70730000  1
  H  H79  1  0.53970000  0.61480000  0.34710000  1
  H  H80  1  0.54510000  0.37760000  0.28990000  1
  H  H81  1  0.55390000  0.76580000  0.10320000  1
  H  H82  1  0.55490000  0.73820000  0.17030000  1
  H  H83  1  0.56040000  0.34530000  0.09120000  1
  H  H84  1  0.56700000  0.26330000  0.22180000  1
  H  H85  1  0.58120000  0.19670000  0.41230000  1
  H  H86  1  0.58710000  0.71880000  0.28210000  1
  H  H87  1  0.59510000  0.15050000  0.93520000  1
  H  H88  1  0.61480000  0.53970000  0.65290000  1
  H  H89  1  0.62240000  0.45490000  0.21010000  1
  H  H90  1  0.63240000  0.73000000  0.54270000  1
  H  H91  1  0.64510000  0.31290000  0.60990000  1
  H  H92  1  0.65030000  0.80150000  0.21710000  1
  H  H93  1  0.65050000  0.90490000  0.68520000  1
  H  H94  1  0.65470000  0.43960000  0.40880000  1
  H  H95  1  0.65760000  0.23680000  0.10800000  1
  H  H96  1  0.66610000  0.03960000  0.95730000  1
  H  H97  1  0.67690000  0.72170000  0.84360000  1
  H  H98  1  0.68710000  0.35490000  0.89010000  1
  H  H99  1  0.69670000  0.91880000  0.16230000  1
  H  H100  1  0.69850000  0.15030000  0.46710000  1
  H  H101  1  0.70020000  0.50560000  0.04190000  1
  H  H102  1  0.70940000  0.23900000  0.85520000  1
  H  H103  1  0.71880000  0.58710000  0.71790000  1
  H  H104  1  0.72170000  0.67690000  0.15640000  1
  H  H105  1  0.73000000  0.63240000  0.45730000  1
  H  H106  1  0.73420000  0.05390000  0.35320000  1
  H  H107  1  0.73670000  0.43300000  0.27820000  1
  H  H108  1  0.73680000  0.84240000  0.85800000  1
  H  H109  1  0.73760000  0.49470000  0.57330000  1
  H  H110  1  0.73820000  0.55490000  0.82970000  1
  H  H111  1  0.73900000  0.79060000  0.60520000  1
  H  H112  1  0.76100000  0.29060000  0.64480000  1
  H  H113  1  0.76180000  0.05490000  0.42030000  1
  H  H114  1  0.76240000  0.99470000  0.67670000  1
  H  H115  1  0.76320000  0.34240000  0.39200000  1
  H  H116  1  0.76330000  0.93300000  0.97180000  1
  H  H117  1  0.76580000  0.55390000  0.89680000  1
  H  H118  1  0.77000000  0.13240000  0.79270000  1
  H  H119  1  0.77830000  0.17690000  0.09360000  1
  H  H120  1  0.78120000  0.08710000  0.53210000  1
  H  H121  1  0.79060000  0.73900000  0.39480000  1
  H  H122  1  0.79980000  0.00560000  0.20810000  1
  H  H123  1  0.80150000  0.65030000  0.78290000  1
  H  H124  1  0.80330000  0.41880000  0.08770000  1
  H  H125  1  0.81290000  0.85490000  0.35990000  1
  H  H126  1  0.82310000  0.22170000  0.40640000  1
  H  H127  1  0.83390000  0.53960000  0.29270000  1
  H  H128  1  0.84240000  0.73680000  0.14200000  1
  H  H129  1  0.84530000  0.93960000  0.84120000  1
  H  H130  1  0.84950000  0.40490000  0.56480000  1
  H  H131  1  0.84970000  0.30150000  0.03290000  1
  H  H132  1  0.85490000  0.81290000  0.64010000  1
  H  H133  1  0.86760000  0.23000000  0.70730000  1
  H  H134  1  0.87760000  0.95490000  0.03990000  1
  H  H135  1  0.88520000  0.03970000  0.59710000  1
  H  H136  1  0.90490000  0.65050000  0.31480000  1
  H  H137  1  0.91290000  0.21880000  0.96790000  1
  H  H138  1  0.91880000  0.69670000  0.83770000  1
  H  H139  1  0.93300000  0.76330000  0.02820000  1
  H  H140  1  0.93960000  0.84530000  0.15880000  1
  H  H141  1  0.94510000  0.23820000  0.07970000  1
  H  H142  1  0.94610000  0.26580000  0.14680000  1
  H  H143  1  0.95490000  0.87760000  0.96010000  1
  H  H144  1  0.96030000  0.11480000  0.90290000  1
  H  H145  1  0.96040000  0.33390000  0.54270000  1
  H  H146  1  0.99440000  0.20020000  0.29190000  1
  H  H147  1  0.99470000  0.76240000  0.32330000  1
  C  C148  1  0.00410000  0.16550000  0.46330000  1
  C  C149  1  0.00440000  0.12470000  0.17970000  1
  C  C150  1  0.01650000  0.23230000  0.50470000  1
  C  C151  1  0.03750000  0.24290000  0.78570000  1
  C  C152  1  0.04200000  0.22030000  0.26960000  1
  C  C153  1  0.04540000  0.70810000  0.01110000  1
  C  C154  1  0.06030000  0.18940000  0.21050000  1
  C  C155  1  0.06770000  0.83830000  0.92680000  1
  C  C156  1  0.06910000  0.19470000  0.69140000  1
  C  C157  1  0.07650000  0.90680000  0.88390000  1
  C  C158  1  0.08970000  0.85670000  0.39130000  1
  C  C159  1  0.09130000  0.30980000  0.78140000  1
  C  C160  1  0.09320000  0.92350000  0.61610000  1
  C  C161  1  0.09370000  0.28150000  0.29700000  1
  C  C162  1  0.11730000  0.70740000  0.97220000  1
  C  C163  1  0.11780000  0.79470000  0.43070000  1
  C  C164  1  0.12470000  0.00440000  0.82030000  1
  C  C165  1  0.12760000  0.25990000  0.68080000  1
  C  C166  1  0.12770000  0.77500000  0.93160000  1
  C  C167  1  0.13010000  0.21390000  0.17860000  1
  C  C168  1  0.14010000  0.31820000  0.72750000  1
  C  C169  1  0.14330000  0.91030000  0.10870000  1
  C  C170  1  0.15310000  0.80060000  0.17200000  1
  C  C171  1  0.16170000  0.93230000  0.57320000  1
  C  C172  1  0.16230000  0.30930000  0.26430000  1
  C  C173  1  0.16550000  0.00410000  0.53670000  1
  C  C174  1  0.17960000  0.27810000  0.20250000  1
  C  C175  1  0.18180000  0.64010000  0.97750000  1
  C  C176  1  0.18940000  0.06030000  0.78950000  1
  C  C177  1  0.19020000  0.59130000  0.03140000  1
  C  C178  1  0.19040000  0.75180000  0.41670000  1
  C  C179  1  0.19070000  0.66230000  0.51430000  1
  C  C180  1  0.19470000  0.06910000  0.30860000  1
  C  C181  1  0.19940000  0.84690000  0.32800000  1
  C  C182  1  0.20530000  0.88220000  0.06930000  1
  C  C183  1  0.20740000  0.38270000  0.72220000  1
  C  C184  1  0.20810000  0.45460000  0.76110000  1
  C  C185  1  0.21390000  0.13010000  0.82140000  1
  C  C186  1  0.21750000  0.76340000  0.13500000  1
  C  C187  1  0.21850000  0.59370000  0.54700000  1
  C  C188  1  0.22030000  0.04200000  0.73040000  1
  C  C189  1  0.22190000  0.67960000  0.45250000  1
  C  C190  1  0.22500000  0.87230000  0.56840000  1
  C  C191  1  0.23230000  0.01650000  0.49530000  1
  C  C192  1  0.23660000  0.78250000  0.36500000  1
  C  C193  1  0.24010000  0.62760000  0.93080000  1
  C  C194  1  0.24290000  0.03750000  0.21430000  1
  C  C195  1  0.24820000  0.80960000  0.08330000  1
  C  C196  1  0.25180000  0.30960000  0.16670000  1
  C  C197  1  0.25710000  0.53750000  0.03570000  1
  C  C198  1  0.25990000  0.12760000  0.31920000  1
  C  C199  1  0.26340000  0.28250000  0.88500000  1
  C  C200  1  0.26770000  0.51650000  0.75470000  1
  C  C201  1  0.27500000  0.37230000  0.68160000  1
  C  C202  1  0.27810000  0.17960000  0.79750000  1
  C  C203  1  0.27970000  0.54200000  0.51960000  1
  C  C204  1  0.28150000  0.09370000  0.70300000  1
  C  C205  1  0.28250000  0.26340000  0.11500000  1
  C  C206  1  0.28610000  0.63010000  0.42860000  1
  C  C207  1  0.29190000  0.95460000  0.48890000  1
  C  C208  1  0.29260000  0.88270000  0.52780000  1
  C  C209  1  0.29470000  0.38220000  0.18070000  1
  C  C210  1  0.30060000  0.34690000  0.92200000  1
  C  C211  1  0.30530000  0.56910000  0.94140000  1
  C  C212  1  0.30930000  0.16230000  0.73570000  1
  C  C213  1  0.30960000  0.25180000  0.83330000  1
  C  C214  1  0.30980000  0.09130000  0.21860000  1
  C  C215  1  0.31060000  0.56030000  0.46050000  1
  C  C216  1  0.31820000  0.14010000  0.27250000  1
  C  C217  1  0.32040000  0.77810000  0.04750000  1
  C  C218  1  0.33450000  0.50410000  0.71330000  1
  C  C219  1  0.33770000  0.80930000  0.98570000  1
  C  C220  1  0.33830000  0.43230000  0.67680000  1
  C  C221  1  0.34690000  0.30060000  0.07800000  1
  C  C222  1  0.35670000  0.41030000  0.14130000  1
  C  C223  1  0.35990000  0.81820000  0.52250000  1
  C  C224  1  0.36990000  0.71390000  0.07140000  1
  C  C225  1  0.37230000  0.27500000  0.31840000  1
  C  C226  1  0.37240000  0.75990000  0.56920000  1
  C  C227  1  0.37530000  0.50440000  0.42970000  1
  C  C228  1  0.38220000  0.29470000  0.81930000  1
  C  C229  1  0.38270000  0.20740000  0.27780000  1
  C  C230  1  0.40630000  0.78150000  0.95300000  1
  C  C231  1  0.40680000  0.42350000  0.63390000  1
  C  C232  1  0.40870000  0.80980000  0.46860000  1
  C  C233  1  0.41030000  0.35670000  0.85870000  1
  C  C234  1  0.42350000  0.40680000  0.36610000  1
  C  C235  1  0.43090000  0.69470000  0.55860000  1
  C  C236  1  0.43230000  0.33830000  0.32320000  1
  C  C237  1  0.43970000  0.68940000  0.03950000  1
  C  C238  1  0.45460000  0.20810000  0.23890000  1
  C  C239  1  0.45800000  0.72030000  0.98040000  1
  C  C240  1  0.46250000  0.74290000  0.46430000  1
  C  C241  1  0.48350000  0.73230000  0.74530000  1
  C  C242  1  0.49560000  0.62470000  0.07030000  1
  C  C243  1  0.49590000  0.66550000  0.78670000  1
  C  C244  1  0.50410000  0.33450000  0.28670000  1
  C  C245  1  0.50440000  0.37530000  0.57030000  1
  C  C246  1  0.51650000  0.26770000  0.24530000  1
  C  C247  1  0.53750000  0.25710000  0.96430000  1
  C  C248  1  0.54200000  0.27970000  0.48040000  1
  C  C249  1  0.54540000  0.79190000  0.73890000  1
  C  C250  1  0.56030000  0.31060000  0.53950000  1
  C  C251  1  0.56770000  0.66170000  0.82320000  1
  C  C252  1  0.56910000  0.30530000  0.05860000  1
  C  C253  1  0.57650000  0.59320000  0.86610000  1
  C  C254  1  0.58970000  0.64330000  0.35870000  1
  C  C255  1  0.59130000  0.19020000  0.96860000  1
  C  C256  1  0.59320000  0.57650000  0.13390000  1
  C  C257  1  0.59370000  0.21850000  0.45300000  1
  C  C258  1  0.61730000  0.79260000  0.77780000  1
  C  C259  1  0.61780000  0.70530000  0.31930000  1
  C  C260  1  0.62470000  0.49560000  0.92970000  1
  C  C261  1  0.62760000  0.24010000  0.06920000  1
  C  C262  1  0.62770000  0.72500000  0.81840000  1
  C  C263  1  0.63010000  0.28610000  0.57140000  1
  C  C264  1  0.64010000  0.18180000  0.02250000  1
  C  C265  1  0.64330000  0.58970000  0.64130000  1
  C  C266  1  0.65310000  0.69940000  0.57800000  1
  C  C267  1  0.66170000  0.56770000  0.17680000  1
  C  C268  1  0.66230000  0.19070000  0.48570000  1
  C  C269  1  0.66550000  0.49590000  0.21330000  1
  C  C270  1  0.67960000  0.22190000  0.54750000  1
  C  C271  1  0.68180000  0.85990000  0.77250000  1
  C  C272  1  0.68940000  0.43970000  0.96050000  1
  C  C273  1  0.69020000  0.90870000  0.71860000  1
  C  C274  1  0.69040000  0.74820000  0.33333333  1
  C  C275  1  0.69070000  0.83770000  0.23570000  1
  C  C276  1  0.69470000  0.43090000  0.44140000  1
  C  C277  1  0.69940000  0.65310000  0.42200000  1
  C  C278  1  0.70530000  0.61780000  0.68070000  1
  C  C279  1  0.70740000  0.11730000  0.02780000  1
  C  C280  1  0.70810000  0.04540000  0.98890000  1
  C  C281  1  0.71390000  0.36990000  0.92860000  1
  C  C282  1  0.71750000  0.73660000  0.61500000  1
  C  C283  1  0.71850000  0.90630000  0.20300000  1
  C  C284  1  0.72030000  0.45800000  0.01960000  1
  C  C285  1  0.72190000  0.82040000  0.29750000  1
  C  C286  1  0.72500000  0.62770000  0.18160000  1
  C  C287  1  0.73230000  0.48350000  0.25470000  1
  C  C288  1  0.73660000  0.71750000  0.38500000  1
  C  C289  1  0.74010000  0.87240000  0.81920000  1
  C  C290  1  0.74290000  0.46250000  0.53570000  1
  C  C291  1  0.74820000  0.69040000  0.66666667  1
  C  C292  1  0.75180000  0.19040000  0.58330000  1
  C  C293  1  0.75710000  0.96250000  0.71430000  1
  C  C294  1  0.75990000  0.37240000  0.43080000  1
  C  C295  1  0.76340000  0.21750000  0.86500000  1
  C  C296  1  0.76770000  0.98350000  0.99530000  1
  C  C297  1  0.77500000  0.12770000  0.06840000  1
  C  C298  1  0.77810000  0.32040000  0.95250000  1
  C  C299  1  0.77970000  0.95800000  0.23040000  1
  C  C300  1  0.78150000  0.40630000  0.04700000  1
  C  C301  1  0.78250000  0.23660000  0.63500000  1
  C  C302  1  0.78610000  0.86990000  0.32140000  1
  C  C303  1  0.79190000  0.54540000  0.26110000  1
  C  C304  1  0.79260000  0.61730000  0.22220000  1
  C  C305  1  0.79470000  0.11780000  0.56930000  1
  C  C306  1  0.80060000  0.15310000  0.82800000  1
  C  C307  1  0.80530000  0.93090000  0.80860000  1
  C  C308  1  0.80930000  0.33770000  0.01430000  1
  C  C309  1  0.80960000  0.24820000  0.91670000  1
  C  C310  1  0.80980000  0.40870000  0.53140000  1
  C  C311  1  0.81060000  0.93970000  0.28950000  1
  C  C312  1  0.81820000  0.35990000  0.47750000  1
  C  C313  1  0.82040000  0.72190000  0.70250000  1
  C  C314  1  0.83450000  0.99590000  0.03670000  1
  C  C315  1  0.83770000  0.69070000  0.76430000  1
  C  C316  1  0.83830000  0.06770000  0.07320000  1
  C  C317  1  0.84690000  0.19940000  0.67200000  1
  C  C318  1  0.85670000  0.08970000  0.60870000  1
  C  C319  1  0.85990000  0.68180000  0.22750000  1
  C  C320  1  0.86990000  0.78610000  0.67860000  1
  C  C321  1  0.87230000  0.22500000  0.43160000  1
  C  C322  1  0.87240000  0.74010000  0.18080000  1
  C  C323  1  0.87530000  0.99560000  0.32030000  1
  C  C324  1  0.88220000  0.20530000  0.93070000  1
  C  C325  1  0.88270000  0.29260000  0.47220000  1
  C  C326  1  0.90630000  0.71850000  0.79700000  1
  C  C327  1  0.90680000  0.07650000  0.11610000  1
  C  C328  1  0.90870000  0.69020000  0.28140000  1
  C  C329  1  0.91030000  0.14330000  0.89130000  1
  C  C330  1  0.92350000  0.09320000  0.38390000  1
  C  C331  1  0.93090000  0.80530000  0.19140000  1
  C  C332  1  0.93230000  0.16170000  0.42680000  1
  C  C333  1  0.93970000  0.81060000  0.71050000  1
  C  C334  1  0.95460000  0.29190000  0.51110000  1
  C  C335  1  0.95800000  0.77970000  0.76960000  1
  C  C336  1  0.96250000  0.75710000  0.28570000  1
  C  C337  1  0.98350000  0.76770000  0.00470000  1
  C  C338  1  0.99560000  0.87530000  0.67970000  1
  C  C339  1  0.99590000  0.83450000  0.96330000  1
  N  N340  1  0.00730000  0.04350000  0.18290000  1
  N  N341  1  0.01260000  0.94630000  0.85710000  1
  N  N342  1  0.02750000  0.18700000  0.74260000  1
  N  N343  1  0.04350000  0.00730000  0.81710000  1
  N  N344  1  0.05370000  0.98740000  0.64290000  1
  N  N345  1  0.05400000  0.85290000  0.63850000  1
  N  N346  1  0.07600000  0.77170000  0.61900000  1
  N  N347  1  0.12060000  0.87370000  0.16080000  1
  N  N348  1  0.12630000  0.87940000  0.33920000  1
  N  N349  1  0.14710000  0.94600000  0.86150000  1
  N  N350  1  0.18700000  0.02750000  0.25740000  1
  N  N351  1  0.22830000  0.92400000  0.88100000  1
  N  N352  1  0.27170000  0.42400000  0.36900000  1
  N  N353  1  0.31300000  0.52750000  0.99260000  1
  N  N354  1  0.35290000  0.44600000  0.38850000  1
  N  N355  1  0.37370000  0.37940000  0.91080000  1
  N  N356  1  0.37940000  0.37370000  0.08920000  1
  N  N357  1  0.42400000  0.27170000  0.63100000  1
  N  N358  1  0.44600000  0.35290000  0.61150000  1
  N  N359  1  0.44630000  0.48740000  0.60710000  1
  N  N360  1  0.45650000  0.50730000  0.43290000  1
  N  N361  1  0.47250000  0.68700000  0.50740000  1
  N  N362  1  0.48740000  0.44630000  0.39290000  1
  N  N363  1  0.49270000  0.54350000  0.06710000  1
  N  N364  1  0.50730000  0.45650000  0.56710000  1
  N  N365  1  0.51260000  0.55370000  0.89290000  1
  N  N366  1  0.52750000  0.31300000  0.00740000  1
  N  N367  1  0.54350000  0.49270000  0.93290000  1
  N  N368  1  0.55370000  0.51260000  0.10710000  1
  N  N369  1  0.55400000  0.64710000  0.11150000  1
  N  N370  1  0.57600000  0.72830000  0.13100000  1
  N  N371  1  0.62060000  0.62630000  0.58920000  1
  N  N372  1  0.62630000  0.62060000  0.41080000  1
  N  N373  1  0.64710000  0.55400000  0.88850000  1
  N  N374  1  0.68700000  0.47250000  0.49260000  1
  N  N375  1  0.72830000  0.57600000  0.86900000  1
  N  N376  1  0.77170000  0.07600000  0.38100000  1
  N  N377  1  0.81300000  0.97250000  0.75740000  1
  N  N378  1  0.85290000  0.05400000  0.36150000  1
  N  N379  1  0.87370000  0.12060000  0.83920000  1
  N  N380  1  0.87940000  0.12630000  0.66080000  1
  N  N381  1  0.92400000  0.22830000  0.11900000  1
  N  N382  1  0.94600000  0.14710000  0.13850000  1
  N  N383  1  0.94630000  0.01260000  0.14290000  1
  N  N384  1  0.95650000  0.99270000  0.31710000  1
  N  N385  1  0.97250000  0.81300000  0.24260000  1
  N  N386  1  0.98740000  0.05370000  0.35710000  1
  N  N387  1  0.99270000  0.95650000  0.68290000  1
