# generated using pymatgen
data_Na6SmH24C40S8N8(ClO18)2
_symmetry_space_group_name_H-M   'P 1'
_cell_length_a   12.23800000
_cell_length_b   12.23800000
_cell_length_c   12.39800000
_cell_angle_alpha   90.00000000
_cell_angle_beta   90.00000000
_cell_angle_gamma   90.00000000
_symmetry_Int_Tables_number   1
_chemical_formula_structural   Na6SmH24C40S8N8(ClO18)2
_chemical_formula_sum   'Na6 Sm1 H24 C40 S8 N8 Cl2 O36'
_cell_volume   1856.83164831
_cell_formula_units_Z   1
loop_
 _symmetry_equiv_pos_site_id
 _symmetry_equiv_pos_as_xyz
  1  'x, y, z'
loop_
 _atom_site_type_symbol
 _atom_site_label
 _atom_site_symmetry_multiplicity
 _atom_site_fract_x
 _atom_site_fract_y
 _atom_site_fract_z
 _atom_site_occupancy
  Na  Na0  1  0.00000000  0.50000000  0.01180000  1
  Na  Na1  1  0.28520000  0.47100000  0.99960000  1
  Na  Na2  1  0.47100000  0.71480000  0.00040000  1
  Na  Na3  1  0.50000000  0.00000000  0.98820000  1
  Na  Na4  1  0.52900000  0.28520000  0.00040000  1
  Na  Na5  1  0.71480000  0.52900000  0.99960000  1
  Sm  Sm6  1  0.00000000  0.00000000  0.50000000  1
  H  H7  1  0.02470000  0.61140000  0.23360000  1
  H  H8  1  0.05930000  0.22310000  0.09710000  1
  H  H9  1  0.10810000  0.72410000  0.62590000  1
  H  H10  1  0.12310000  0.65040000  0.79050000  1
  H  H11  1  0.15670000  0.27460000  0.62250000  1
  H  H12  1  0.22310000  0.94070000  0.90290000  1
  H  H13  1  0.27460000  0.84330000  0.37750000  1
  H  H14  1  0.27590000  0.10810000  0.37410000  1
  H  H15  1  0.32550000  0.66780000  0.33890000  1
  H  H16  1  0.33220000  0.32550000  0.66110000  1
  H  H17  1  0.34960000  0.12310000  0.20950000  1
  H  H18  1  0.38860000  0.02470000  0.76640000  1
  H  H19  1  0.61140000  0.97530000  0.76640000  1
  H  H20  1  0.65040000  0.87690000  0.20950000  1
  H  H21  1  0.66780000  0.67450000  0.66110000  1
  H  H22  1  0.67450000  0.33220000  0.33890000  1
  H  H23  1  0.72410000  0.89190000  0.37410000  1
  H  H24  1  0.72540000  0.15670000  0.37750000  1
  H  H25  1  0.77690000  0.05930000  0.90290000  1
  H  H26  1  0.84330000  0.72540000  0.62250000  1
  H  H27  1  0.87690000  0.34960000  0.79050000  1
  H  H28  1  0.89190000  0.27590000  0.62590000  1
  H  H29  1  0.94070000  0.77690000  0.09710000  1
  H  H30  1  0.97530000  0.38860000  0.23360000  1
  C  C31  1  0.04730000  0.76230000  0.28420000  1
  C  C32  1  0.06380000  0.19720000  0.25910000  1
  C  C33  1  0.07640000  0.65890000  0.26220000  1
  C  C34  1  0.10440000  0.20140000  0.15350000  1
  C  C35  1  0.13460000  0.76670000  0.68220000  1
  C  C36  1  0.14050000  0.72350000  0.77960000  1
  C  C37  1  0.17330000  0.78900000  0.86630000  1
  C  C38  1  0.17960000  0.62180000  0.28070000  1
  C  C39  1  0.19720000  0.93620000  0.74090000  1
  C  C40  1  0.20140000  0.89560000  0.84650000  1
  C  C41  1  0.20390000  0.22360000  0.65280000  1
  C  C42  1  0.21100000  0.17330000  0.13370000  1
  C  C43  1  0.22360000  0.79610000  0.34720000  1
  C  C44  1  0.23330000  0.13460000  0.31780000  1
  C  C45  1  0.23770000  0.04730000  0.71580000  1
  C  C46  1  0.25470000  0.69130000  0.32460000  1
  C  C47  1  0.27650000  0.14050000  0.22040000  1
  C  C48  1  0.30870000  0.25470000  0.67540000  1
  C  C49  1  0.34110000  0.07640000  0.73780000  1
  C  C50  1  0.37820000  0.17960000  0.71930000  1
  C  C51  1  0.62180000  0.82040000  0.71930000  1
  C  C52  1  0.65890000  0.92360000  0.73780000  1
  C  C53  1  0.69130000  0.74530000  0.67540000  1
  C  C54  1  0.72350000  0.85950000  0.22040000  1
  C  C55  1  0.74530000  0.30870000  0.32460000  1
  C  C56  1  0.76230000  0.95270000  0.71580000  1
  C  C57  1  0.76670000  0.86540000  0.31780000  1
  C  C58  1  0.77640000  0.20390000  0.34720000  1
  C  C59  1  0.78900000  0.82670000  0.13370000  1
  C  C60  1  0.79610000  0.77640000  0.65280000  1
  C  C61  1  0.79860000  0.10440000  0.84650000  1
  C  C62  1  0.80280000  0.06380000  0.74090000  1
  C  C63  1  0.82040000  0.37820000  0.28070000  1
  C  C64  1  0.82670000  0.21100000  0.86630000  1
  C  C65  1  0.85950000  0.27650000  0.77960000  1
  C  C66  1  0.86540000  0.23330000  0.68220000  1
  C  C67  1  0.89560000  0.79860000  0.15350000  1
  C  C68  1  0.92360000  0.34110000  0.26220000  1
  C  C69  1  0.93620000  0.80280000  0.25910000  1
  C  C70  1  0.95270000  0.23770000  0.28420000  1
  S  S71  1  0.18477000  0.73205000  0.99890000  1
  S  S72  1  0.21400000  0.48290000  0.24620000  1
  S  S73  1  0.26795000  0.18477000  0.00110000  1
  S  S74  1  0.48290000  0.78600000  0.75380000  1
  S  S75  1  0.51710000  0.21400000  0.75380000  1
  S  S76  1  0.73205000  0.81523000  0.00110000  1
  S  S77  1  0.78600000  0.51710000  0.24620000  1
  S  S78  1  0.81523000  0.26795000  0.99890000  1
  N  N79  1  0.12270000  0.83350000  0.32760000  1
  N  N80  1  0.12970000  0.16560000  0.33870000  1
  N  N81  1  0.16560000  0.87030000  0.66130000  1
  N  N82  1  0.16650000  0.12270000  0.67240000  1
  N  N83  1  0.83350000  0.87730000  0.67240000  1
  N  N84  1  0.83440000  0.12970000  0.66130000  1
  N  N85  1  0.87030000  0.83440000  0.33870000  1
  N  N86  1  0.87730000  0.16650000  0.32760000  1
  Cl  Cl87  1  0.50000000  0.50000000  0.05500000  1
  Cl  Cl88  1  0.50000000  0.50000000  0.94500000  1
  O  O89  1  0.06830000  0.09810000  0.65590000  1
  O  O90  1  0.08600000  0.66750000  0.01030000  1
  O  O91  1  0.09290000  0.15820000  0.43950000  1
  O  O92  1  0.09810000  0.93170000  0.34410000  1
  O  O93  1  0.12660000  0.41740000  0.88840000  1
  O  O94  1  0.14880000  0.45740000  0.15110000  1
  O  O95  1  0.15820000  0.90710000  0.56050000  1
  O  O96  1  0.17590000  0.19300000  0.93100000  1
  O  O97  1  0.18210000  0.41690000  0.33730000  1
  O  O98  1  0.19300000  0.82410000  0.06900000  1
  O  O99  1  0.28280000  0.66610000  0.99340000  1
  O  O100  1  0.32740000  0.48480000  0.21970000  1
  O  O101  1  0.33250000  0.08600000  0.98970000  1
  O  O102  1  0.33390000  0.28280000  0.00660000  1
  O  O103  1  0.41690000  0.81790000  0.66270000  1
  O  O104  1  0.41740000  0.87340000  0.11160000  1
  O  O105  1  0.45740000  0.85120000  0.84890000  1
  O  O106  1  0.48480000  0.67260000  0.78030000  1
  O  O107  1  0.51520000  0.32740000  0.78030000  1
  O  O108  1  0.54260000  0.14880000  0.84890000  1
  O  O109  1  0.58260000  0.12660000  0.11160000  1
  O  O110  1  0.58310000  0.18210000  0.66270000  1
  O  O111  1  0.66610000  0.71720000  0.00660000  1
  O  O112  1  0.66750000  0.91400000  0.98970000  1
  O  O113  1  0.67260000  0.51520000  0.21970000  1
  O  O114  1  0.71720000  0.33390000  0.99340000  1
  O  O115  1  0.80700000  0.17590000  0.06900000  1
  O  O116  1  0.81790000  0.58310000  0.33730000  1
  O  O117  1  0.82410000  0.80700000  0.93100000  1
  O  O118  1  0.84180000  0.09290000  0.56050000  1
  O  O119  1  0.85120000  0.54260000  0.15110000  1
  O  O120  1  0.87340000  0.58260000  0.88840000  1
  O  O121  1  0.90190000  0.06830000  0.34410000  1
  O  O122  1  0.90710000  0.84180000  0.43950000  1
  O  O123  1  0.91400000  0.33250000  0.01030000  1
  O  O124  1  0.93170000  0.90190000  0.65590000  1
