# generated using pymatgen
data_SmH2C7(NO3)2
_symmetry_space_group_name_H-M   'P 1'
_cell_length_a   7.98090000
_cell_length_b   9.74650000
_cell_length_c   15.92650000
_cell_angle_alpha   90.00000000
_cell_angle_beta   90.00000000
_cell_angle_gamma   96.21590000
_symmetry_Int_Tables_number   1
_chemical_formula_structural   SmH2C7(NO3)2
_chemical_formula_sum   'Sm4 H8 C28 N8 O24'
_cell_volume   1231.57291891
_cell_formula_units_Z   4
loop_
 _symmetry_equiv_pos_site_id
 _symmetry_equiv_pos_as_xyz
  1  'x, y, z'
loop_
 _atom_site_type_symbol
 _atom_site_label
 _atom_site_symmetry_multiplicity
 _atom_site_fract_x
 _atom_site_fract_y
 _atom_site_fract_z
 _atom_site_occupancy
  Sm  Sm0  1  0.08019000  0.86490000  0.67327000  1
  Sm  Sm1  1  0.41981000  0.63510000  0.17327000  1
  Sm  Sm2  1  0.58019000  0.36490000  0.82673000  1
  Sm  Sm3  1  0.91981000  0.13510000  0.32673000  1
  H  H4  1  0.03140000  0.31504000  0.61209000  1
  H  H5  1  0.11737000  0.84707000  0.24853000  1
  H  H6  1  0.38263000  0.65293000  0.74853000  1
  H  H7  1  0.46860000  0.18496000  0.11209000  1
  H  H8  1  0.53140000  0.81504000  0.88791000  1
  H  H9  1  0.61737000  0.34707000  0.25147000  1
  H  H10  1  0.88263000  0.15293000  0.75147000  1
  H  H11  1  0.96860000  0.68496000  0.38791000  1
  C  C12  1  0.05670000  0.42530000  0.41830000  1
  C  C13  1  0.08650000  0.52370000  0.63170000  1
  C  C14  1  0.08940000  0.99080000  0.48410000  1
  C  C15  1  0.10490000  0.38440000  0.64090000  1
  C  C16  1  0.18890000  0.92050000  0.21880000  1
  C  C17  1  0.23170000  0.35120000  0.69320000  1
  C  C18  1  0.24270000  0.29630000  0.21490000  1
  C  C19  1  0.25730000  0.20370000  0.71490000  1
  C  C20  1  0.26830000  0.14880000  0.19320000  1
  C  C21  1  0.31110000  0.57950000  0.71880000  1
  C  C22  1  0.39510000  0.11560000  0.14090000  1
  C  C23  1  0.41060000  0.50920000  0.98410000  1
  C  C24  1  0.41350000  0.97630000  0.13170000  1
  C  C25  1  0.44330000  0.07470000  0.91830000  1
  C  C26  1  0.55670000  0.92530000  0.08170000  1
  C  C27  1  0.58650000  0.02370000  0.86830000  1
  C  C28  1  0.58940000  0.49080000  0.01590000  1
  C  C29  1  0.60490000  0.88440000  0.85910000  1
  C  C30  1  0.68890000  0.42050000  0.28120000  1
  C  C31  1  0.73170000  0.85120000  0.80680000  1
  C  C32  1  0.74270000  0.79630000  0.28510000  1
  C  C33  1  0.75730000  0.70370000  0.78510000  1
  C  C34  1  0.76830000  0.64880000  0.30680000  1
  C  C35  1  0.81110000  0.07950000  0.78120000  1
  C  C36  1  0.89510000  0.61560000  0.35910000  1
  C  C37  1  0.91060000  0.00920000  0.51590000  1
  C  C38  1  0.91350000  0.47630000  0.36830000  1
  C  C39  1  0.94330000  0.57470000  0.58170000  1
  N  N40  1  0.16250000  0.05150000  0.23160000  1
  N  N41  1  0.18950000  0.62100000  0.67060000  1
  N  N42  1  0.31050000  0.87900000  0.17060000  1
  N  N43  1  0.33750000  0.44850000  0.73160000  1
  N  N44  1  0.66250000  0.55150000  0.26840000  1
  N  N45  1  0.68950000  0.12100000  0.82940000  1
  N  N46  1  0.81050000  0.37900000  0.32940000  1
  N  N47  1  0.83750000  0.94850000  0.76840000  1
  O  O48  1  0.04910000  0.29640000  0.42855000  1
  O  O49  1  0.11760000  0.31340000  0.25943000  1
  O  O50  1  0.12480000  0.02470000  0.40992000  1
  O  O51  1  0.15000000  0.11110000  0.68864000  1
  O  O52  1  0.17110000  0.51280000  0.44246000  1
  O  O53  1  0.18780000  0.94350000  0.53553000  1
  O  O54  1  0.31220000  0.55650000  0.03553000  1
  O  O55  1  0.32890000  0.98720000  0.94246000  1
  O  O56  1  0.35000000  0.38890000  0.18864000  1
  O  O57  1  0.37520000  0.47530000  0.90992000  1
  O  O58  1  0.38240000  0.18660000  0.75943000  1
  O  O59  1  0.45090000  0.20360000  0.92855000  1
  O  O60  1  0.54910000  0.79640000  0.07145000  1
  O  O61  1  0.61760000  0.81340000  0.24057000  1
  O  O62  1  0.62480000  0.52470000  0.09008000  1
  O  O63  1  0.65000000  0.61110000  0.81136000  1
  O  O64  1  0.67110000  0.01280000  0.05754000  1
  O  O65  1  0.68780000  0.44350000  0.96447000  1
  O  O66  1  0.81220000  0.05650000  0.46447000  1
  O  O67  1  0.82890000  0.48720000  0.55754000  1
  O  O68  1  0.85000000  0.88890000  0.31136000  1
  O  O69  1  0.87520000  0.97530000  0.59008000  1
  O  O70  1  0.88240000  0.68660000  0.74057000  1
  O  O71  1  0.95090000  0.70360000  0.57145000  1
