# generated using pymatgen
data_CoH16AuC22(BrN3)2
_symmetry_space_group_name_H-M   'P 1'
_cell_length_a   11.45000000
_cell_length_b   11.46700000
_cell_length_c   20.94400000
_cell_angle_alpha   90.00000000
_cell_angle_beta   90.00000000
_cell_angle_gamma   90.00000000
_symmetry_Int_Tables_number   1
_chemical_formula_structural   CoH16AuC22(BrN3)2
_chemical_formula_sum   'Co2 H32 Au2 C44 Br4 N12'
_cell_volume   2749.88750960
_cell_formula_units_Z   2
loop_
 _symmetry_equiv_pos_site_id
 _symmetry_equiv_pos_as_xyz
  1  'x, y, z'
loop_
 _atom_site_type_symbol
 _atom_site_label
 _atom_site_symmetry_multiplicity
 _atom_site_fract_x
 _atom_site_fract_y
 _atom_site_fract_z
 _atom_site_occupancy
  Co  Co0  1  0.00000000  0.00000000  0.25000000  1
  Co  Co1  1  0.00000000  0.00000000  0.75000000  1
  H  H2  1  0.06420000  0.41070000  0.16030000  1
  H  H3  1  0.06420000  0.41070000  0.83970000  1
  H  H4  1  0.06420000  0.58930000  0.33970000  1
  H  H5  1  0.06420000  0.58930000  0.66030000  1
  H  H6  1  0.06880000  0.21190000  0.16550000  1
  H  H7  1  0.06880000  0.21190000  0.83450000  1
  H  H8  1  0.06880000  0.78810000  0.33450000  1
  H  H9  1  0.06880000  0.78810000  0.66550000  1
  H  H10  1  0.21000000  0.08080000  0.33100000  1
  H  H11  1  0.21000000  0.08080000  0.66900000  1
  H  H12  1  0.21000000  0.91920000  0.16900000  1
  H  H13  1  0.21000000  0.91920000  0.83100000  1
  H  H14  1  0.40970000  0.07720000  0.33470000  1
  H  H15  1  0.40970000  0.07720000  0.66530000  1
  H  H16  1  0.40970000  0.92280000  0.16530000  1
  H  H17  1  0.40970000  0.92280000  0.83470000  1
  H  H18  1  0.59030000  0.07720000  0.16530000  1
  H  H19  1  0.59030000  0.07720000  0.83470000  1
  H  H20  1  0.59030000  0.92280000  0.33470000  1
  H  H21  1  0.59030000  0.92280000  0.66530000  1
  H  H22  1  0.79000000  0.08080000  0.16900000  1
  H  H23  1  0.79000000  0.08080000  0.83100000  1
  H  H24  1  0.79000000  0.91920000  0.33100000  1
  H  H25  1  0.79000000  0.91920000  0.66900000  1
  H  H26  1  0.93120000  0.21190000  0.33450000  1
  H  H27  1  0.93120000  0.21190000  0.66550000  1
  H  H28  1  0.93120000  0.78810000  0.16550000  1
  H  H29  1  0.93120000  0.78810000  0.83450000  1
  H  H30  1  0.93580000  0.41070000  0.33970000  1
  H  H31  1  0.93580000  0.41070000  0.66030000  1
  H  H32  1  0.93580000  0.58930000  0.16030000  1
  H  H33  1  0.93580000  0.58930000  0.83970000  1
  Au  Au34  1  0.00000000  0.00000000  0.00000000  1
  Au  Au35  1  0.00000000  0.00000000  0.50000000  1
  C  C36  1  0.00000000  0.00000000  0.09450000  1
  C  C37  1  0.00000000  0.00000000  0.40550000  1
  C  C38  1  0.00000000  0.00000000  0.59450000  1
  C  C39  1  0.00000000  0.00000000  0.90550000  1
  C  C40  1  0.00000000  0.43550000  0.25000000  1
  C  C41  1  0.00000000  0.43550000  0.75000000  1
  C  C42  1  0.00000000  0.56450000  0.25000000  1
  C  C43  1  0.00000000  0.56450000  0.75000000  1
  C  C44  1  0.03830000  0.37250000  0.19720000  1
  C  C45  1  0.03830000  0.37250000  0.80280000  1
  C  C46  1  0.03830000  0.62750000  0.30280000  1
  C  C47  1  0.03830000  0.62750000  0.69720000  1
  C  C48  1  0.03930000  0.25260000  0.20010000  1
  C  C49  1  0.03930000  0.25260000  0.79990000  1
  C  C50  1  0.03930000  0.74740000  0.29990000  1
  C  C51  1  0.03930000  0.74740000  0.70010000  1
  C  C52  1  0.25150000  0.04510000  0.29730000  1
  C  C53  1  0.25150000  0.04510000  0.70270000  1
  C  C54  1  0.25150000  0.95490000  0.20270000  1
  C  C55  1  0.25150000  0.95490000  0.79730000  1
  C  C56  1  0.37170000  0.04450000  0.29950000  1
  C  C57  1  0.37170000  0.04450000  0.70050000  1
  C  C58  1  0.37170000  0.95550000  0.20050000  1
  C  C59  1  0.37170000  0.95550000  0.79950000  1
  C  C60  1  0.43560000  0.00000000  0.25000000  1
  C  C61  1  0.43560000  0.00000000  0.75000000  1
  C  C62  1  0.56440000  0.00000000  0.25000000  1
  C  C63  1  0.56440000  0.00000000  0.75000000  1
  C  C64  1  0.62830000  0.04450000  0.20050000  1
  C  C65  1  0.62830000  0.04450000  0.79950000  1
  C  C66  1  0.62830000  0.95550000  0.29950000  1
  C  C67  1  0.62830000  0.95550000  0.70050000  1
  C  C68  1  0.74850000  0.04510000  0.20270000  1
  C  C69  1  0.74850000  0.04510000  0.79730000  1
  C  C70  1  0.74850000  0.95490000  0.29730000  1
  C  C71  1  0.74850000  0.95490000  0.70270000  1
  C  C72  1  0.96070000  0.25260000  0.29990000  1
  C  C73  1  0.96070000  0.25260000  0.70010000  1
  C  C74  1  0.96070000  0.74740000  0.20010000  1
  C  C75  1  0.96070000  0.74740000  0.79990000  1
  C  C76  1  0.96170000  0.37250000  0.30280000  1
  C  C77  1  0.96170000  0.37250000  0.69720000  1
  C  C78  1  0.96170000  0.62750000  0.19720000  1
  C  C79  1  0.96170000  0.62750000  0.80280000  1
  Br  Br80  1  0.06060000  0.20367000  0.00000000  1
  Br  Br81  1  0.06060000  0.79633000  0.50000000  1
  Br  Br82  1  0.93940000  0.20367000  0.50000000  1
  Br  Br83  1  0.93940000  0.79633000  0.00000000  1
  N  N84  1  0.00000000  0.00000000  0.14930000  1
  N  N85  1  0.00000000  0.00000000  0.35070000  1
  N  N86  1  0.00000000  0.00000000  0.64930000  1
  N  N87  1  0.00000000  0.00000000  0.85070000  1
  N  N88  1  0.00000000  0.18860000  0.25000000  1
  N  N89  1  0.00000000  0.18860000  0.75000000  1
  N  N90  1  0.00000000  0.81140000  0.25000000  1
  N  N91  1  0.00000000  0.81140000  0.75000000  1
  N  N92  1  0.18990000  0.00000000  0.25000000  1
  N  N93  1  0.18990000  0.00000000  0.75000000  1
  N  N94  1  0.81010000  0.00000000  0.25000000  1
  N  N95  1  0.81010000  0.00000000  0.75000000  1
