# generated using pymatgen
data_VH4C8O5
_symmetry_space_group_name_H-M   'P 1'
_cell_length_a   6.80230000
_cell_length_b   13.91200000
_cell_length_c   16.05200000
_cell_angle_alpha   90.00000000
_cell_angle_beta   90.00000000
_cell_angle_gamma   90.00000000
_symmetry_Int_Tables_number   1
_chemical_formula_structural   VH4C8O5
_chemical_formula_sum   'V4 H16 C32 O20'
_cell_volume   1519.05850868
_cell_formula_units_Z   4
loop_
 _symmetry_equiv_pos_site_id
 _symmetry_equiv_pos_as_xyz
  1  'x, y, z'
loop_
 _atom_site_type_symbol
 _atom_site_label
 _atom_site_symmetry_multiplicity
 _atom_site_fract_x
 _atom_site_fract_y
 _atom_site_fract_z
 _atom_site_occupancy
  V  V0  1  0.06450000  0.26394000  0.00079000  1
  V  V1  1  0.43550000  0.73606000  0.50079000  1
  V  V2  1  0.56450000  0.23606000  0.99921000  1
  V  V3  1  0.93550000  0.76394000  0.49921000  1
  H  H4  1  0.03190000  0.55230000  0.31580000  1
  H  H5  1  0.03290000  0.58090000  0.70530000  1
  H  H6  1  0.05140000  0.47240000  0.81530000  1
  H  H7  1  0.05400000  0.44560000  0.20710000  1
  H  H8  1  0.44600000  0.55440000  0.70710000  1
  H  H9  1  0.44860000  0.52760000  0.31530000  1
  H  H10  1  0.46710000  0.41910000  0.20530000  1
  H  H11  1  0.46810000  0.44770000  0.81580000  1
  H  H12  1  0.53190000  0.94770000  0.68420000  1
  H  H13  1  0.53290000  0.91910000  0.29470000  1
  H  H14  1  0.55140000  0.02760000  0.18470000  1
  H  H15  1  0.55400000  0.05440000  0.79290000  1
  H  H16  1  0.94600000  0.94560000  0.29290000  1
  H  H17  1  0.94860000  0.97240000  0.68470000  1
  H  H18  1  0.96710000  0.08090000  0.79470000  1
  H  H19  1  0.96810000  0.05230000  0.18420000  1
  C  C20  1  0.06870000  0.96260000  0.27200000  1
  C  C21  1  0.07020000  0.98820000  0.70740000  1
  C  C22  1  0.08100000  0.05350000  0.77330000  1
  C  C23  1  0.08200000  0.02650000  0.20710000  1
  C  C24  1  0.22410000  0.87530000  0.60710000  1
  C  C25  1  0.22540000  0.85680000  0.37863000  1
  C  C26  1  0.23770000  0.92310000  0.30643000  1
  C  C27  1  0.23800000  0.94730000  0.67578000  1
  C  C28  1  0.26200000  0.05270000  0.17578000  1
  C  C29  1  0.26230000  0.07690000  0.80643000  1
  C  C30  1  0.27460000  0.14320000  0.87863000  1
  C  C31  1  0.27590000  0.12470000  0.10710000  1
  C  C32  1  0.41800000  0.97350000  0.70710000  1
  C  C33  1  0.41900000  0.94650000  0.27330000  1
  C  C34  1  0.42980000  0.01180000  0.20740000  1
  C  C35  1  0.43130000  0.03740000  0.77200000  1
  C  C36  1  0.56870000  0.53740000  0.72800000  1
  C  C37  1  0.57020000  0.51180000  0.29260000  1
  C  C38  1  0.58100000  0.44650000  0.22670000  1
  C  C39  1  0.58200000  0.47350000  0.79290000  1
  C  C40  1  0.72410000  0.62470000  0.39290000  1
  C  C41  1  0.72540000  0.64320000  0.62137000  1
  C  C42  1  0.73770000  0.57690000  0.69357000  1
  C  C43  1  0.73800000  0.55270000  0.32422000  1
  C  C44  1  0.76200000  0.44730000  0.82422000  1
  C  C45  1  0.76230000  0.42310000  0.19357000  1
  C  C46  1  0.77460000  0.35680000  0.12137000  1
  C  C47  1  0.77590000  0.37530000  0.89290000  1
  C  C48  1  0.91800000  0.52650000  0.29290000  1
  C  C49  1  0.91900000  0.55350000  0.72670000  1
  C  C50  1  0.92980000  0.48820000  0.79260000  1
  C  C51  1  0.93130000  0.46260000  0.22800000  1
  O  O52  1  0.05630000  0.85455000  0.58015000  1
  O  O53  1  0.05750000  0.83779000  0.40641000  1
  O  O54  1  0.11430000  0.15965000  0.08196000  1
  O  O55  1  0.11670000  0.17671000  0.90649000  1
  O  O56  1  0.21776000  0.69061000  0.50390000  1
  O  O57  1  0.28224000  0.30939000  0.00390000  1
  O  O58  1  0.38330000  0.82329000  0.40649000  1
  O  O59  1  0.38570000  0.84035000  0.58196000  1
  O  O60  1  0.44250000  0.16221000  0.90641000  1
  O  O61  1  0.44370000  0.14545000  0.08015000  1
  O  O62  1  0.55630000  0.64545000  0.41985000  1
  O  O63  1  0.55750000  0.66221000  0.59359000  1
  O  O64  1  0.61430000  0.34035000  0.91804000  1
  O  O65  1  0.61670000  0.32329000  0.09351000  1
  O  O66  1  0.71776000  0.80939000  0.49610000  1
  O  O67  1  0.78224000  0.19061000  0.99610000  1
  O  O68  1  0.88330000  0.67671000  0.59351000  1
  O  O69  1  0.88570000  0.65965000  0.41804000  1
  O  O70  1  0.94250000  0.33779000  0.09359000  1
  O  O71  1  0.94370000  0.35455000  0.91985000  1
