# generated using pymatgen
data_Co3H29(C2N)12
_symmetry_space_group_name_H-M   'P 1'
_cell_length_a   14.68695996
_cell_length_b   14.68680000
_cell_length_c   14.68680000
_cell_angle_alpha   109.47100000
_cell_angle_beta   109.47144127
_cell_angle_gamma   109.47144127
_symmetry_Int_Tables_number   1
_chemical_formula_structural   Co3H29(C2N)12
_chemical_formula_sum   'Co6 H58 C48 N24'
_cell_volume   2438.72707201
_cell_formula_units_Z   2
loop_
 _symmetry_equiv_pos_site_id
 _symmetry_equiv_pos_as_xyz
  1  'x, y, z'
loop_
 _atom_site_type_symbol
 _atom_site_label
 _atom_site_symmetry_multiplicity
 _atom_site_fract_x
 _atom_site_fract_y
 _atom_site_fract_z
 _atom_site_occupancy
  Co  Co0  1  0.25000000  0.75000000  0.50000000  1
  Co  Co1  1  0.50000000  0.25000000  0.75000000  1
  Co  Co2  1  0.25000000  0.50000000  0.75000000  1
  Co  Co3  1  0.75000000  0.50000000  0.25000000  1
  Co  Co4  1  0.50000000  0.75000000  0.25000000  1
  Co  Co5  1  0.75000000  0.25000000  0.50000000  1
  H  H6  1  0.74561000  0.24984000  0.76922000  1
  H  H7  1  0.48945000  0.75463000  0.52690000  1
  H  H8  1  0.50070000  0.89193000  0.55250000  1
  H  H9  1  0.61042000  0.11649000  0.67349000  1
  H  H10  1  0.46908000  0.35202000  0.57211000  1
  H  H11  1  0.35202000  0.57211000  0.46908000  1
  H  H12  1  0.77991000  0.42789000  0.89697000  1
  H  H13  1  0.31120000  0.92615000  0.43914000  1
  H  H14  1  0.37919000  0.08090000  0.51797000  1
  H  H15  1  0.35202000  0.46908000  0.57211000  1
  H  H16  1  0.88294000  0.53092000  0.10303000  1
  H  H17  1  0.50638000  0.50803000  0.74737000  1
  H  H18  1  0.23685000  0.99296000  0.48925000  1
  H  H19  1  0.08962000  0.52710000  0.35277000  1
  H  H20  1  0.95393000  0.46825000  0.22692000  1
  H  H21  1  0.56227000  0.48384000  0.86549000  1
  H  H22  1  0.42789000  0.89696000  0.77991000  1
  H  H23  1  0.53093000  0.10304000  0.88295000  1
  H  H24  1  0.48500000  0.56178000  0.86802000  1
  H  H25  1  0.95645000  0.45100000  0.34754000  1
  H  H26  1  0.10303000  0.88294000  0.53092000  1
  H  H27  1  0.22009000  0.11706000  0.64798000  1
  H  H28  1  0.71392000  0.62811000  0.15005000  1
  H  H29  1  0.07192000  0.38617000  0.51171000  1
  H  H30  1  0.42789000  0.77991000  0.89696000  1
  H  H31  1  0.64798000  0.22009000  0.11705000  1
  H  H32  1  0.43674000  0.29527000  0.91772000  1
  H  H33  1  0.01036000  0.24579000  0.49791000  1
  H  H34  1  0.11853000  0.67638000  0.61107000  1
  H  H35  1  0.25054000  0.76827000  0.74778000  1
  H  H36  1  0.74777000  0.76826000  0.25053000  1
  H  H37  1  0.61107000  0.67639000  0.11853000  1
  H  H38  1  0.49791000  0.24580000  0.01036000  1
  H  H39  1  0.91772000  0.29527000  0.43674000  1
  H  H40  1  0.11706000  0.22009000  0.64798000  1
  H  H41  1  0.89697000  0.77991000  0.42789000  1
  H  H42  1  0.51170000  0.38617000  0.07191000  1
  H  H43  1  0.15005000  0.62811000  0.71392000  1
  H  H44  1  0.53093000  0.88295000  0.10304000  1
  H  H45  1  0.64798000  0.11705000  0.22009000  1
  H  H46  1  0.34755000  0.45101000  0.95646000  1
  H  H47  1  0.86802000  0.56178000  0.48500000  1
  H  H48  1  0.77991000  0.89697000  0.42789000  1
  H  H49  1  0.88294000  0.10303000  0.53092000  1
  H  H50  1  0.86549000  0.48384000  0.56227000  1
  H  H51  1  0.22692000  0.46824000  0.95393000  1
  H  H52  1  0.35277000  0.52710000  0.08962000  1
  H  H53  1  0.48924000  0.99295000  0.23684000  1
  H  H54  1  0.74737000  0.50803000  0.50638000  1
  H  H55  1  0.10303000  0.53092000  0.88294000  1
  H  H56  1  0.57211000  0.46908000  0.35202000  1
  H  H57  1  0.51797000  0.08090000  0.37919000  1
  H  H58  1  0.43914000  0.92614000  0.31120000  1
  H  H59  1  0.89697000  0.42789000  0.77991000  1
  H  H60  1  0.22009000  0.64798000  0.11706000  1
  H  H61  1  0.57211000  0.35202000  0.46908000  1
  H  H62  1  0.56349000  0.83432000  0.47425000  1
  H  H63  1  0.71674000  0.15280000  0.63006000  1
  C  C64  1  0.49070000  0.81240000  0.49070000  1
  C  C65  1  0.38280000  0.75460000  0.38280000  1
  C  C66  1  0.67830000  0.18760000  0.67830000  1
  C  C67  1  0.21090000  0.68230000  0.26640000  1
  C  C68  1  0.52860000  0.31770000  0.58410000  1
  C  C69  1  0.32170000  0.00000000  0.50930000  1
  C  C70  1  0.31770000  0.58410000  0.52860000  1
  C  C71  1  0.73360000  0.41590000  0.94450000  1
  C  C72  1  0.37180000  0.00000000  0.61720000  1
  C  C73  1  0.31770000  0.52860000  0.58410000  1
  C  C74  1  0.78910000  0.47140000  0.05550000  1
  C  C75  1  0.41590000  0.94450000  0.73360000  1
  C  C76  1  0.47140000  0.05550000  0.78910000  1
  C  C77  1  0.49070000  0.49070000  0.81240000  1
  C  C78  1  1.00000000  0.50930000  0.32170000  1
  C  C79  1  0.38280000  0.38280000  0.75460000  1
  C  C80  1  1.00000000  0.61720000  0.37180000  1
  C  C81  1  0.24540000  0.62820000  0.62820000  1
  C  C82  1  0.61720000  0.37180000  0.00000000  1
  C  C83  1  0.05550000  0.78910000  0.47140000  1
  C  C84  1  0.26640000  0.21090000  0.68230000  1
  C  C85  1  0.21090000  0.26640000  0.68230000  1
  C  C86  1  0.94450000  0.73360000  0.41590000  1
  C  C87  1  0.18760000  0.67830000  0.67830000  1
  C  C88  1  0.50930000  0.32170000  0.00000000  1
  C  C89  1  0.67830000  0.67830000  0.18760000  1
  C  C90  1  1.00000000  0.32170000  0.50930000  1
  C  C91  1  0.41590000  0.73360000  0.94450000  1
  C  C92  1  0.68230000  0.26640000  0.21090000  1
  C  C93  1  0.47140000  0.78910000  0.05550000  1
  C  C94  1  0.68230000  0.21090000  0.26640000  1
  C  C95  1  0.62820000  0.62820000  0.24540000  1
  C  C96  1  0.00000000  0.37180000  0.61720000  1
  C  C97  1  0.37180000  0.61720000  0.00000000  1
  C  C98  1  0.75460000  0.38280000  0.38280000  1
  C  C99  1  0.32170000  0.50930000  0.00000000  1
  C  C100  1  0.81240000  0.49070000  0.49070000  1
  C  C101  1  0.73360000  0.94450000  0.41590000  1
  C  C102  1  0.78910000  0.05550000  0.47140000  1
  C  C103  1  0.05550000  0.47140000  0.78910000  1
  C  C104  1  0.58410000  0.52860000  0.31770000  1
  C  C105  1  0.61720000  0.00000000  0.37180000  1
  C  C106  1  0.52860000  0.58410000  0.31770000  1
  C  C107  1  0.94450000  0.41590000  0.73360000  1
  C  C108  1  0.50930000  0.00000000  0.32170000  1
  C  C109  1  0.26640000  0.68230000  0.21090000  1
  C  C110  1  0.58410000  0.31770000  0.52860000  1
  C  C111  1  0.62820000  0.24540000  0.62820000  1
  N  N112  1  0.28470000  0.72750000  0.37720000  1
  N  N113  1  0.55720000  0.27250000  0.64970000  1
  N  N114  1  0.35030000  0.90750000  0.62280000  1
  N  N115  1  0.44280000  0.09250000  0.71530000  1
  N  N116  1  0.27250000  0.64970000  0.55720000  1
  N  N117  1  0.62280000  0.35030000  0.90750000  1
  N  N118  1  0.09250000  0.71530000  0.44280000  1
  N  N119  1  0.37720000  0.28470000  0.72750000  1
  N  N120  1  0.27250000  0.55720000  0.64970000  1
  N  N121  1  0.71530000  0.44280000  0.09250000  1
  N  N122  1  0.28470000  0.37720000  0.72750000  1
  N  N123  1  0.90750000  0.62280000  0.35030000  1
  N  N124  1  0.35030000  0.62280000  0.90750000  1
  N  N125  1  0.72750000  0.37720000  0.28470000  1
  N  N126  1  0.09250000  0.44280000  0.71530000  1
  N  N127  1  0.64970000  0.55720000  0.27250000  1
  N  N128  1  0.44280000  0.71530000  0.09250000  1
  N  N129  1  0.72750000  0.28470000  0.37720000  1
  N  N130  1  0.55720000  0.64970000  0.27250000  1
  N  N131  1  0.90750000  0.35030000  0.62280000  1
  N  N132  1  0.62280000  0.90750000  0.35030000  1
  N  N133  1  0.71530000  0.09250000  0.44280000  1
  N  N134  1  0.37720000  0.72750000  0.28470000  1
  N  N135  1  0.64970000  0.27250000  0.55720000  1
