# generated using pymatgen
data_Co2H7C15(N2O3)2
_symmetry_space_group_name_H-M   'P 1'
_cell_length_a   9.11700000
_cell_length_b   9.45200000
_cell_length_c   10.91400000
_cell_angle_alpha   97.53000000
_cell_angle_beta   92.11000000
_cell_angle_gamma   103.25000000
_symmetry_Int_Tables_number   1
_chemical_formula_structural   Co2H7C15(N2O3)2
_chemical_formula_sum   'Co4 H14 C30 N8 O12'
_cell_volume   905.38966247
_cell_formula_units_Z   2
loop_
 _symmetry_equiv_pos_site_id
 _symmetry_equiv_pos_as_xyz
  1  'x, y, z'
loop_
 _atom_site_type_symbol
 _atom_site_label
 _atom_site_symmetry_multiplicity
 _atom_site_fract_x
 _atom_site_fract_y
 _atom_site_fract_z
 _atom_site_occupancy
  Co  Co0  1  0.02221000  0.50737000  0.85881000  1
  Co  Co1  1  0.35640000  0.63755000  0.03379000  1
  Co  Co2  1  0.64360000  0.36245000  0.96621000  1
  Co  Co3  1  0.97779000  0.49263000  0.14119000  1
  H  H4  1  0.03300000  0.76940000  0.58230000  1
  H  H5  1  0.09940000  0.80120000  0.25710000  1
  H  H6  1  0.18790000  0.60730000  0.53240000  1
  H  H7  1  0.21160000  0.95920000  0.70160000  1
  H  H8  1  0.27570000  0.98790000  0.37370000  1
  H  H9  1  0.39850000  0.23350000  0.28180000  1
  H  H10  1  0.43320000  0.33340000  0.65520000  1
  H  H11  1  0.56680000  0.66666667  0.34480000  1
  H  H12  1  0.60150000  0.76650000  0.71820000  1
  H  H13  1  0.72430000  0.01210000  0.62630000  1
  H  H14  1  0.78840000  0.04080000  0.29840000  1
  H  H15  1  0.81210000  0.39270000  0.46760000  1
  H  H16  1  0.90060000  0.19880000  0.74290000  1
  H  H17  1  0.96700000  0.23060000  0.41770000  1
  C  C18  1  0.00630000  0.85490000  0.61570000  1
  C  C19  1  0.07240000  0.88750000  0.28790000  1
  C  C20  1  0.07490000  0.09920000  0.73770000  1
  C  C21  1  0.11360000  0.96960000  0.68740000  1
  C  C22  1  0.13970000  0.12930000  0.40470000  1
  C  C23  1  0.17840000  0.99920000  0.35780000  1
  C  C24  1  0.18940000  0.21810000  0.81570000  1
  C  C25  1  0.26950000  0.57660000  0.29690000  1
  C  C26  1  0.29240000  0.63730000  0.53180000  1
  C  C27  1  0.30940000  0.68390000  0.76780000  1
  C  C28  1  0.36180000  0.63240000  0.41950000  1
  C  C29  1  0.38220000  0.68830000  0.64420000  1
  C  C30  1  0.39320000  0.27650000  0.46920000  1
  C  C31  1  0.45800000  0.26740000  0.35540000  1
  C  C32  1  0.47980000  0.32680000  0.58090000  1
  C  C33  1  0.52020000  0.67320000  0.41910000  1
  C  C34  1  0.54200000  0.73260000  0.64460000  1
  C  C35  1  0.60680000  0.72350000  0.53080000  1
  C  C36  1  0.61780000  0.31170000  0.35580000  1
  C  C37  1  0.63820000  0.36760000  0.58050000  1
  C  C38  1  0.69060000  0.31610000  0.23220000  1
  C  C39  1  0.70760000  0.36270000  0.46820000  1
  C  C40  1  0.73050000  0.42340000  0.70310000  1
  C  C41  1  0.81060000  0.78190000  0.18430000  1
  C  C42  1  0.82160000  0.00080000  0.64220000  1
  C  C43  1  0.86030000  0.87070000  0.59530000  1
  C  C44  1  0.88640000  0.03040000  0.31260000  1
  C  C45  1  0.92510000  0.90080000  0.26230000  1
  C  C46  1  0.92760000  0.11250000  0.71210000  1
  C  C47  1  0.99370000  0.14510000  0.38430000  1
  N  N48  1  0.17770000  0.35650000  0.85960000  1
  N  N49  1  0.31200000  0.42090000  0.92700000  1
  N  N50  1  0.32500000  0.19770000  0.85280000  1
  N  N51  1  0.39880000  0.32740000  0.92230000  1
  N  N52  1  0.60120000  0.67260000  0.07770000  1
  N  N53  1  0.67500000  0.80230000  0.14720000  1
  N  N54  1  0.68800000  0.57910000  0.07300000  1
  N  N55  1  0.82230000  0.64350000  0.14040000  1
  O  O56  1  0.12450000  0.61930000  0.02850000  1
  O  O57  1  0.12730000  0.56420000  0.29660000  1
  O  O58  1  0.16600000  0.63480000  0.75920000  1
  O  O59  1  0.23630000  0.24880000  0.47870000  1
  O  O60  1  0.33780000  0.54020000  0.20120000  1
  O  O61  1  0.39210000  0.72510000  0.86800000  1
  O  O62  1  0.60790000  0.27490000  0.13200000  1
  O  O63  1  0.66220000  0.45980000  0.79880000  1
  O  O64  1  0.76370000  0.75120000  0.52130000  1
  O  O65  1  0.83400000  0.36520000  0.24080000  1
  O  O66  1  0.87270000  0.43580000  0.70340000  1
  O  O67  1  0.87550000  0.38070000  0.97150000  1
