# generated using pymatgen
data_CeH6(C2O)6
_symmetry_space_group_name_H-M   'P 1'
_cell_length_a   9.28500000
_cell_length_b   10.36980000
_cell_length_c   11.73500000
_cell_angle_alpha   96.80900000
_cell_angle_beta   93.26200000
_cell_angle_gamma   111.42700000
_symmetry_Int_Tables_number   1
_chemical_formula_structural   CeH6(C2O)6
_chemical_formula_sum   'Ce2 H12 C24 O12'
_cell_volume   1038.21965165
_cell_formula_units_Z   2
loop_
 _symmetry_equiv_pos_site_id
 _symmetry_equiv_pos_as_xyz
  1  'x, y, z'
loop_
 _atom_site_type_symbol
 _atom_site_label
 _atom_site_symmetry_multiplicity
 _atom_site_fract_x
 _atom_site_fract_y
 _atom_site_fract_z
 _atom_site_occupancy
  Ce  Ce0  1  0.02912000  0.54966000  0.18168000  1
  Ce  Ce1  1  0.97088000  0.45034000  0.81832000  1
  H  H2  1  0.06450000  0.87470000  0.13180000  1
  H  H3  1  0.13300000  0.11310000  0.17800000  1
  H  H4  1  0.32670000  0.04080000  0.37390000  1
  H  H5  1  0.39280000  0.92400000  0.16410000  1
  H  H6  1  0.43820000  0.84730000  0.82890000  1
  H  H7  1  0.48620000  0.77450000  0.50530000  1
  H  H8  1  0.51380000  0.22550000  0.49470000  1
  H  H9  1  0.56180000  0.15270000  0.17110000  1
  H  H10  1  0.60720000  0.07600000  0.83590000  1
  H  H11  1  0.67330000  0.95920000  0.62610000  1
  H  H12  1  0.86700000  0.88690000  0.82200000  1
  H  H13  1  0.93550000  0.12530000  0.86820000  1
  C  C14  1  0.03840000  0.92460000  0.07870000  1
  C  C15  1  0.04170000  0.14500000  0.02820000  1
  C  C16  1  0.07700000  0.29660000  0.06420000  1
  C  C17  1  0.07940000  0.06770000  0.10630000  1
  C  C18  1  0.26120000  0.76800000  0.35160000  1
  C  C19  1  0.28390000  0.71470000  0.99250000  1
  C  C20  1  0.38640000  0.88910000  0.42830000  1
  C  C21  1  0.39600000  0.02390000  0.42480000  1
  C  C22  1  0.39710000  0.86100000  0.99620000  1
  C  C23  1  0.43560000  0.95400000  0.09760000  1
  C  C24  1  0.46280000  0.90850000  0.89810000  1
  C  C25  1  0.49130000  0.86540000  0.50320000  1
  C  C26  1  0.50870000  0.13460000  0.49680000  1
  C  C27  1  0.53720000  0.09150000  0.10190000  1
  C  C28  1  0.56440000  0.04600000  0.90240000  1
  C  C29  1  0.60290000  0.13900000  0.00380000  1
  C  C30  1  0.60400000  0.97610000  0.57520000  1
  C  C31  1  0.61360000  0.11090000  0.57170000  1
  C  C32  1  0.71610000  0.28530000  0.00750000  1
  C  C33  1  0.73880000  0.23200000  0.64840000  1
  C  C34  1  0.92060000  0.93230000  0.89370000  1
  C  C35  1  0.92300000  0.70340000  0.93580000  1
  C  C36  1  0.95830000  0.85500000  0.97180000  1
  C  C37  1  0.96160000  0.07540000  0.92130000  1
  O  O38  1  0.04900000  0.36740000  0.99060000  1
  O  O39  1  0.12720000  0.35090000  0.16670000  1
  O  O40  1  0.15390000  0.79170000  0.29910000  1
  O  O41  1  0.22140000  0.64710000  0.89340000  1
  O  O42  1  0.25960000  0.66910000  0.08700000  1
  O  O43  1  0.27000000  0.64970000  0.33970000  1
  O  O44  1  0.73000000  0.35030000  0.66030000  1
  O  O45  1  0.74040000  0.33090000  0.91300000  1
  O  O46  1  0.77860000  0.35290000  0.10660000  1
  O  O47  1  0.84610000  0.20830000  0.70090000  1
  O  O48  1  0.87280000  0.64910000  0.83330000  1
  O  O49  1  0.95100000  0.63260000  0.00940000  1
