# generated using pymatgen
data_U3P3H2O12F
_symmetry_space_group_name_H-M   'P 1'
_cell_length_a   13.44870000
_cell_length_b   17.92100000
_cell_length_c   19.90260000
_cell_angle_alpha   90.00000000
_cell_angle_beta   90.98330000
_cell_angle_gamma   90.00000000
_symmetry_Int_Tables_number   1
_chemical_formula_structural   U3P3H2O12F
_chemical_formula_sum   'U24 P24 H16 O96 F8'
_cell_volume   4796.10189532
_cell_formula_units_Z   8
loop_
 _symmetry_equiv_pos_site_id
 _symmetry_equiv_pos_as_xyz
  1  'x, y, z'
loop_
 _atom_site_type_symbol
 _atom_site_label
 _atom_site_symmetry_multiplicity
 _atom_site_fract_x
 _atom_site_fract_y
 _atom_site_fract_z
 _atom_site_occupancy
  U  U0  1  0.12144000  0.23814000  0.12271000  1
  U  U1  1  0.12354000  0.25165000  0.62274000  1
  U  U2  1  0.15096000  0.47817000  0.27095000  1
  U  U3  1  0.15116000  0.50755000  0.48819000  1
  U  U4  1  0.15220000  0.50519000  0.99059000  1
  U  U5  1  0.15281000  0.49825000  0.77448000  1
  U  U6  1  0.34719000  0.99825000  0.72552000  1
  U  U7  1  0.34780000  0.00519000  0.50941000  1
  U  U8  1  0.34884000  0.00755000  0.01181000  1
  U  U9  1  0.34904000  0.97817000  0.22905000  1
  U  U10  1  0.37646000  0.75165000  0.87726000  1
  U  U11  1  0.37856000  0.73814000  0.37729000  1
  U  U12  1  0.62144000  0.26186000  0.62271000  1
  U  U13  1  0.62354000  0.24835000  0.12274000  1
  U  U14  1  0.65096000  0.02183000  0.77095000  1
  U  U15  1  0.65116000  0.99245000  0.98819000  1
  U  U16  1  0.65220000  0.99481000  0.49059000  1
  U  U17  1  0.65281000  0.00175000  0.27448000  1
  U  U18  1  0.84719000  0.50175000  0.22552000  1
  U  U19  1  0.84780000  0.49481000  0.00941000  1
  U  U20  1  0.84884000  0.49245000  0.51181000  1
  U  U21  1  0.84904000  0.52183000  0.72905000  1
  U  U22  1  0.87646000  0.74835000  0.37726000  1
  U  U23  1  0.87856000  0.76186000  0.87729000  1
  P  P24  1  0.00620000  0.56105000  0.37162000  1
  P  P25  1  0.00920000  0.57609000  0.87924000  1
  P  P26  1  0.14130000  0.04169000  0.61204000  1
  P  P27  1  0.14300000  0.03242000  0.11849000  1
  P  P28  1  0.22530000  0.92209000  0.87172000  1
  P  P29  1  0.22700000  0.90482000  0.37479000  1
  P  P30  1  0.27300000  0.40482000  0.12521000  1
  P  P31  1  0.27470000  0.42209000  0.62828000  1
  P  P32  1  0.35700000  0.53242000  0.38151000  1
  P  P33  1  0.35870000  0.54169000  0.88796000  1
  P  P34  1  0.49080000  0.07609000  0.62076000  1
  P  P35  1  0.49380000  0.06105000  0.12838000  1
  P  P36  1  0.50620000  0.93895000  0.87162000  1
  P  P37  1  0.50920000  0.92391000  0.37924000  1
  P  P38  1  0.64130000  0.45831000  0.11204000  1
  P  P39  1  0.64300000  0.46758000  0.61849000  1
  P  P40  1  0.72530000  0.57791000  0.37172000  1
  P  P41  1  0.72700000  0.59518000  0.87479000  1
  P  P42  1  0.77300000  0.09518000  0.62521000  1
  P  P43  1  0.77470000  0.07791000  0.12828000  1
  P  P44  1  0.85700000  0.96758000  0.88151000  1
  P  P45  1  0.85870000  0.95831000  0.38796000  1
  P  P46  1  0.99080000  0.42391000  0.12076000  1
  P  P47  1  0.99380000  0.43895000  0.62838000  1
  H  H48  1  0.01140000  0.98800000  0.89410000  1
  H  H49  1  0.02820000  0.97710000  0.38690000  1
  H  H50  1  0.06740000  0.87350000  0.88080000  1
  H  H51  1  0.08590000  0.84630000  0.37500000  1
  H  H52  1  0.41410000  0.34630000  0.12500000  1
  H  H53  1  0.43260000  0.37350000  0.61920000  1
  H  H54  1  0.47180000  0.47710000  0.11310000  1
  H  H55  1  0.48860000  0.48800000  0.60590000  1
  H  H56  1  0.51140000  0.51200000  0.39410000  1
  H  H57  1  0.52820000  0.52290000  0.88690000  1
  H  H58  1  0.56740000  0.62650000  0.38080000  1
  H  H59  1  0.58590000  0.65370000  0.87500000  1
  H  H60  1  0.91410000  0.15370000  0.62500000  1
  H  H61  1  0.93260000  0.12650000  0.11920000  1
  H  H62  1  0.97180000  0.02290000  0.61310000  1
  H  H63  1  0.98860000  0.01200000  0.10590000  1
  O  O64  1  0.01900000  0.47500000  0.06190000  1
  O  O65  1  0.02060000  0.45760000  0.18920000  1
  O  O66  1  0.02080000  0.48090000  0.56340000  1
  O  O67  1  0.02310000  0.34580000  0.11020000  1
  O  O68  1  0.02440000  0.48330000  0.69190000  1
  O  O69  1  0.02870000  0.36020000  0.62890000  1
  O  O70  1  0.03830000  0.00010000  0.60440000  1
  O  O71  1  0.04170000  0.98880000  0.10580000  1
  O  O72  1  0.10830000  0.91990000  0.87610000  1
  O  O73  1  0.10980000  0.90520000  0.38000000  1
  O  O74  1  0.11910000  0.10820000  0.14690000  1
  O  O75  1  0.12140000  0.12050000  0.63460000  1
  O  O76  1  0.12190000  0.55420000  0.37280000  1
  O  O77  1  0.12600000  0.56760000  0.88010000  1
  O  O78  1  0.19200000  0.03800000  0.54500000  1
  O  O79  1  0.19510000  0.03760000  0.05160000  1
  O  O80  1  0.19970000  0.99690000  0.66460000  1
  O  O81  1  0.20120000  0.98500000  0.16850000  1
  O  O82  1  0.23510000  0.34820000  0.60360000  1
  O  O83  1  0.23560000  0.33170000  0.09730000  1
  O  O84  1  0.23860000  0.47210000  0.08460000  1
  O  O85  1  0.24340000  0.48840000  0.58500000  1
  O  O86  1  0.24570000  0.41500000  0.19810000  1
  O  O87  1  0.24890000  0.43770000  0.70110000  1
  O  O88  1  0.25110000  0.93770000  0.79890000  1
  O  O89  1  0.25430000  0.91500000  0.30190000  1
  O  O90  1  0.25660000  0.98840000  0.91500000  1
  O  O91  1  0.26140000  0.97210000  0.41540000  1
  O  O92  1  0.26440000  0.83170000  0.40270000  1
  O  O93  1  0.26490000  0.84820000  0.89640000  1
  O  O94  1  0.29880000  0.48500000  0.33150000  1
  O  O95  1  0.30030000  0.49690000  0.83540000  1
  O  O96  1  0.30490000  0.53760000  0.44840000  1
  O  O97  1  0.30800000  0.53800000  0.95500000  1
  O  O98  1  0.37400000  0.06760000  0.61990000  1
  O  O99  1  0.37810000  0.05420000  0.12720000  1
  O  O100  1  0.37860000  0.62050000  0.86540000  1
  O  O101  1  0.38090000  0.60820000  0.35310000  1
  O  O102  1  0.39020000  0.40520000  0.12000000  1
  O  O103  1  0.39170000  0.41990000  0.62390000  1
  O  O104  1  0.45830000  0.48880000  0.39420000  1
  O  O105  1  0.46170000  0.50010000  0.89560000  1
  O  O106  1  0.47130000  0.86020000  0.87110000  1
  O  O107  1  0.47560000  0.98330000  0.80810000  1
  O  O108  1  0.47690000  0.84580000  0.38980000  1
  O  O109  1  0.47920000  0.98090000  0.93660000  1
  O  O110  1  0.47940000  0.95760000  0.31080000  1
  O  O111  1  0.48100000  0.97500000  0.43810000  1
  O  O112  1  0.51900000  0.02500000  0.56190000  1
  O  O113  1  0.52060000  0.04240000  0.68920000  1
  O  O114  1  0.52080000  0.01910000  0.06340000  1
  O  O115  1  0.52310000  0.15420000  0.61020000  1
  O  O116  1  0.52440000  0.01670000  0.19190000  1
  O  O117  1  0.52870000  0.13980000  0.12890000  1
  O  O118  1  0.53830000  0.49990000  0.10440000  1
  O  O119  1  0.54170000  0.51120000  0.60580000  1
  O  O120  1  0.60830000  0.58010000  0.37610000  1
  O  O121  1  0.60980000  0.59480000  0.88000000  1
  O  O122  1  0.61910000  0.39180000  0.64690000  1
  O  O123  1  0.62140000  0.37950000  0.13460000  1
  O  O124  1  0.62190000  0.94580000  0.87280000  1
  O  O125  1  0.62600000  0.93240000  0.38010000  1
  O  O126  1  0.69200000  0.46200000  0.04500000  1
  O  O127  1  0.69510000  0.46240000  0.55160000  1
  O  O128  1  0.69970000  0.50310000  0.16460000  1
  O  O129  1  0.70120000  0.51500000  0.66850000  1
  O  O130  1  0.73510000  0.15180000  0.10360000  1
  O  O131  1  0.73560000  0.16830000  0.59730000  1
  O  O132  1  0.73860000  0.02790000  0.58460000  1
  O  O133  1  0.74340000  0.01160000  0.08500000  1
  O  O134  1  0.74570000  0.08500000  0.69810000  1
  O  O135  1  0.74890000  0.06230000  0.20110000  1
  O  O136  1  0.75110000  0.56230000  0.29890000  1
  O  O137  1  0.75430000  0.58500000  0.80190000  1
  O  O138  1  0.75660000  0.51160000  0.41500000  1
  O  O139  1  0.76140000  0.52790000  0.91540000  1
  O  O140  1  0.76440000  0.66830000  0.90270000  1
  O  O141  1  0.76490000  0.65180000  0.39640000  1
  O  O142  1  0.79880000  0.01500000  0.83150000  1
  O  O143  1  0.80030000  0.00310000  0.33540000  1
  O  O144  1  0.80490000  0.96240000  0.94840000  1
  O  O145  1  0.80800000  0.96200000  0.45500000  1
  O  O146  1  0.87400000  0.43240000  0.11990000  1
  O  O147  1  0.87810000  0.44580000  0.62720000  1
  O  O148  1  0.87860000  0.87950000  0.36540000  1
  O  O149  1  0.88090000  0.89180000  0.85310000  1
  O  O150  1  0.89020000  0.09480000  0.62000000  1
  O  O151  1  0.89170000  0.08010000  0.12390000  1
  O  O152  1  0.95830000  0.01120000  0.89420000  1
  O  O153  1  0.96170000  0.99990000  0.39560000  1
  O  O154  1  0.97130000  0.63980000  0.37110000  1
  O  O155  1  0.97560000  0.51670000  0.30810000  1
  O  O156  1  0.97690000  0.65420000  0.88980000  1
  O  O157  1  0.97920000  0.51910000  0.43660000  1
  O  O158  1  0.97940000  0.54240000  0.81080000  1
  O  O159  1  0.98100000  0.52500000  0.93810000  1
  F  F160  1  0.03990000  0.78030000  0.35920000  1
  F  F161  1  0.04300000  0.79380000  0.86650000  1
  F  F162  1  0.45700000  0.29380000  0.63350000  1
  F  F163  1  0.46010000  0.28030000  0.14080000  1
  F  F164  1  0.53990000  0.71970000  0.85920000  1
  F  F165  1  0.54300000  0.70620000  0.36650000  1
  F  F166  1  0.95700000  0.20620000  0.13350000  1
  F  F167  1  0.96010000  0.21970000  0.64080000  1
