# generated using pymatgen
data_Cu9H40C80(N2O)20
_symmetry_space_group_name_H-M   'P 1'
_cell_length_a   13.46400000
_cell_length_b   19.71700000
_cell_length_c   29.98500000
_cell_angle_alpha   90.00000000
_cell_angle_beta   90.00000000
_cell_angle_gamma   90.00000000
_symmetry_Int_Tables_number   1
_chemical_formula_structural   Cu9H40C80(N2O)20
_chemical_formula_sum   'Cu18 H80 C160 N80 O40'
_cell_volume   7960.10859468
_cell_formula_units_Z   2
loop_
 _symmetry_equiv_pos_site_id
 _symmetry_equiv_pos_as_xyz
  1  'x, y, z'
loop_
 _atom_site_type_symbol
 _atom_site_label
 _atom_site_symmetry_multiplicity
 _atom_site_fract_x
 _atom_site_fract_y
 _atom_site_fract_z
 _atom_site_occupancy
  Cu  Cu0  1  0.00000000  0.97202000  0.00000000  1
  Cu  Cu1  1  0.02667000  0.96990000  0.54216000  1
  Cu  Cu2  1  0.06885000  0.96836000  0.88082000  1
  Cu  Cu3  1  0.11557000  0.46943000  0.64195000  1
  Cu  Cu4  1  0.15019000  0.96895000  0.19931000  1
  Cu  Cu5  1  0.34981000  0.46895000  0.69931000  1
  Cu  Cu6  1  0.38443000  0.96943000  0.14195000  1
  Cu  Cu7  1  0.43115000  0.46836000  0.38082000  1
  Cu  Cu8  1  0.47333000  0.46990000  0.04216000  1
  Cu  Cu9  1  0.50000000  0.47202000  0.50000000  1
  Cu  Cu10  1  0.52667000  0.46990000  0.95784000  1
  Cu  Cu11  1  0.56885000  0.46836000  0.61918000  1
  Cu  Cu12  1  0.61557000  0.96943000  0.85805000  1
  Cu  Cu13  1  0.65019000  0.46895000  0.30069000  1
  Cu  Cu14  1  0.84981000  0.96895000  0.80069000  1
  Cu  Cu15  1  0.88443000  0.46943000  0.35805000  1
  Cu  Cu16  1  0.93115000  0.96836000  0.11918000  1
  Cu  Cu17  1  0.97333000  0.96990000  0.45784000  1
  H  H18  1  0.00660000  0.23330000  0.70430000  1
  H  H19  1  0.01560000  0.68620000  0.27810000  1
  H  H20  1  0.04820000  0.13420000  0.26200000  1
  H  H21  1  0.06740000  0.78840000  0.24540000  1
  H  H22  1  0.07710000  0.57080000  0.46390000  1
  H  H23  1  0.10470000  0.36910000  0.44960000  1
  H  H24  1  0.13110000  0.14490000  0.41150000  1
  H  H25  1  0.16360000  0.21300000  0.02910000  1
  H  H26  1  0.17660000  0.73670000  0.02480000  1
  H  H27  1  0.17690000  0.81580000  0.40980000  1
  H  H28  1  0.18500000  0.13980000  0.82160000  1
  H  H29  1  0.18550000  0.56790000  0.52400000  1
  H  H30  1  0.18960000  0.80940000  0.81330000  1
  H  H31  1  0.21310000  0.36610000  0.50970000  1
  H  H32  1  0.21920000  0.24430000  0.39930000  1
  H  H33  1  0.23220000  0.21730000  0.89870000  1
  H  H34  1  0.23530000  0.13730000  0.53690000  1
  H  H35  1  0.23980000  0.23890000  0.78780000  1
  H  H36  1  0.24290000  0.70640000  0.78550000  1
  H  H37  1  0.24550000  0.81150000  0.54020000  1
  H  H38  1  0.25450000  0.31150000  0.04020000  1
  H  H39  1  0.25710000  0.20640000  0.28550000  1
  H  H40  1  0.26020000  0.73890000  0.28780000  1
  H  H41  1  0.26470000  0.63730000  0.03690000  1
  H  H42  1  0.26780000  0.71730000  0.39870000  1
  H  H43  1  0.28080000  0.74430000  0.89930000  1
  H  H44  1  0.28690000  0.86610000  0.00970000  1
  H  H45  1  0.31040000  0.30940000  0.31330000  1
  H  H46  1  0.31450000  0.06790000  0.02400000  1
  H  H47  1  0.31500000  0.63980000  0.32160000  1
  H  H48  1  0.32310000  0.31580000  0.90980000  1
  H  H49  1  0.32340000  0.23670000  0.52480000  1
  H  H50  1  0.33640000  0.71300000  0.52910000  1
  H  H51  1  0.36890000  0.64490000  0.91150000  1
  H  H52  1  0.39530000  0.86910000  0.94960000  1
  H  H53  1  0.42290000  0.07080000  0.96390000  1
  H  H54  1  0.43260000  0.28840000  0.74540000  1
  H  H55  1  0.45180000  0.63420000  0.76200000  1
  H  H56  1  0.48440000  0.18620000  0.77810000  1
  H  H57  1  0.49340000  0.73330000  0.20430000  1
  H  H58  1  0.50660000  0.73330000  0.79570000  1
  H  H59  1  0.51560000  0.18620000  0.22190000  1
  H  H60  1  0.54820000  0.63420000  0.23800000  1
  H  H61  1  0.56740000  0.28840000  0.25460000  1
  H  H62  1  0.57710000  0.07080000  0.03610000  1
  H  H63  1  0.60470000  0.86910000  0.05040000  1
  H  H64  1  0.63110000  0.64490000  0.08850000  1
  H  H65  1  0.66360000  0.71300000  0.47090000  1
  H  H66  1  0.67660000  0.23670000  0.47520000  1
  H  H67  1  0.67690000  0.31580000  0.09020000  1
  H  H68  1  0.68500000  0.63980000  0.67840000  1
  H  H69  1  0.68550000  0.06790000  0.97600000  1
  H  H70  1  0.68960000  0.30940000  0.68670000  1
  H  H71  1  0.71310000  0.86610000  0.99030000  1
  H  H72  1  0.71920000  0.74430000  0.10070000  1
  H  H73  1  0.73220000  0.71730000  0.60130000  1
  H  H74  1  0.73530000  0.63730000  0.96310000  1
  H  H75  1  0.73980000  0.73890000  0.71220000  1
  H  H76  1  0.74290000  0.20640000  0.71450000  1
  H  H77  1  0.74550000  0.31150000  0.95980000  1
  H  H78  1  0.75450000  0.81150000  0.45980000  1
  H  H79  1  0.75710000  0.70640000  0.21450000  1
  H  H80  1  0.76020000  0.23890000  0.21220000  1
  H  H81  1  0.76470000  0.13730000  0.46310000  1
  H  H82  1  0.76780000  0.21730000  0.10130000  1
  H  H83  1  0.78080000  0.24430000  0.60070000  1
  H  H84  1  0.78690000  0.36610000  0.49030000  1
  H  H85  1  0.81040000  0.80940000  0.18670000  1
  H  H86  1  0.81450000  0.56790000  0.47600000  1
  H  H87  1  0.81500000  0.13980000  0.17840000  1
  H  H88  1  0.82310000  0.81580000  0.59020000  1
  H  H89  1  0.82340000  0.73670000  0.97520000  1
  H  H90  1  0.83640000  0.21300000  0.97090000  1
  H  H91  1  0.86890000  0.14490000  0.58850000  1
  H  H92  1  0.89530000  0.36910000  0.55040000  1
  H  H93  1  0.92290000  0.57080000  0.53610000  1
  H  H94  1  0.93260000  0.78840000  0.75460000  1
  H  H95  1  0.95180000  0.13420000  0.73800000  1
  H  H96  1  0.98440000  0.68620000  0.72190000  1
  H  H97  1  0.99340000  0.23330000  0.29570000  1
  C  C98  1  0.00330000  0.77280000  0.24010000  1
  C  C99  1  0.00710000  0.46310000  0.41420000  1
  C  C100  1  0.00950000  0.15520000  0.74800000  1
  C  C101  1  0.01920000  0.06260000  0.80380000  1
  C  C102  1  0.02720000  0.71150000  0.73970000  1
  C  C103  1  0.03170000  0.87520000  0.81270000  1
  C  C104  1  0.04230000  0.21450000  0.72780000  1
  C  C105  1  0.05390000  0.80840000  0.78560000  1
  C  C106  1  0.06300000  0.12720000  0.78310000  1
  C  C107  1  0.08010000  0.47020000  0.45077000  1
  C  C108  1  0.10430000  0.52980000  0.47310000  1
  C  C109  1  0.11880000  0.06400000  0.48320000  1
  C  C110  1  0.12090000  0.40890000  0.46450000  1
  C  C111  1  0.12360000  0.69110000  0.74760000  1
  C  C112  1  0.12860000  0.24590000  0.74270000  1
  C  C113  1  0.13120000  0.87980000  0.48600000  1
  C  C114  1  0.14800000  0.78430000  0.79480000  1
  C  C115  1  0.14910000  0.13820000  0.95640000  1
  C  C116  1  0.14930000  0.15860000  0.79800000  1
  C  C117  1  0.15360000  0.31470000  0.72700000  1
  C  C118  1  0.16820000  0.81250000  0.95350000  1
  C  C119  1  0.16930000  0.52800000  0.50910000  1
  C  C120  1  0.16970000  0.16330000  0.43420000  1
  C  C121  1  0.17110000  0.63260000  0.72010000  1
  C  C122  1  0.17450000  0.13120000  0.47540000  1
  C  C123  1  0.18160000  0.72400000  0.77720000  1
  C  C124  1  0.18210000  0.21790000  0.77780000  1
  C  C125  1  0.18590000  0.40710000  0.50050000  1
  C  C126  1  0.18890000  0.20530000  0.96280000  1
  C  C127  1  0.19560000  0.23360000  0.00520000  1
  C  C128  1  0.20220000  0.82340000  0.47600000  1
  C  C129  1  0.20890000  0.79520000  0.43370000  1
  C  C130  1  0.21010000  0.46670000  0.52278000  1
  C  C131  1  0.21520000  0.71830000  0.00210000  1
  C  C132  1  0.21820000  0.96700000  0.05990000  1
  C  C133  1  0.22000000  0.75040000  0.96080000  1
  C  C134  1  0.22240000  0.22280000  0.42690000  1
  C  C135  1  0.23210000  0.15880000  0.50940000  1
  C  C136  1  0.23660000  0.23610000  0.92710000  1
  C  C137  1  0.25000000  0.29260000  0.01180000  1
  C  C138  1  0.25000000  0.79260000  0.51180000  1
  C  C139  1  0.26340000  0.73610000  0.42710000  1
  C  C140  1  0.26790000  0.65880000  0.00940000  1
  C  C141  1  0.27760000  0.72280000  0.92690000  1
  C  C142  1  0.28000000  0.25040000  0.46080000  1
  C  C143  1  0.28180000  0.46700000  0.55990000  1
  C  C144  1  0.28480000  0.21830000  0.50210000  1
  C  C145  1  0.28990000  0.96670000  0.02278000  1
  C  C146  1  0.29110000  0.29520000  0.93370000  1
  C  C147  1  0.29780000  0.32340000  0.97600000  1
  C  C148  1  0.30440000  0.73360000  0.50520000  1
  C  C149  1  0.31110000  0.70530000  0.46280000  1
  C  C150  1  0.31410000  0.90710000  0.00050000  1
  C  C151  1  0.31790000  0.71790000  0.27780000  1
  C  C152  1  0.31840000  0.22400000  0.27720000  1
  C  C153  1  0.32550000  0.63120000  0.97540000  1
  C  C154  1  0.32890000  0.13260000  0.22010000  1
  C  C155  1  0.33030000  0.66330000  0.93420000  1
  C  C156  1  0.33070000  0.02800000  0.00910000  1
  C  C157  1  0.33180000  0.31250000  0.45350000  1
  C  C158  1  0.34640000  0.81470000  0.22700000  1
  C  C159  1  0.35070000  0.65860000  0.29800000  1
  C  C160  1  0.35090000  0.63820000  0.45640000  1
  C  C161  1  0.35200000  0.28430000  0.29480000  1
  C  C162  1  0.36880000  0.37980000  0.98600000  1
  C  C163  1  0.37140000  0.74590000  0.24270000  1
  C  C164  1  0.37640000  0.19110000  0.24760000  1
  C  C165  1  0.37910000  0.90890000  0.96450000  1
  C  C166  1  0.38120000  0.56400000  0.98320000  1
  C  C167  1  0.39570000  0.02980000  0.97310000  1
  C  C168  1  0.41990000  0.97020000  0.95077000  1
  C  C169  1  0.43700000  0.62720000  0.28310000  1
  C  C170  1  0.44610000  0.30840000  0.28560000  1
  C  C171  1  0.45770000  0.71450000  0.22780000  1
  C  C172  1  0.46830000  0.37520000  0.31270000  1
  C  C173  1  0.47280000  0.21150000  0.23970000  1
  C  C174  1  0.48080000  0.56260000  0.30380000  1
  C  C175  1  0.49050000  0.65520000  0.24800000  1
  C  C176  1  0.49290000  0.96310000  0.91420000  1
  C  C177  1  0.49670000  0.27280000  0.74010000  1
  C  C178  1  0.50330000  0.27280000  0.25990000  1
  C  C179  1  0.50710000  0.96310000  0.08580000  1
  C  C180  1  0.50950000  0.65520000  0.75200000  1
  C  C181  1  0.51920000  0.56260000  0.69620000  1
  C  C182  1  0.52720000  0.21150000  0.76030000  1
  C  C183  1  0.53170000  0.37520000  0.68730000  1
  C  C184  1  0.54230000  0.71450000  0.77220000  1
  C  C185  1  0.55390000  0.30840000  0.71440000  1
  C  C186  1  0.56300000  0.62720000  0.71690000  1
  C  C187  1  0.58010000  0.97020000  0.04923000  1
  C  C188  1  0.60430000  0.02980000  0.02690000  1
  C  C189  1  0.61880000  0.56400000  0.01680000  1
  C  C190  1  0.62090000  0.90890000  0.03550000  1
  C  C191  1  0.62360000  0.19110000  0.75240000  1
  C  C192  1  0.62860000  0.74590000  0.75730000  1
  C  C193  1  0.63120000  0.37980000  0.01400000  1
  C  C194  1  0.64800000  0.28430000  0.70520000  1
  C  C195  1  0.64910000  0.63820000  0.54360000  1
  C  C196  1  0.64930000  0.65860000  0.70200000  1
  C  C197  1  0.65360000  0.81470000  0.77300000  1
  C  C198  1  0.66820000  0.31250000  0.54650000  1
  C  C199  1  0.66930000  0.02800000  0.99090000  1
  C  C200  1  0.66970000  0.66330000  0.06580000  1
  C  C201  1  0.67110000  0.13260000  0.77990000  1
  C  C202  1  0.67450000  0.63120000  0.02460000  1
  C  C203  1  0.68160000  0.22400000  0.72280000  1
  C  C204  1  0.68210000  0.71790000  0.72220000  1
  C  C205  1  0.68590000  0.90710000  0.99950000  1
  C  C206  1  0.68890000  0.70530000  0.53720000  1
  C  C207  1  0.69560000  0.73360000  0.49480000  1
  C  C208  1  0.70220000  0.32340000  0.02400000  1
  C  C209  1  0.70890000  0.29520000  0.06630000  1
  C  C210  1  0.71010000  0.96670000  0.97722000  1
  C  C211  1  0.71520000  0.21830000  0.49790000  1
  C  C212  1  0.71820000  0.46700000  0.44010000  1
  C  C213  1  0.72000000  0.25040000  0.53920000  1
  C  C214  1  0.72240000  0.72280000  0.07310000  1
  C  C215  1  0.73210000  0.65880000  0.99060000  1
  C  C216  1  0.73660000  0.73610000  0.57290000  1
  C  C217  1  0.75000000  0.29260000  0.98820000  1
  C  C218  1  0.75000000  0.79260000  0.48820000  1
  C  C219  1  0.76340000  0.23610000  0.07290000  1
  C  C220  1  0.76790000  0.15880000  0.49060000  1
  C  C221  1  0.77760000  0.22280000  0.57310000  1
  C  C222  1  0.78000000  0.75040000  0.03920000  1
  C  C223  1  0.78180000  0.96700000  0.94010000  1
  C  C224  1  0.78480000  0.71830000  0.99790000  1
  C  C225  1  0.78990000  0.46670000  0.47722000  1
  C  C226  1  0.79110000  0.79520000  0.56630000  1
  C  C227  1  0.79780000  0.82340000  0.52400000  1
  C  C228  1  0.80440000  0.23360000  0.99480000  1
  C  C229  1  0.81110000  0.20530000  0.03720000  1
  C  C230  1  0.81410000  0.40710000  0.49950000  1
  C  C231  1  0.81790000  0.21790000  0.22220000  1
  C  C232  1  0.81840000  0.72400000  0.22280000  1
  C  C233  1  0.82550000  0.13120000  0.52460000  1
  C  C234  1  0.82890000  0.63260000  0.27990000  1
  C  C235  1  0.83030000  0.16330000  0.56580000  1
  C  C236  1  0.83070000  0.52800000  0.49090000  1
  C  C237  1  0.83180000  0.81250000  0.04650000  1
  C  C238  1  0.84640000  0.31470000  0.27300000  1
  C  C239  1  0.85070000  0.15860000  0.20200000  1
  C  C240  1  0.85090000  0.13820000  0.04360000  1
  C  C241  1  0.85200000  0.78430000  0.20520000  1
  C  C242  1  0.86880000  0.87980000  0.51400000  1
  C  C243  1  0.87140000  0.24590000  0.25730000  1
  C  C244  1  0.87640000  0.69110000  0.25240000  1
  C  C245  1  0.87910000  0.40890000  0.53550000  1
  C  C246  1  0.88120000  0.06400000  0.51680000  1
  C  C247  1  0.89570000  0.52980000  0.52690000  1
  C  C248  1  0.91990000  0.47020000  0.54923000  1
  C  C249  1  0.93700000  0.12720000  0.21690000  1
  C  C250  1  0.94610000  0.80840000  0.21440000  1
  C  C251  1  0.95770000  0.21450000  0.27220000  1
  C  C252  1  0.96830000  0.87520000  0.18730000  1
  C  C253  1  0.97280000  0.71150000  0.26030000  1
  C  C254  1  0.98080000  0.06260000  0.19620000  1
  C  C255  1  0.99050000  0.15520000  0.25200000  1
  C  C256  1  0.99290000  0.46310000  0.58580000  1
  C  C257  1  0.99670000  0.77280000  0.75990000  1
  N  N258  1  0.07080000  0.03640000  0.96890000  1
  N  N259  1  0.08190000  0.89260000  0.96590000  1
  N  N260  1  0.08830000  0.97610000  0.09930000  1
  N  N261  1  0.09690000  0.09950000  0.98870000  1
  N  N262  1  0.09870000  0.59690000  0.69260000  1
  N  N263  1  0.10220000  0.89600000  0.92670000  1
  N  N264  1  0.10700000  0.03620000  0.92450000  1
  N  N265  1  0.11350000  0.34540000  0.69580000  1
  N  N266  1  0.12220000  0.97490000  0.05724000  1
  N  N267  1  0.12320000  0.84330000  0.98720000  1
  N  N268  1  0.15430000  0.54230000  0.68410000  1
  N  N269  1  0.15540000  0.09910000  0.91670000  1
  N  N270  1  0.15970000  0.84180000  0.91650000  1
  N  N271  1  0.16170000  0.96750000  0.12700000  1
  N  N272  1  0.16650000  0.39810000  0.68130000  1
  N  N273  1  0.23930000  0.39770000  0.71040000  1
  N  N274  1  0.24180000  0.34800000  0.73700000  1
  N  N275  1  0.24400000  0.54450000  0.70390000  1
  N  N276  1  0.24750000  0.97800000  0.10300000  1
  N  N277  1  0.24790000  0.60250000  0.72850000  1
  N  N278  1  0.25210000  0.10250000  0.22850000  1
  N  N279  1  0.25250000  0.47800000  0.60300000  1
  N  N280  1  0.25600000  0.04450000  0.20390000  1
  N  N281  1  0.25820000  0.84800000  0.23700000  1
  N  N282  1  0.26070000  0.89770000  0.21040000  1
  N  N283  1  0.33350000  0.89810000  0.18130000  1
  N  N284  1  0.33830000  0.46750000  0.62700000  1
  N  N285  1  0.34030000  0.34180000  0.41650000  1
  N  N286  1  0.34460000  0.59910000  0.41670000  1
  N  N287  1  0.34570000  0.04230000  0.18410000  1
  N  N288  1  0.37680000  0.34330000  0.48720000  1
  N  N289  1  0.37780000  0.47490000  0.55724000  1
  N  N290  1  0.38650000  0.84540000  0.19580000  1
  N  N291  1  0.39300000  0.53620000  0.42450000  1
  N  N292  1  0.39780000  0.39600000  0.42670000  1
  N  N293  1  0.40130000  0.09690000  0.19260000  1
  N  N294  1  0.40310000  0.59950000  0.48870000  1
  N  N295  1  0.41170000  0.47610000  0.59930000  1
  N  N296  1  0.41810000  0.39260000  0.46590000  1
  N  N297  1  0.42920000  0.53640000  0.46890000  1
  N  N298  1  0.57080000  0.53640000  0.53110000  1
  N  N299  1  0.58190000  0.39260000  0.53410000  1
  N  N300  1  0.58830000  0.47610000  0.40070000  1
  N  N301  1  0.59690000  0.59950000  0.51130000  1
  N  N302  1  0.59870000  0.09690000  0.80740000  1
  N  N303  1  0.60220000  0.39600000  0.57330000  1
  N  N304  1  0.60700000  0.53620000  0.57550000  1
  N  N305  1  0.61350000  0.84540000  0.80420000  1
  N  N306  1  0.62220000  0.47490000  0.44276000  1
  N  N307  1  0.62320000  0.34330000  0.51280000  1
  N  N308  1  0.65430000  0.04230000  0.81590000  1
  N  N309  1  0.65540000  0.59910000  0.58330000  1
  N  N310  1  0.65970000  0.34180000  0.58350000  1
  N  N311  1  0.66170000  0.46750000  0.37300000  1
  N  N312  1  0.66650000  0.89810000  0.81870000  1
  N  N313  1  0.73930000  0.89770000  0.78960000  1
  N  N314  1  0.74180000  0.84800000  0.76300000  1
  N  N315  1  0.74400000  0.04450000  0.79610000  1
  N  N316  1  0.74750000  0.47800000  0.39700000  1
  N  N317  1  0.74790000  0.10250000  0.77150000  1
  N  N318  1  0.75210000  0.60250000  0.27150000  1
  N  N319  1  0.75250000  0.97800000  0.89700000  1
  N  N320  1  0.75600000  0.54450000  0.29610000  1
  N  N321  1  0.75820000  0.34800000  0.26300000  1
  N  N322  1  0.76070000  0.39770000  0.28960000  1
  N  N323  1  0.83350000  0.39810000  0.31870000  1
  N  N324  1  0.83830000  0.96750000  0.87300000  1
  N  N325  1  0.84030000  0.84180000  0.08350000  1
  N  N326  1  0.84460000  0.09910000  0.08330000  1
  N  N327  1  0.84570000  0.54230000  0.31590000  1
  N  N328  1  0.87680000  0.84330000  0.01280000  1
  N  N329  1  0.87780000  0.97490000  0.94276000  1
  N  N330  1  0.88650000  0.34540000  0.30420000  1
  N  N331  1  0.89300000  0.03620000  0.07550000  1
  N  N332  1  0.89780000  0.89600000  0.07330000  1
  N  N333  1  0.90130000  0.59690000  0.30740000  1
  N  N334  1  0.90310000  0.09950000  0.01130000  1
  N  N335  1  0.91170000  0.97610000  0.90070000  1
  N  N336  1  0.91810000  0.89260000  0.03410000  1
  N  N337  1  0.92920000  0.03640000  0.03110000  1
  O  O338  1  0.02590000  0.41770000  0.60320000  1
  O  O339  1  0.02620000  0.52520000  0.60160000  1
  O  O340  1  0.05330000  0.89370000  0.20310000  1
  O  O341  1  0.05730000  0.03790000  0.21310000  1
  O  O342  1  0.06490000  0.89730000  0.45370000  1
  O  O343  1  0.06510000  0.89580000  0.83860000  1
  O  O344  1  0.08470000  0.03890000  0.45030000  1
  O  O345  1  0.09250000  0.03020000  0.83280000  1
  O  O346  1  0.11060000  0.89610000  0.52330000  1
  O  O347  1  0.13050000  0.03540000  0.52470000  1
  O  O348  1  0.36950000  0.53540000  0.02470000  1
  O  O349  1  0.38940000  0.39610000  0.02330000  1
  O  O350  1  0.40750000  0.53020000  0.33280000  1
  O  O351  1  0.41530000  0.53890000  0.95030000  1
  O  O352  1  0.43490000  0.39580000  0.33860000  1
  O  O353  1  0.43510000  0.39730000  0.95370000  1
  O  O354  1  0.44270000  0.53790000  0.71310000  1
  O  O355  1  0.44670000  0.39370000  0.70310000  1
  O  O356  1  0.47380000  0.02520000  0.10160000  1
  O  O357  1  0.47410000  0.91770000  0.10320000  1
  O  O358  1  0.52590000  0.91770000  0.89680000  1
  O  O359  1  0.52620000  0.02520000  0.89840000  1
  O  O360  1  0.55330000  0.39370000  0.29690000  1
  O  O361  1  0.55730000  0.53790000  0.28690000  1
  O  O362  1  0.56490000  0.39730000  0.04630000  1
  O  O363  1  0.56510000  0.39580000  0.66140000  1
  O  O364  1  0.58470000  0.53890000  0.04970000  1
  O  O365  1  0.59250000  0.53020000  0.66720000  1
  O  O366  1  0.61060000  0.39610000  0.97670000  1
  O  O367  1  0.63050000  0.53540000  0.97530000  1
  O  O368  1  0.86950000  0.03540000  0.47530000  1
  O  O369  1  0.88940000  0.89610000  0.47670000  1
  O  O370  1  0.90750000  0.03020000  0.16720000  1
  O  O371  1  0.91530000  0.03890000  0.54970000  1
  O  O372  1  0.93490000  0.89580000  0.16140000  1
  O  O373  1  0.93510000  0.89730000  0.54630000  1
  O  O374  1  0.94270000  0.03790000  0.78690000  1
  O  O375  1  0.94670000  0.89370000  0.79690000  1
  O  O376  1  0.97380000  0.52520000  0.39840000  1
  O  O377  1  0.97410000  0.41770000  0.39680000  1
