# generated using pymatgen
data_Sm4H14C28N4O17
_symmetry_space_group_name_H-M   'P 1'
_cell_length_a   16.47300000
_cell_length_b   17.06800000
_cell_length_c   17.38400000
_cell_angle_alpha   77.35000000
_cell_angle_beta   62.91000000
_cell_angle_gamma   62.40000000
_symmetry_Int_Tables_number   1
_chemical_formula_structural   Sm4H14C28N4O17
_chemical_formula_sum   'Sm8 H28 C56 N8 O34'
_cell_volume   3856.10413621
_cell_formula_units_Z   2
loop_
 _symmetry_equiv_pos_site_id
 _symmetry_equiv_pos_as_xyz
  1  'x, y, z'
loop_
 _atom_site_type_symbol
 _atom_site_label
 _atom_site_symmetry_multiplicity
 _atom_site_fract_x
 _atom_site_fract_y
 _atom_site_fract_z
 _atom_site_occupancy
  Sm  Sm0  1  0.01736000  0.02417000  0.67806000  1
  Sm  Sm1  1  0.04052000  0.19324000  0.95732000  1
  Sm  Sm2  1  0.22368000  0.48160000  0.80207000  1
  Sm  Sm3  1  0.31609000  0.68451000  0.44538000  1
  Sm  Sm4  1  0.68391000  0.31549000  0.55462000  1
  Sm  Sm5  1  0.77632000  0.51840000  0.19793000  1
  Sm  Sm6  1  0.95948000  0.80676000  0.04268000  1
  Sm  Sm7  1  0.98264000  0.97583000  0.32194000  1
  H  H8  1  0.04110000  0.34700000  0.70360000  1
  H  H9  1  0.06150000  0.41500000  0.57010000  1
  H  H10  1  0.15610000  0.50320000  0.51790000  1
  H  H11  1  0.23400000  0.37040000  0.90420000  1
  H  H12  1  0.23790000  0.72110000  0.16750000  1
  H  H13  1  0.27990000  0.02010000  0.02750000  1
  H  H14  1  0.30320000  0.40590000  0.86470000  1
  H  H15  1  0.32220000  0.53790000  0.00030000  1
  H  H16  1  0.35610000  0.95920000  0.50790000  1
  H  H17  1  0.35800000  0.58590000  0.09470000  1
  H  H18  1  0.38540000  0.20640000  0.66860000  1
  H  H19  1  0.38970000  0.83860000  0.19320000  1
  H  H20  1  0.42280000  0.90810000  0.05360000  1
  H  H21  1  0.47810000  0.07370000  0.59270000  1
  H  H22  1  0.52190000  0.92630000  0.40730000  1
  H  H23  1  0.57720000  0.09190000  0.94640000  1
  H  H24  1  0.61030000  0.16140000  0.80680000  1
  H  H25  1  0.61460000  0.79360000  0.33140000  1
  H  H26  1  0.64200000  0.41410000  0.90530000  1
  H  H27  1  0.64390000  0.04080000  0.49210000  1
  H  H28  1  0.67780000  0.46210000  0.99970000  1
  H  H29  1  0.69680000  0.59410000  0.13530000  1
  H  H30  1  0.72010000  0.97990000  0.97250000  1
  H  H31  1  0.76210000  0.27890000  0.83250000  1
  H  H32  1  0.76600000  0.62960000  0.09580000  1
  H  H33  1  0.84390000  0.49680000  0.48210000  1
  H  H34  1  0.93850000  0.58500000  0.42990000  1
  H  H35  1  0.95890000  0.65300000  0.29640000  1
  C  C36  1  0.05680000  0.82820000  0.16520000  1
  C  C37  1  0.07620000  0.38430000  0.68180000  1
  C  C38  1  0.08430000  0.06860000  0.13420000  1
  C  C39  1  0.08880000  0.42320000  0.60330000  1
  C  C40  1  0.10740000  0.35430000  0.81900000  1
  C  C41  1  0.11490000  0.39790000  0.73200000  1
  C  C42  1  0.14050000  0.74240000  0.11920000  1
  C  C43  1  0.14340000  0.47670000  0.57280000  1
  C  C44  1  0.15690000  0.61770000  0.96530000  1
  C  C45  1  0.17600000  0.00350000  0.14480000  1
  C  C46  1  0.17660000  0.48730000  0.62710000  1
  C  C47  1  0.18480000  0.64200000  0.02440000  1
  C  C48  1  0.21280000  0.85310000  0.32040000  1
  C  C49  1  0.22580000  0.69910000  0.13000000  1
  C  C50  1  0.23980000  0.90060000  0.23600000  1
  C  C51  1  0.24230000  0.53670000  0.60000000  1
  C  C52  1  0.24590000  0.86480000  0.54310000  1
  C  C53  1  0.27110000  0.98770000  0.08120000  1
  C  C54  1  0.27570000  0.59110000  0.03140000  1
  C  C55  1  0.29750000  0.61950000  0.08650000  1
  C  C56  1  0.33610000  0.88030000  0.17930000  1
  C  C57  1  0.35140000  0.85010000  0.48300000  1
  C  C58  1  0.35580000  0.92260000  0.09690000  1
  C  C59  1  0.39410000  0.90770000  0.47350000  1
  C  C60  1  0.45210000  0.32600000  0.66990000  1
  C  C61  1  0.45390000  0.18890000  0.63140000  1
  C  C62  1  0.49220000  0.88740000  0.41500000  1
  C  C63  1  0.49790000  0.75740000  0.37950000  1
  C  C64  1  0.50210000  0.24260000  0.62050000  1
  C  C65  1  0.50780000  0.11260000  0.58500000  1
  C  C66  1  0.54610000  0.81110000  0.36860000  1
  C  C67  1  0.54790000  0.67400000  0.33010000  1
  C  C68  1  0.60590000  0.09230000  0.52650000  1
  C  C69  1  0.64420000  0.07740000  0.90310000  1
  C  C70  1  0.64860000  0.14990000  0.51700000  1
  C  C71  1  0.66390000  0.11970000  0.82070000  1
  C  C72  1  0.70250000  0.38050000  0.91350000  1
  C  C73  1  0.72430000  0.40890000  0.96860000  1
  C  C74  1  0.72890000  0.01230000  0.91880000  1
  C  C75  1  0.75410000  0.13520000  0.45690000  1
  C  C76  1  0.75770000  0.46330000  0.40000000  1
  C  C77  1  0.76020000  0.09940000  0.76400000  1
  C  C78  1  0.77420000  0.30090000  0.87000000  1
  C  C79  1  0.78720000  0.14690000  0.67960000  1
  C  C80  1  0.81520000  0.35800000  0.97560000  1
  C  C81  1  0.82340000  0.51270000  0.37290000  1
  C  C82  1  0.82400000  0.99650000  0.85520000  1
  C  C83  1  0.84310000  0.38230000  0.03470000  1
  C  C84  1  0.85660000  0.52330000  0.42720000  1
  C  C85  1  0.85950000  0.25760000  0.88080000  1
  C  C86  1  0.88510000  0.60210000  0.26800000  1
  C  C87  1  0.89260000  0.64570000  0.18100000  1
  C  C88  1  0.91120000  0.57680000  0.39670000  1
  C  C89  1  0.91570000  0.93140000  0.86580000  1
  C  C90  1  0.92380000  0.61570000  0.31820000  1
  C  C91  1  0.94320000  0.17180000  0.83480000  1
  N  N92  1  0.12060000  0.71720000  0.06540000  1
  N  N93  1  0.15730000  0.96220000  0.22200000  1
  N  N94  1  0.16080000  0.45070000  0.70600000  1
  N  N95  1  0.40340000  0.77760000  0.43450000  1
  N  N96  1  0.59660000  0.22240000  0.56550000  1
  N  N97  1  0.83920000  0.54930000  0.29400000  1
  N  N98  1  0.84270000  0.03780000  0.77800000  1
  N  N99  1  0.87940000  0.28280000  0.93460000  1
  O  O100  1  0.00080000  0.92960000  0.80880000  1
  O  O101  1  0.01920000  0.13720000  0.85300000  1
  O  O102  1  0.06900000  0.85850000  0.21580000  1
  O  O103  1  0.07190000  0.29900000  0.84490000  1
  O  O104  1  0.07430000  0.67270000  0.96190000  1
  O  O105  1  0.09160000  0.11830000  0.07020000  1
  O  O106  1  0.11910000  0.87150000  0.36490000  1
  O  O107  1  0.14490000  0.37550000  0.85610000  1
  O  O108  1  0.19250000  0.93150000  0.59130000  1
  O  O109  1  0.21270000  0.54940000  0.92280000  1
  O  O110  1  0.21710000  0.80880000  0.54210000  1
  O  O111  1  0.25380000  0.57820000  0.52930000  1
  O  O112  1  0.27930000  0.53220000  0.64970000  1
  O  O113  1  0.27970000  0.37780000  0.90860000  1
  O  O114  1  0.28140000  0.79700000  0.34330000  1
  O  O115  1  0.36160000  0.35200000  0.72130000  1
  O  O116  1  0.49190000  0.63580000  0.34430000  1
  O  O117  1  0.50810000  0.36420000  0.65570000  1
  O  O118  1  0.63840000  0.64800000  0.27870000  1
  O  O119  1  0.71860000  0.20300000  0.65670000  1
  O  O120  1  0.72030000  0.62220000  0.09140000  1
  O  O121  1  0.72070000  0.46780000  0.35030000  1
  O  O122  1  0.74620000  0.42180000  0.47070000  1
  O  O123  1  0.78290000  0.19120000  0.45790000  1
  O  O124  1  0.78730000  0.45060000  0.07720000  1
  O  O125  1  0.80750000  0.06850000  0.40870000  1
  O  O126  1  0.85510000  0.62450000  0.14390000  1
  O  O127  1  0.88090000  0.12850000  0.63510000  1
  O  O128  1  0.90840000  0.88170000  0.92980000  1
  O  O129  1  0.92570000  0.32730000  0.03810000  1
  O  O130  1  0.92810000  0.70100000  0.15510000  1
  O  O131  1  0.93100000  0.14150000  0.78420000  1
  O  O132  1  0.98080000  0.86280000  0.14700000  1
  O  O133  1  0.99920000  0.07040000  0.19120000  1
