# generated using pymatgen
data_Ag2H8C17(O2F3)2
_symmetry_space_group_name_H-M   'P 1'
_cell_length_a   6.76810000
_cell_length_b   30.98400000
_cell_length_c   30.98400000
_cell_angle_alpha   90.00000000
_cell_angle_beta   90.00000000
_cell_angle_gamma   90.00000000
_symmetry_Int_Tables_number   1
_chemical_formula_structural   Ag2H8C17(O2F3)2
_chemical_formula_sum   'Ag16 H64 C136 O32 F48'
_cell_volume   6497.43187743
_cell_formula_units_Z   8
loop_
 _symmetry_equiv_pos_site_id
 _symmetry_equiv_pos_as_xyz
  1  'x, y, z'
loop_
 _atom_site_type_symbol
 _atom_site_label
 _atom_site_symmetry_multiplicity
 _atom_site_fract_x
 _atom_site_fract_y
 _atom_site_fract_z
 _atom_site_occupancy
  Ag  Ag0  1  0.07533000  0.55872000  0.52025000  1
  Ag  Ag1  1  0.07533000  0.94128000  0.97975000  1
  Ag  Ag2  1  0.13725000  0.50954000  0.04328000  1
  Ag  Ag3  1  0.13725000  0.99046000  0.45671000  1
  Ag  Ag4  1  0.36275000  0.04328000  0.99046000  1
  Ag  Ag5  1  0.36275000  0.45671000  0.50954000  1
  Ag  Ag6  1  0.42467000  0.52025000  0.94128000  1
  Ag  Ag7  1  0.42467000  0.97975000  0.55872000  1
  Ag  Ag8  1  0.57533000  0.02025000  0.44128000  1
  Ag  Ag9  1  0.57533000  0.47975000  0.05872000  1
  Ag  Ag10  1  0.63725000  0.54329000  0.49046000  1
  Ag  Ag11  1  0.63725000  0.95671000  0.00954000  1
  Ag  Ag12  1  0.86275000  0.00954000  0.54329000  1
  Ag  Ag13  1  0.86275000  0.49046000  0.95671000  1
  Ag  Ag14  1  0.92467000  0.05872000  0.02025000  1
  Ag  Ag15  1  0.92467000  0.44128000  0.47975000  1
  H  H16  1  0.03360000  0.58630000  0.14880000  1
  H  H17  1  0.03360000  0.91370000  0.35120000  1
  H  H18  1  0.04760000  0.23390000  0.58030000  1
  H  H19  1  0.04760000  0.26610000  0.91970000  1
  H  H20  1  0.05030000  0.70080000  0.44980000  1
  H  H21  1  0.05030000  0.79920000  0.05020000  1
  H  H22  1  0.06350000  0.11560000  0.71330000  1
  H  H23  1  0.06350000  0.38440000  0.78670000  1
  H  H24  1  0.12760000  0.53360000  0.29500000  1
  H  H25  1  0.12760000  0.96640000  0.20500000  1
  H  H26  1  0.15430000  0.01320000  0.14750000  1
  H  H27  1  0.15430000  0.48680000  0.35250000  1
  H  H28  1  0.21680000  0.06960000  0.58620000  1
  H  H29  1  0.21680000  0.43040000  0.91380000  1
  H  H30  1  0.23620000  0.63350000  0.37460000  1
  H  H31  1  0.23620000  0.86650000  0.12540000  1
  H  H32  1  0.26380000  0.12540000  0.63350000  1
  H  H33  1  0.26380000  0.37460000  0.86650000  1
  H  H34  1  0.28320000  0.58620000  0.43040000  1
  H  H35  1  0.28320000  0.91380000  0.06960000  1
  H  H36  1  0.34570000  0.14750000  0.48680000  1
  H  H37  1  0.34570000  0.35250000  0.01320000  1
  H  H38  1  0.37240000  0.20500000  0.53360000  1
  H  H39  1  0.37240000  0.29500000  0.96640000  1
  H  H40  1  0.43650000  0.71330000  0.38440000  1
  H  H41  1  0.43650000  0.78670000  0.11560000  1
  H  H42  1  0.44970000  0.05020000  0.70080000  1
  H  H43  1  0.44970000  0.44980000  0.79920000  1
  H  H44  1  0.45240000  0.58030000  0.26610000  1
  H  H45  1  0.45240000  0.91970000  0.23390000  1
  H  H46  1  0.46640000  0.14880000  0.91370000  1
  H  H47  1  0.46640000  0.35120000  0.58630000  1
  H  H48  1  0.53360000  0.64880000  0.41370000  1
  H  H49  1  0.53360000  0.85120000  0.08630000  1
  H  H50  1  0.54760000  0.08030000  0.76610000  1
  H  H51  1  0.54760000  0.41970000  0.73390000  1
  H  H52  1  0.55030000  0.55020000  0.20080000  1
  H  H53  1  0.55030000  0.94980000  0.29920000  1
  H  H54  1  0.56350000  0.21330000  0.88440000  1
  H  H55  1  0.56350000  0.28670000  0.61560000  1
  H  H56  1  0.62760000  0.70500000  0.03360000  1
  H  H57  1  0.62760000  0.79500000  0.46640000  1
  H  H58  1  0.65430000  0.64750000  0.98680000  1
  H  H59  1  0.65430000  0.85250000  0.51320000  1
  H  H60  1  0.71680000  0.08620000  0.93040000  1
  H  H61  1  0.71680000  0.41380000  0.56960000  1
  H  H62  1  0.73620000  0.62540000  0.13350000  1
  H  H63  1  0.73620000  0.87460000  0.36650000  1
  H  H64  1  0.76380000  0.13350000  0.87460000  1
  H  H65  1  0.76380000  0.36650000  0.62540000  1
  H  H66  1  0.78320000  0.56960000  0.08620000  1
  H  H67  1  0.78320000  0.93040000  0.41380000  1
  H  H68  1  0.84570000  0.51320000  0.64750000  1
  H  H69  1  0.84570000  0.98680000  0.85250000  1
  H  H70  1  0.87240000  0.03360000  0.79500000  1
  H  H71  1  0.87240000  0.46640000  0.70500000  1
  H  H72  1  0.93650000  0.61560000  0.21330000  1
  H  H73  1  0.93650000  0.88440000  0.28670000  1
  H  H74  1  0.94970000  0.20080000  0.94980000  1
  H  H75  1  0.94970000  0.29920000  0.55020000  1
  H  H76  1  0.95240000  0.73390000  0.08030000  1
  H  H77  1  0.95240000  0.76610000  0.41970000  1
  H  H78  1  0.96640000  0.08630000  0.64880000  1
  H  H79  1  0.96640000  0.41370000  0.85120000  1
  C  C80  1  0.05940000  0.60231000  0.21112000  1
  C  C81  1  0.05940000  0.89769000  0.28888000  1
  C  C82  1  0.07300000  0.20324000  0.93680000  1
  C  C83  1  0.07300000  0.29676000  0.56320000  1
  C  C84  1  0.09570000  0.12924000  0.79480000  1
  C  C85  1  0.09570000  0.37076000  0.70520000  1
  C  C86  1  0.11800000  0.58481000  0.17239000  1
  C  C87  1  0.11800000  0.91519000  0.32761000  1
  C  C88  1  0.12700000  0.61979000  0.29091000  1
  C  C89  1  0.12700000  0.88021000  0.20909000  1
  C  C90  1  0.13260000  0.24251000  0.91888000  1
  C  C91  1  0.13260000  0.25749000  0.58112000  1
  C  C92  1  0.15120000  0.12519000  0.95500000  1
  C  C93  1  0.15120000  0.37481000  0.54500000  1
  C  C94  1  0.15460000  0.54437000  0.32242000  1
  C  C95  1  0.15460000  0.95563000  0.17758000  1
  C  C96  1  0.17250000  0.51621000  0.35676000  1
  C  C97  1  0.17250000  0.98379000  0.14324000  1
  C  C98  1  0.17680000  0.58901000  0.32837000  1
  C  C99  1  0.17680000  0.91099000  0.17163000  1
  C  C100  1  0.18160000  0.60032000  0.24684000  1
  C  C101  1  0.18160000  0.89968000  0.25316000  1
  C  C102  1  0.19910000  0.16783000  0.93506000  1
  C  C103  1  0.19910000  0.33217000  0.56494000  1
  C  C104  1  0.21780000  0.53184000  0.39781000  1
  C  C105  1  0.21780000  0.96816000  0.10219000  1
  C  C106  1  0.22230000  0.50193000  0.43535000  1
  C  C107  1  0.22230000  0.60404000  0.36980000  1
  C  C108  1  0.22230000  0.89596000  0.13020000  1
  C  C109  1  0.22230000  0.99807000  0.06465000  1
  C  C110  1  0.23970000  0.66347000  0.29409000  1
  C  C111  1  0.23970000  0.83653000  0.20591000  1
  C  C112  1  0.24670000  0.57573000  0.40340000  1
  C  C113  1  0.24670000  0.92427000  0.09660000  1
  C  C114  1  0.25330000  0.09660000  0.57573000  1
  C  C115  1  0.25330000  0.40340000  0.92427000  1
  C  C116  1  0.26030000  0.20591000  0.66347000  1
  C  C117  1  0.26030000  0.29409000  0.83653000  1
  C  C118  1  0.27770000  0.06465000  0.50193000  1
  C  C119  1  0.27770000  0.13020000  0.60404000  1
  C  C120  1  0.27770000  0.36980000  0.89596000  1
  C  C121  1  0.27770000  0.43535000  0.99807000  1
  C  C122  1  0.28220000  0.10219000  0.53184000  1
  C  C123  1  0.28220000  0.39781000  0.96816000  1
  C  C124  1  0.30090000  0.56494000  0.16783000  1
  C  C125  1  0.30090000  0.93506000  0.33217000  1
  C  C126  1  0.31840000  0.24684000  0.89968000  1
  C  C127  1  0.31840000  0.25316000  0.60032000  1
  C  C128  1  0.32320000  0.17163000  0.58901000  1
  C  C129  1  0.32320000  0.32837000  0.91099000  1
  C  C130  1  0.32750000  0.14324000  0.51621000  1
  C  C131  1  0.32750000  0.35676000  0.98379000  1
  C  C132  1  0.34540000  0.17758000  0.54437000  1
  C  C133  1  0.34540000  0.32242000  0.95563000  1
  C  C134  1  0.34880000  0.54500000  0.12519000  1
  C  C135  1  0.34880000  0.95500000  0.37481000  1
  C  C136  1  0.36740000  0.58112000  0.24251000  1
  C  C137  1  0.36740000  0.91888000  0.25749000  1
  C  C138  1  0.37300000  0.20909000  0.61979000  1
  C  C139  1  0.37300000  0.29091000  0.88021000  1
  C  C140  1  0.38200000  0.17239000  0.91519000  1
  C  C141  1  0.38200000  0.32761000  0.58481000  1
  C  C142  1  0.40430000  0.70520000  0.12924000  1
  C  C143  1  0.40430000  0.79480000  0.37076000  1
  C  C144  1  0.42700000  0.56320000  0.20324000  1
  C  C145  1  0.42700000  0.93680000  0.29676000  1
  C  C146  1  0.44060000  0.21112000  0.89769000  1
  C  C147  1  0.44060000  0.28888000  0.60231000  1
  C  C148  1  0.55940000  0.71112000  0.39769000  1
  C  C149  1  0.55940000  0.78888000  0.10231000  1
  C  C150  1  0.57300000  0.06320000  0.70324000  1
  C  C151  1  0.57300000  0.43680000  0.79676000  1
  C  C152  1  0.59570000  0.20520000  0.62924000  1
  C  C153  1  0.59570000  0.29480000  0.87076000  1
  C  C154  1  0.61800000  0.67239000  0.41519000  1
  C  C155  1  0.61800000  0.82761000  0.08481000  1
  C  C156  1  0.62700000  0.70909000  0.11979000  1
  C  C157  1  0.62700000  0.79091000  0.38021000  1
  C  C158  1  0.63260000  0.08112000  0.74251000  1
  C  C159  1  0.63260000  0.41888000  0.75749000  1
  C  C160  1  0.65120000  0.04500000  0.62519000  1
  C  C161  1  0.65120000  0.45500000  0.87481000  1
  C  C162  1  0.65460000  0.67758000  0.04437000  1
  C  C163  1  0.65460000  0.82242000  0.45563000  1
  C  C164  1  0.67250000  0.64324000  0.01621000  1
  C  C165  1  0.67250000  0.85676000  0.48379000  1
  C  C166  1  0.67680000  0.67163000  0.08901000  1
  C  C167  1  0.67680000  0.82837000  0.41099000  1
  C  C168  1  0.68160000  0.74684000  0.39968000  1
  C  C169  1  0.68160000  0.75316000  0.10032000  1
  C  C170  1  0.69910000  0.06494000  0.66783000  1
  C  C171  1  0.69910000  0.43506000  0.83217000  1
  C  C172  1  0.71780000  0.60219000  0.03184000  1
  C  C173  1  0.71780000  0.89781000  0.46816000  1
  C  C174  1  0.72230000  0.56465000  0.00193000  1
  C  C175  1  0.72230000  0.63020000  0.10404000  1
  C  C176  1  0.72230000  0.86980000  0.39596000  1
  C  C177  1  0.72230000  0.93535000  0.49807000  1
  C  C178  1  0.73970000  0.70591000  0.16347000  1
  C  C179  1  0.73970000  0.79409000  0.33653000  1
  C  C180  1  0.74670000  0.59660000  0.07573000  1
  C  C181  1  0.74670000  0.90340000  0.42427000  1
  C  C182  1  0.75330000  0.07573000  0.90340000  1
  C  C183  1  0.75330000  0.42427000  0.59660000  1
  C  C184  1  0.76030000  0.16347000  0.79409000  1
  C  C185  1  0.76030000  0.33653000  0.70591000  1
  C  C186  1  0.77770000  0.00193000  0.93535000  1
  C  C187  1  0.77770000  0.10404000  0.86980000  1
  C  C188  1  0.77770000  0.39596000  0.63020000  1
  C  C189  1  0.77770000  0.49807000  0.56465000  1
  C  C190  1  0.78220000  0.03184000  0.89781000  1
  C  C191  1  0.78220000  0.46816000  0.60219000  1
  C  C192  1  0.80090000  0.66783000  0.43506000  1
  C  C193  1  0.80090000  0.83217000  0.06494000  1
  C  C194  1  0.81840000  0.10032000  0.74684000  1
  C  C195  1  0.81840000  0.39968000  0.75316000  1
  C  C196  1  0.82320000  0.08901000  0.82837000  1
  C  C197  1  0.82320000  0.41099000  0.67163000  1
  C  C198  1  0.82750000  0.01621000  0.85676000  1
  C  C199  1  0.82750000  0.48379000  0.64324000  1
  C  C200  1  0.84540000  0.04437000  0.82242000  1
  C  C201  1  0.84540000  0.45563000  0.67758000  1
  C  C202  1  0.84880000  0.62519000  0.45500000  1
  C  C203  1  0.84880000  0.87481000  0.04500000  1
  C  C204  1  0.86740000  0.74251000  0.41888000  1
  C  C205  1  0.86740000  0.75749000  0.08112000  1
  C  C206  1  0.87300000  0.11979000  0.79091000  1
  C  C207  1  0.87300000  0.38021000  0.70909000  1
  C  C208  1  0.88200000  0.08481000  0.67239000  1
  C  C209  1  0.88200000  0.41519000  0.82761000  1
  C  C210  1  0.90430000  0.62924000  0.29480000  1
  C  C211  1  0.90430000  0.87076000  0.20520000  1
  C  C212  1  0.92700000  0.70324000  0.43680000  1
  C  C213  1  0.92700000  0.79676000  0.06320000  1
  C  C214  1  0.94060000  0.10231000  0.71112000  1
  C  C215  1  0.94060000  0.39769000  0.78888000  1
  O  O216  1  0.00950000  0.12195000  0.98104000  1
  O  O217  1  0.00950000  0.37805000  0.51896000  1
  O  O218  1  0.16510000  0.03607000  0.06923000  1
  O  O219  1  0.16510000  0.46393000  0.43077000  1
  O  O220  1  0.21500000  0.02827000  0.51744000  1
  O  O221  1  0.21500000  0.47173000  0.98256000  1
  O  O222  1  0.23800000  0.55500000  0.09388000  1
  O  O223  1  0.23800000  0.94500000  0.40612000  1
  O  O224  1  0.26200000  0.09388000  0.94500000  1
  O  O225  1  0.26200000  0.40612000  0.55500000  1
  O  O226  1  0.28500000  0.51744000  0.47173000  1
  O  O227  1  0.28500000  0.98256000  0.02827000  1
  O  O228  1  0.33490000  0.06923000  0.46393000  1
  O  O229  1  0.33490000  0.43077000  0.03607000  1
  O  O230  1  0.49050000  0.51896000  0.12195000  1
  O  O231  1  0.49050000  0.98104000  0.37805000  1
  O  O232  1  0.50950000  0.01896000  0.62195000  1
  O  O233  1  0.50950000  0.48104000  0.87805000  1
  O  O234  1  0.66510000  0.56923000  0.96393000  1
  O  O235  1  0.66510000  0.93077000  0.53607000  1
  O  O236  1  0.71500000  0.01744000  0.97173000  1
  O  O237  1  0.71500000  0.48256000  0.52827000  1
  O  O238  1  0.73800000  0.59388000  0.44500000  1
  O  O239  1  0.73800000  0.90612000  0.05500000  1
  O  O240  1  0.76200000  0.05500000  0.59388000  1
  O  O241  1  0.76200000  0.44500000  0.90612000  1
  O  O242  1  0.78500000  0.52827000  0.01744000  1
  O  O243  1  0.78500000  0.97173000  0.48256000  1
  O  O244  1  0.83490000  0.53607000  0.56923000  1
  O  O245  1  0.83490000  0.96393000  0.93077000  1
  O  O246  1  0.99050000  0.62195000  0.48104000  1
  O  O247  1  0.99050000  0.87805000  0.01896000  1
  F  F248  1  0.06970000  0.19704000  0.65714000  1
  F  F249  1  0.06970000  0.30296000  0.84286000  1
  F  F250  1  0.14860000  0.13944000  0.83504000  1
  F  F251  1  0.14860000  0.36056000  0.66496000  1
  F  F252  1  0.15620000  0.16164000  0.76977000  1
  F  F253  1  0.15620000  0.33836000  0.73023000  1
  F  F254  1  0.16710000  0.68915000  0.32549000  1
  F  F255  1  0.16710000  0.81085000  0.17451000  1
  F  F256  1  0.20120000  0.09428000  0.78386000  1
  F  F257  1  0.20120000  0.40572000  0.71614000  1
  F  F258  1  0.22830000  0.68555000  0.25751000  1
  F  F259  1  0.22830000  0.81445000  0.24249000  1
  F  F260  1  0.27170000  0.24249000  0.68555000  1
  F  F261  1  0.27170000  0.25751000  0.81445000  1
  F  F262  1  0.29880000  0.71614000  0.09428000  1
  F  F263  1  0.29880000  0.78386000  0.40572000  1
  F  F264  1  0.33290000  0.17451000  0.68915000  1
  F  F265  1  0.33290000  0.32549000  0.81085000  1
  F  F266  1  0.34380000  0.73023000  0.16164000  1
  F  F267  1  0.34380000  0.76977000  0.33836000  1
  F  F268  1  0.35140000  0.66496000  0.13944000  1
  F  F269  1  0.35140000  0.83504000  0.36056000  1
  F  F270  1  0.43030000  0.65714000  0.30296000  1
  F  F271  1  0.43030000  0.84286000  0.19704000  1
  F  F272  1  0.56970000  0.15714000  0.80296000  1
  F  F273  1  0.56970000  0.34286000  0.69704000  1
  F  F274  1  0.64860000  0.16496000  0.63944000  1
  F  F275  1  0.64860000  0.33504000  0.86056000  1
  F  F276  1  0.65620000  0.23023000  0.66164000  1
  F  F277  1  0.65620000  0.26977000  0.83836000  1
  F  F278  1  0.66710000  0.67451000  0.18915000  1
  F  F279  1  0.66710000  0.82549000  0.31085000  1
  F  F280  1  0.70120000  0.21614000  0.59428000  1
  F  F281  1  0.70120000  0.28386000  0.90572000  1
  F  F282  1  0.72830000  0.74249000  0.18555000  1
  F  F283  1  0.72830000  0.75751000  0.31445000  1
  F  F284  1  0.77170000  0.18555000  0.75751000  1
  F  F285  1  0.77170000  0.31445000  0.74249000  1
  F  F286  1  0.79880000  0.59428000  0.28386000  1
  F  F287  1  0.79880000  0.90572000  0.21614000  1
  F  F288  1  0.83290000  0.18915000  0.82549000  1
  F  F289  1  0.83290000  0.31085000  0.67451000  1
  F  F290  1  0.84380000  0.66164000  0.26977000  1
  F  F291  1  0.84380000  0.83836000  0.23023000  1
  F  F292  1  0.85140000  0.63944000  0.33504000  1
  F  F293  1  0.85140000  0.86056000  0.16496000  1
  F  F294  1  0.93030000  0.69704000  0.15714000  1
  F  F295  1  0.93030000  0.80296000  0.34286000  1
