# generated using pymatgen
data_USiH17(C9O2)3
_symmetry_space_group_name_H-M   'P 1'
_cell_length_a   10.42370000
_cell_length_b   14.72810000
_cell_length_c   25.59900000
_cell_angle_alpha   81.66500000
_cell_angle_beta   82.26000000
_cell_angle_gamma   71.66700000
_symmetry_Int_Tables_number   1
_chemical_formula_structural   USiH17(C9O2)3
_chemical_formula_sum   'U4 Si4 H68 C108 O24'
_cell_volume   3674.47878360
_cell_formula_units_Z   4
loop_
 _symmetry_equiv_pos_site_id
 _symmetry_equiv_pos_as_xyz
  1  'x, y, z'
loop_
 _atom_site_type_symbol
 _atom_site_label
 _atom_site_symmetry_multiplicity
 _atom_site_fract_x
 _atom_site_fract_y
 _atom_site_fract_z
 _atom_site_occupancy
  U  U0  1  0.03588000  0.57406000  0.32523000  1
  U  U1  1  0.47479000  0.90136000  0.17389000  1
  U  U2  1  0.52521000  0.09864000  0.82611000  1
  U  U3  1  0.96412000  0.42594000  0.67477000  1
  Si  Si4  1  0.15720000  0.63700000  0.96918000  1
  Si  Si5  1  0.27810000  0.88983000  0.52764000  1
  Si  Si6  1  0.72190000  0.11017000  0.47236000  1
  Si  Si7  1  0.84280000  0.36300000  0.03082000  1
  H  H8  1  0.02310000  0.97020000  0.59420000  1
  H  H9  1  0.02680000  0.54990000  0.90230000  1
  H  H10  1  0.02960000  0.65500000  0.58430000  1
  H  H11  1  0.06810000  0.23700000  0.52590000  1
  H  H12  1  0.07550000  0.19600000  0.04170000  1
  H  H13  1  0.08720000  0.32660000  0.95240000  1
  H  H14  1  0.12320000  0.33620000  0.86090000  1
  H  H15  1  0.13170000  0.08950000  0.49140000  1
  H  H16  1  0.14300000  0.08960000  0.35750000  1
  H  H17  1  0.14670000  0.24360000  0.36560000  1
  H  H18  1  0.16360000  0.40250000  0.14350000  1
  H  H19  1  0.18830000  0.75250000  0.87130000  1
  H  H20  1  0.20230000  0.71100000  0.53940000  1
  H  H21  1  0.20360000  0.79860000  0.44400000  1
  H  H22  1  0.24050000  0.43190000  0.01210000  1
  H  H23  1  0.25480000  0.33400000  0.47780000  1
  H  H24  1  0.26350000  0.79220000  0.35310000  1
  H  H25  1  0.28120000  0.14630000  0.08550000  1
  H  H26  1  0.28160000  0.55940000  0.14960000  1
  H  H27  1  0.30710000  0.24610000  0.14290000  1
  H  H28  1  0.30790000  0.11630000  0.64510000  1
  H  H29  1  0.31500000  0.74240000  0.01240000  1
  H  H30  1  0.31980000  0.57580000  0.05930000  1
  H  H31  1  0.33390000  0.84400000  0.83420000  1
  H  H32  1  0.33540000  0.57890000  0.87520000  1
  H  H33  1  0.34640000  0.78950000  0.62880000  1
  H  H34  1  0.36580000  0.28620000  0.97820000  1
  H  H35  1  0.36930000  0.96720000  0.61110000  1
  H  H36  1  0.39550000  0.99790000  0.44300000  1
  H  H37  1  0.42710000  0.85280000  0.97840000  1
  H  H38  1  0.43590000  0.21460000  0.51430000  1
  H  H39  1  0.44200000  0.00120000  0.35090000  1
  H  H40  1  0.45570000  0.43710000  0.83960000  1
  H  H41  1  0.46750000  0.31960000  0.33270000  1
  H  H42  1  0.53250000  0.68040000  0.66730000  1
  H  H43  1  0.54430000  0.56290000  0.16040000  1
  H  H44  1  0.55800000  0.99880000  0.64910000  1
  H  H45  1  0.56410000  0.78540000  0.48570000  1
  H  H46  1  0.57290000  0.14720000  0.02160000  1
  H  H47  1  0.60450000  0.00210000  0.55700000  1
  H  H48  1  0.63070000  0.03280000  0.38890000  1
  H  H49  1  0.63420000  0.71380000  0.02180000  1
  H  H50  1  0.65360000  0.21050000  0.37120000  1
  H  H51  1  0.66460000  0.42110000  0.12480000  1
  H  H52  1  0.66610000  0.15600000  0.16580000  1
  H  H53  1  0.68020000  0.42420000  0.94070000  1
  H  H54  1  0.68500000  0.25760000  0.98760000  1
  H  H55  1  0.69210000  0.88370000  0.35490000  1
  H  H56  1  0.69290000  0.75390000  0.85710000  1
  H  H57  1  0.71840000  0.44060000  0.85040000  1
  H  H58  1  0.71880000  0.85370000  0.91450000  1
  H  H59  1  0.73650000  0.20780000  0.64690000  1
  H  H60  1  0.74520000  0.66600000  0.52220000  1
  H  H61  1  0.75950000  0.56810000  0.98790000  1
  H  H62  1  0.79640000  0.20140000  0.55600000  1
  H  H63  1  0.79770000  0.28900000  0.46060000  1
  H  H64  1  0.81170000  0.24750000  0.12870000  1
  H  H65  1  0.83640000  0.59750000  0.85650000  1
  H  H66  1  0.85330000  0.75640000  0.63440000  1
  H  H67  1  0.85700000  0.91040000  0.64250000  1
  H  H68  1  0.86830000  0.91050000  0.50860000  1
  H  H69  1  0.87680000  0.66380000  0.13910000  1
  H  H70  1  0.91280000  0.67340000  0.04760000  1
  H  H71  1  0.92450000  0.80400000  0.95830000  1
  H  H72  1  0.93190000  0.76300000  0.47410000  1
  H  H73  1  0.97040000  0.34500000  0.41570000  1
  H  H74  1  0.97320000  0.45010000  0.09770000  1
  H  H75  1  0.97690000  0.02980000  0.40580000  1
  C  C76  1  0.00060000  0.67180000  0.93430000  1
  C  C77  1  0.01200000  0.34900000  0.93170000  1
  C  C78  1  0.02670000  0.90550000  0.59230000  1
  C  C79  1  0.02890000  0.71910000  0.58640000  1
  C  C80  1  0.03260000  0.38650000  0.09590000  1
  C  C81  1  0.03310000  0.35620000  0.87740000  1
  C  C82  1  0.05370000  0.59530000  0.21270000  1
  C  C83  1  0.07400000  0.12930000  0.37960000  1
  C  C84  1  0.07480000  0.22110000  0.38350000  1
  C  C85  1  0.07680000  0.60720000  0.15460000  1
  C  C86  1  0.09200000  0.23880000  0.06250000  1
  C  C87  1  0.12210000  0.62510000  0.04310000  1
  C  C88  1  0.12830000  0.18180000  0.54330000  1
  C  C89  1  0.12940000  0.27950000  0.61600000  1
  C  C90  1  0.13100000  0.75290000  0.55960000  1
  C  C91  1  0.13400000  0.84800000  0.56100000  1
  C  C92  1  0.14610000  0.35890000  0.12350000  1
  C  C93  1  0.16560000  0.09390000  0.52330000  1
  C  C94  1  0.18080000  0.18840000  0.59020000  1
  C  C95  1  0.20620000  0.58310000  0.12900000  1
  C  C96  1  0.21600000  0.20700000  0.08980000  1
  C  C97  1  0.22900000  0.59220000  0.07530000  1
  C  C98  1  0.23030000  0.41650000  0.37800000  1
  C  C99  1  0.23310000  0.26760000  0.12160000  1
  C  C100  1  0.23470000  0.73450000  0.94580000  1
  C  C101  1  0.24090000  0.76900000  0.89390000  1
  C  C102  1  0.25160000  0.01190000  0.54860000  1
  C  C103  1  0.25550000  0.83790000  0.42540000  1
  C  C104  1  0.27020000  0.11040000  0.61440000  1
  C  C105  1  0.27390000  0.52160000  0.94740000  1
  C  C106  1  0.28480000  0.43330000  0.97720000  1
  C  C107  1  0.28820000  0.83540000  0.37100000  1
  C  C108  1  0.29600000  0.89570000  0.45320000  1
  C  C109  1  0.30680000  0.02160000  0.59410000  1
  C  C110  1  0.31110000  0.76650000  0.97600000  1
  C  C111  1  0.32250000  0.82880000  0.87150000  1
  C  C112  1  0.33550000  0.30830000  0.45580000  1
  C  C113  1  0.34060000  0.51950000  0.89630000  1
  C  C114  1  0.34350000  0.34160000  0.40210000  1
  C  C115  1  0.35750000  0.89690000  0.34330000  1
  C  C116  1  0.35940000  0.34580000  0.95720000  1
  C  C117  1  0.36700000  0.95700000  0.42470000  1
  C  C118  1  0.38070000  0.83110000  0.95560000  1
  C  C119  1  0.38370000  0.86390000  0.90360000  1
  C  C120  1  0.39600000  0.95840000  0.37000000  1
  C  C121  1  0.40200000  0.89560000  0.28560000  1
  C  C122  1  0.41320000  0.43570000  0.87480000  1
  C  C123  1  0.42280000  0.34840000  0.90640000  1
  C  C124  1  0.42850000  0.76590000  0.60710000  1
  C  C125  1  0.43450000  0.80070000  0.55240000  1
  C  C126  1  0.44480000  0.23730000  0.47770000  1
  C  C127  1  0.45040000  0.93660000  0.87900000  1
  C  C128  1  0.46210000  0.30120000  0.36990000  1
  C  C129  1  0.48870000  0.25410000  0.88280000  1
  C  C130  1  0.51130000  0.74590000  0.11720000  1
  C  C131  1  0.53790000  0.69880000  0.63010000  1
  C  C132  1  0.54960000  0.06340000  0.12100000  1
  C  C133  1  0.55520000  0.76270000  0.52230000  1
  C  C134  1  0.56550000  0.19930000  0.44760000  1
  C  C135  1  0.57150000  0.23410000  0.39290000  1
  C  C136  1  0.57720000  0.65160000  0.09360000  1
  C  C137  1  0.58680000  0.56430000  0.12520000  1
  C  C138  1  0.59800000  0.10440000  0.71440000  1
  C  C139  1  0.60400000  0.04160000  0.63000000  1
  C  C140  1  0.61630000  0.13610000  0.09640000  1
  C  C141  1  0.61930000  0.16890000  0.04440000  1
  C  C142  1  0.63300000  0.04300000  0.57530000  1
  C  C143  1  0.64060000  0.65420000  0.04280000  1
  C  C144  1  0.64250000  0.10310000  0.65670000  1
  C  C145  1  0.65650000  0.65840000  0.59790000  1
  C  C146  1  0.65940000  0.48050000  0.10370000  1
  C  C147  1  0.66450000  0.69170000  0.54420000  1
  C  C148  1  0.67750000  0.17120000  0.12850000  1
  C  C149  1  0.68890000  0.23350000  0.02400000  1
  C  C150  1  0.69320000  0.97840000  0.40590000  1
  C  C151  1  0.70400000  0.10430000  0.54680000  1
  C  C152  1  0.71180000  0.16460000  0.62900000  1
  C  C153  1  0.71520000  0.56670000  0.02280000  1
  C  C154  1  0.72610000  0.47840000  0.05260000  1
  C  C155  1  0.72980000  0.88960000  0.38560000  1
  C  C156  1  0.74450000  0.16210000  0.57460000  1
  C  C157  1  0.74840000  0.98810000  0.45140000  1
  C  C158  1  0.75910000  0.23100000  0.10610000  1
  C  C159  1  0.76530000  0.26550000  0.05420000  1
  C  C160  1  0.76690000  0.73240000  0.87840000  1
  C  C161  1  0.76970000  0.58350000  0.62200000  1
  C  C162  1  0.77100000  0.40780000  0.92470000  1
  C  C163  1  0.78400000  0.79300000  0.91020000  1
  C  C164  1  0.79380000  0.41690000  0.87100000  1
  C  C165  1  0.81920000  0.81160000  0.40980000  1
  C  C166  1  0.83440000  0.90610000  0.47670000  1
  C  C167  1  0.85390000  0.64110000  0.87650000  1
  C  C168  1  0.86600000  0.15200000  0.43900000  1
  C  C169  1  0.86900000  0.24710000  0.44040000  1
  C  C170  1  0.87060000  0.72050000  0.38400000  1
  C  C171  1  0.87170000  0.81820000  0.45670000  1
  C  C172  1  0.87790000  0.37490000  0.95690000  1
  C  C173  1  0.90800000  0.76120000  0.93750000  1
  C  C174  1  0.92320000  0.39280000  0.84540000  1
  C  C175  1  0.92520000  0.77890000  0.61650000  1
  C  C176  1  0.92600000  0.87070000  0.62040000  1
  C  C177  1  0.94630000  0.40470000  0.78730000  1
  C  C178  1  0.96690000  0.64380000  0.12260000  1
  C  C179  1  0.96740000  0.61350000  0.90410000  1
  C  C180  1  0.97110000  0.28090000  0.41360000  1
  C  C181  1  0.97330000  0.09450000  0.40770000  1
  C  C182  1  0.98800000  0.65100000  0.06830000  1
  C  C183  1  0.99940000  0.32820000  0.06570000  1
  O  O184  1  0.04290000  0.34670000  0.76200000  1
  O  O185  1  0.05730000  0.35770000  0.59090000  1
  O  O186  1  0.13490000  0.47040000  0.40530000  1
  O  O187  1  0.13650000  0.52430000  0.23850000  1
  O  O188  1  0.15160000  0.27930000  0.66300000  1
  O  O189  1  0.23220000  0.42720000  0.32670000  1
  O  O190  1  0.39000000  0.82840000  0.26110000  1
  O  O191  1  0.44840000  0.96030000  0.26050000  1
  O  O192  1  0.45860000  0.74270000  0.16590000  1
  O  O193  1  0.46900000  0.99650000  0.90600000  1
  O  O194  1  0.47800000  0.94710000  0.82920000  1
  O  O195  1  0.48510000  0.17640000  0.90800000  1
  O  O196  1  0.51490000  0.82360000  0.09200000  1
  O  O197  1  0.52200000  0.05290000  0.17080000  1
  O  O198  1  0.53100000  0.00350000  0.09400000  1
  O  O199  1  0.54140000  0.25730000  0.83410000  1
  O  O200  1  0.55160000  0.03970000  0.73950000  1
  O  O201  1  0.61000000  0.17160000  0.73890000  1
  O  O202  1  0.76780000  0.57280000  0.67330000  1
  O  O203  1  0.84840000  0.72070000  0.33700000  1
  O  O204  1  0.86350000  0.47570000  0.76150000  1
  O  O205  1  0.86510000  0.52960000  0.59470000  1
  O  O206  1  0.94270000  0.64230000  0.40910000  1
  O  O207  1  0.95710000  0.65330000  0.23800000  1
