# generated using pymatgen
data_Mn2H30C35O11
_symmetry_space_group_name_H-M   'P 1'
_cell_length_a   16.46740000
_cell_length_b   18.17050000
_cell_length_c   20.44560000
_cell_angle_alpha   64.16700000
_cell_angle_beta   70.66800000
_cell_angle_gamma   70.11900000
_symmetry_Int_Tables_number   1
_chemical_formula_structural   Mn2H30C35O11
_chemical_formula_sum   'Mn8 H120 C140 O44'
_cell_volume   5055.93561027
_cell_formula_units_Z   4
loop_
 _symmetry_equiv_pos_site_id
 _symmetry_equiv_pos_as_xyz
  1  'x, y, z'
loop_
 _atom_site_type_symbol
 _atom_site_label
 _atom_site_symmetry_multiplicity
 _atom_site_fract_x
 _atom_site_fract_y
 _atom_site_fract_z
 _atom_site_occupancy
  Mn  Mn0  1  0.09031000  0.72052000  0.62149000  1
  Mn  Mn1  1  0.12131000  0.33133000  0.41362000  1
  Mn  Mn2  1  0.32614000  0.69810000  0.54953000  1
  Mn  Mn3  1  0.35956000  0.26113000  0.42044000  1
  Mn  Mn4  1  0.64044000  0.73887000  0.57956000  1
  Mn  Mn5  1  0.67386000  0.30190000  0.45047000  1
  Mn  Mn6  1  0.87869000  0.66867000  0.58638000  1
  Mn  Mn7  1  0.90969000  0.27948000  0.37851000  1
  H  H8  1  0.01130000  0.86930000  0.29150000  1
  H  H9  1  0.03130000  0.20050000  0.81290000  1
  H  H10  1  0.04390000  0.79790000  0.40550000  1
  H  H11  1  0.05020000  0.01740000  0.85800000  1
  H  H12  1  0.05720000  0.92180000  0.81350000  1
  H  H13  1  0.05800000  0.27600000  0.86100000  1
  H  H14  1  0.06810000  0.15210000  0.09790000  1
  H  H15  1  0.06860000  0.27880000  0.93370000  1
  H  H16  1  0.07780000  0.85280000  0.73710000  1
  H  H17  1  0.07870000  0.47360000  0.23120000  1
  H  H18  1  0.07940000  0.93060000  0.92020000  1
  H  H19  1  0.08240000  0.39400000  0.79150000  1
  H  H20  1  0.08510000  0.87420000  0.03900000  1
  H  H21  1  0.08730000  0.11960000  0.79550000  1
  H  H22  1  0.09240000  0.42430000  0.18030000  1
  H  H23  1  0.10070000  0.22350000  0.02480000  1
  H  H24  1  0.11850000  0.51620000  0.70660000  1
  H  H25  1  0.13420000  0.18730000  0.78490000  1
  H  H26  1  0.15000000  0.87020000  0.08250000  1
  H  H27  1  0.15060000  0.59600000  0.29270000  1
  H  H28  1  0.15210000  0.39020000  0.23790000  1
  H  H29  1  0.15870000  0.19580000  0.27730000  1
  H  H30  1  0.16470000  0.10620000  0.62480000  1
  H  H31  1  0.16960000  0.14730000  0.06580000  1
  H  H32  1  0.17780000  0.72200000  0.20780000  1
  H  H33  1  0.18020000  0.12980000  0.19750000  1
  H  H34  1  0.18660000  0.86380000  0.00340000  1
  H  H35  1  0.19180000  0.01700000  0.11530000  1
  H  H36  1  0.20850000  0.16390000  0.63460000  1
  H  H37  1  0.21390000  0.93270000  0.10240000  1
  H  H38  1  0.24270000  0.93630000  0.21020000  1
  H  H39  1  0.26410000  0.10810000  0.58690000  1
  H  H40  1  0.27540000  0.86510000  0.32590000  1
  H  H41  1  0.30100000  0.16170000  0.73710000  1
  H  H42  1  0.30280000  0.10550000  0.86310000  1
  H  H43  1  0.30850000  0.14920000  0.98920000  1
  H  H44  1  0.31340000  0.92230000  0.74900000  1
  H  H45  1  0.31440000  0.89060000  0.90060000  1
  H  H46  1  0.31550000  0.02530000  0.84580000  1
  H  H47  1  0.32210000  0.25070000  0.61350000  1
  H  H48  1  0.32280000  0.30240000  0.81630000  1
  H  H49  1  0.33340000  0.85550000  0.67090000  1
  H  H50  1  0.34130000  0.15360000  0.90660000  1
  H  H51  1  0.35970000  0.42620000  0.73490000  1
  H  H52  1  0.37390000  0.81070000  0.18370000  1
  H  H53  1  0.38150000  0.80940000  0.93840000  1
  H  H54  1  0.39720000  0.48120000  0.22340000  1
  H  H55  1  0.40910000  0.14200000  0.95100000  1
  H  H56  1  0.41310000  0.74410000  0.02610000  1
  H  H57  1  0.41630000  0.88210000  0.86810000  1
  H  H58  1  0.41820000  0.81330000  0.40100000  1
  H  H59  1  0.41880000  0.13930000  0.26010000  1
  H  H60  1  0.42460000  0.60710000  0.13240000  1
  H  H61  1  0.42530000  0.87220000  0.17850000  1
  H  H62  1  0.43720000  0.90350000  0.27920000  1
  H  H63  1  0.43760000  0.06670000  0.06450000  1
  H  H64  1  0.43880000  0.98140000  0.13330000  1
  H  H65  1  0.44290000  0.07800000  0.17650000  1
  H  H66  1  0.44640000  0.73620000  0.09340000  1
  H  H67  1  0.47580000  0.79810000  0.14960000  1
  H  H68  1  0.52420000  0.20190000  0.85040000  1
  H  H69  1  0.55360000  0.26380000  0.90660000  1
  H  H70  1  0.55710000  0.92200000  0.82350000  1
  H  H71  1  0.56120000  0.01860000  0.86670000  1
  H  H72  1  0.56240000  0.93330000  0.93550000  1
  H  H73  1  0.56280000  0.09650000  0.72080000  1
  H  H74  1  0.57470000  0.12780000  0.82150000  1
  H  H75  1  0.57540000  0.39290000  0.86760000  1
  H  H76  1  0.58120000  0.86070000  0.73990000  1
  H  H77  1  0.58180000  0.18670000  0.59900000  1
  H  H78  1  0.58370000  0.11790000  0.13190000  1
  H  H79  1  0.58690000  0.25590000  0.97390000  1
  H  H80  1  0.59090000  0.85800000  0.04900000  1
  H  H81  1  0.60280000  0.51880000  0.77660000  1
  H  H82  1  0.61850000  0.19060000  0.06160000  1
  H  H83  1  0.62610000  0.18930000  0.81630000  1
  H  H84  1  0.64030000  0.57380000  0.26510000  1
  H  H85  1  0.65870000  0.84640000  0.09340000  1
  H  H86  1  0.66666667  0.14450000  0.32910000  1
  H  H87  1  0.67720000  0.69760000  0.18370000  1
  H  H88  1  0.67790000  0.74930000  0.38650000  1
  H  H89  1  0.68450000  0.97470000  0.15420000  1
  H  H90  1  0.68560000  0.10940000  0.09940000  1
  H  H91  1  0.68660000  0.07770000  0.25100000  1
  H  H92  1  0.69150000  0.85080000  0.01080000  1
  H  H93  1  0.69720000  0.89450000  0.13690000  1
  H  H94  1  0.69900000  0.83830000  0.26290000  1
  H  H95  1  0.72460000  0.13490000  0.67410000  1
  H  H96  1  0.73590000  0.89190000  0.41310000  1
  H  H97  1  0.75730000  0.06370000  0.78980000  1
  H  H98  1  0.78610000  0.06730000  0.89760000  1
  H  H99  1  0.79150000  0.83610000  0.36540000  1
  H  H100  1  0.80820000  0.98300000  0.88470000  1
  H  H101  1  0.81340000  0.13620000  0.99660000  1
  H  H102  1  0.81980000  0.87020000  0.80250000  1
  H  H103  1  0.82220000  0.27800000  0.79220000  1
  H  H104  1  0.83040000  0.85270000  0.93420000  1
  H  H105  1  0.83530000  0.89380000  0.37520000  1
  H  H106  1  0.84130000  0.80420000  0.72270000  1
  H  H107  1  0.84790000  0.60980000  0.76210000  1
  H  H108  1  0.84940000  0.40400000  0.70730000  1
  H  H109  1  0.85000000  0.12980000  0.91750000  1
  H  H110  1  0.86580000  0.81270000  0.21510000  1
  H  H111  1  0.88150000  0.48380000  0.29340000  1
  H  H112  1  0.89930000  0.77650000  0.97520000  1
  H  H113  1  0.90760000  0.57570000  0.81970000  1
  H  H114  1  0.91270000  0.88040000  0.20450000  1
  H  H115  1  0.91490000  0.12580000  0.96100000  1
  H  H116  1  0.91760000  0.60600000  0.20850000  1
  H  H117  1  0.92060000  0.06940000  0.07980000  1
  H  H118  1  0.92130000  0.52640000  0.76880000  1
  H  H119  1  0.92220000  0.14720000  0.26290000  1
  H  H120  1  0.93140000  0.72120000  0.06630000  1
  H  H121  1  0.93190000  0.84790000  0.90210000  1
  H  H122  1  0.94200000  0.72400000  0.13900000  1
  H  H123  1  0.94280000  0.07820000  0.18650000  1
  H  H124  1  0.94980000  0.98260000  0.14200000  1
  H  H125  1  0.95610000  0.20210000  0.59450000  1
  H  H126  1  0.96870000  0.79950000  0.18710000  1
  H  H127  1  0.98870000  0.13070000  0.70850000  1
  C  C128  1  0.02800000  0.36890000  0.28700000  1
  C  C129  1  0.06480000  0.86830000  0.29840000  1
  C  C130  1  0.08420000  0.82610000  0.36640000  1
  C  C131  1  0.08660000  0.15960000  0.81460000  1
  C  C132  1  0.09380000  0.41880000  0.22880000  1
  C  C133  1  0.09410000  0.25120000  0.89770000  1
  C  C134  1  0.09610000  0.98300000  0.88600000  1
  C  C135  1  0.09770000  0.11440000  0.89500000  1
  C  C136  1  0.10000000  0.15890000  0.93540000  1
  C  C137  1  0.10580000  0.02720000  0.92780000  1
  C  C138  1  0.11310000  0.16420000  0.05320000  1
  C  C139  1  0.11330000  0.90740000  0.78560000  1
  C  C140  1  0.11470000  0.11620000  0.00710000  1
  C  C141  1  0.12410000  0.91030000  0.23830000  1
  C  C142  1  0.12480000  0.98390000  0.99870000  1
  C  C143  1  0.12600000  0.86620000  0.73970000  1
  C  C144  1  0.13230000  0.02800000  0.03730000  1
  C  C145  1  0.13780000  0.88940000  0.03410000  1
  C  C146  1  0.14000000  0.39960000  0.78070000  1
  C  C147  1  0.16160000  0.47330000  0.73010000  1
  C  C148  1  0.16250000  0.82360000  0.37960000  1
  C  C149  1  0.16690000  0.98080000  0.10770000  1
  C  C150  1  0.17950000  0.21080000  0.53340000  1
  C  C151  1  0.18250000  0.78310000  0.45540000  1
  C  C152  1  0.18400000  0.92750000  0.79040000  1
  C  C153  1  0.19800000  0.33700000  0.81430000  1
  C  C154  1  0.20250000  0.90850000  0.24970000  1
  C  C155  1  0.20600000  0.59840000  0.26090000  1
  C  C156  1  0.20660000  0.14110000  0.60090000  1
  C  C157  1  0.20800000  0.84370000  0.69700000  1
  C  C158  1  0.21580000  0.17100000  0.25800000  1
  C  C159  1  0.21970000  0.79660000  0.65020000  1
  C  C160  1  0.22180000  0.67310000  0.21030000  1
  C  C161  1  0.22200000  0.86590000  0.31910000  1
  C  C162  1  0.22860000  0.13210000  0.20990000  1
  C  C163  1  0.24260000  0.48550000  0.71320000  1
  C  C164  1  0.25600000  0.44020000  0.32530000  1
  C  C165  1  0.26550000  0.56720000  0.65730000  1
  C  C166  1  0.26560000  0.90780000  0.74680000  1
  C  C167  1  0.27150000  0.52490000  0.26620000  1
  C  C168  1  0.27330000  0.21420000  0.33360000  1
  C  C169  1  0.27780000  0.86740000  0.70050000  1
  C  C170  1  0.27920000  0.34710000  0.79530000  1
  C  C171  1  0.28660000  0.17400000  0.27830000  1
  C  C172  1  0.30190000  0.42130000  0.74570000  1
  C  C173  1  0.30490000  0.67700000  0.16130000  1
  C  C174  1  0.31310000  0.09630000  0.17980000  1
  C  C175  1  0.34250000  0.05230000  0.86220000  1
  C  C176  1  0.35250000  0.52990000  0.21910000  1
  C  C177  1  0.35600000  0.12830000  0.95460000  1
  C  C178  1  0.35790000  0.16630000  0.70950000  1
  C  C179  1  0.36170000  0.99710000  0.93770000  1
  C  C180  1  0.36980000  0.60530000  0.16530000  1
  C  C181  1  0.37030000  0.03370000  0.98160000  1
  C  C182  1  0.37050000  0.13790000  0.24690000  1
  C  C183  1  0.37070000  0.21970000  0.63520000  1
  C  C184  1  0.37150000  0.86920000  0.91290000  1
  C  C185  1  0.37530000  0.90920000  0.96230000  1
  C  C186  1  0.38560000  0.10030000  0.19770000  1
  C  C187  1  0.39310000  0.98320000  0.05110000  1
  C  C188  1  0.39420000  0.85950000  0.03250000  1
  C  C189  1  0.40040000  0.76580000  0.06510000  1
  C  C190  1  0.40250000  0.89590000  0.07740000  1
  C  C191  1  0.40540000  0.02310000  0.09630000  1
  C  C192  1  0.42110000  0.83890000  0.15440000  1
  C  C193  1  0.42930000  0.12020000  0.74210000  1
  C  C194  1  0.45410000  0.22710000  0.59350000  1
  C  C195  1  0.46770000  0.27930000  0.51140000  1
  C  C196  1  0.47490000  0.81870000  0.37340000  1
  C  C197  1  0.48610000  0.87220000  0.30040000  1
  C  C198  1  0.51390000  0.12780000  0.69960000  1
  C  C199  1  0.52510000  0.18130000  0.62660000  1
  C  C200  1  0.53230000  0.72070000  0.48860000  1
  C  C201  1  0.54590000  0.77290000  0.40650000  1
  C  C202  1  0.57070000  0.87980000  0.25790000  1
  C  C203  1  0.57890000  0.16110000  0.84560000  1
  C  C204  1  0.59460000  0.97690000  0.90370000  1
  C  C205  1  0.59750000  0.10410000  0.92260000  1
  C  C206  1  0.59960000  0.23420000  0.93490000  1
  C  C207  1  0.60580000  0.14050000  0.96750000  1
  C  C208  1  0.60690000  0.01680000  0.94890000  1
  C  C209  1  0.61440000  0.89970000  0.80230000  1
  C  C210  1  0.62470000  0.09080000  0.03770000  1
  C  C211  1  0.62850000  0.13080000  0.08710000  1
  C  C212  1  0.62930000  0.78030000  0.36480000  1
  C  C213  1  0.62950000  0.86210000  0.75310000  1
  C  C214  1  0.62970000  0.96630000  0.01840000  1
  C  C215  1  0.63020000  0.39470000  0.83470000  1
  C  C216  1  0.63830000  0.00290000  0.06230000  1
  C  C217  1  0.64210000  0.83370000  0.29050000  1
  C  C218  1  0.64400000  0.87170000  0.04540000  1
  C  C219  1  0.64750000  0.47010000  0.78090000  1
  C  C220  1  0.65750000  0.94770000  0.13780000  1
  C  C221  1  0.68690000  0.90370000  0.82020000  1
  C  C222  1  0.69510000  0.32300000  0.83870000  1
  C  C223  1  0.69810000  0.57870000  0.25430000  1
  C  C224  1  0.71340000  0.82600000  0.72170000  1
  C  C225  1  0.72080000  0.65290000  0.20470000  1
  C  C226  1  0.72220000  0.13260000  0.29950000  1
  C  C227  1  0.72670000  0.78580000  0.66640000  1
  C  C228  1  0.72850000  0.47510000  0.73380000  1
  C  C229  1  0.73440000  0.09220000  0.25320000  1
  C  C230  1  0.73450000  0.43280000  0.34270000  1
  C  C231  1  0.74400000  0.55980000  0.67470000  1
  C  C232  1  0.75740000  0.51450000  0.28680000  1
  C  C233  1  0.77140000  0.86790000  0.79010000  1
  C  C234  1  0.77800000  0.13410000  0.68090000  1
  C  C235  1  0.77820000  0.32690000  0.78970000  1
  C  C236  1  0.78030000  0.20340000  0.34980000  1
  C  C237  1  0.78420000  0.82900000  0.74200000  1
  C  C238  1  0.79200000  0.15630000  0.30300000  1
  C  C239  1  0.79340000  0.85890000  0.39910000  1
  C  C240  1  0.79400000  0.40160000  0.73910000  1
  C  C241  1  0.79750000  0.09150000  0.75030000  1
  C  C242  1  0.80200000  0.66300000  0.18570000  1
  C  C243  1  0.81600000  0.07250000  0.20960000  1
  C  C244  1  0.81750000  0.21690000  0.54460000  1
  C  C245  1  0.82050000  0.78920000  0.46660000  1
  C  C246  1  0.83310000  0.01920000  0.89230000  1
  C  C247  1  0.83750000  0.17640000  0.62040000  1
  C  C248  1  0.83840000  0.52670000  0.26990000  1
  C  C249  1  0.86000000  0.60040000  0.21930000  1
  C  C250  1  0.86220000  0.11060000  0.96590000  1
  C  C251  1  0.86770000  0.97200000  0.96270000  1
  C  C252  1  0.87400000  0.13380000  0.26030000  1
  C  C253  1  0.87520000  0.01610000  0.00130000  1
  C  C254  1  0.87590000  0.08970000  0.76170000  1
  C  C255  1  0.88530000  0.88380000  0.99290000  1
  C  C256  1  0.88670000  0.09260000  0.21440000  1
  C  C257  1  0.88690000  0.83580000  0.94680000  1
  C  C258  1  0.89420000  0.97280000  0.07220000  1
  C  C259  1  0.90000000  0.84110000  0.06460000  1
  C  C260  1  0.90230000  0.88560000  0.10500000  1
  C  C261  1  0.90390000  0.01700000  0.11400000  1
  C  C262  1  0.90590000  0.74880000  0.10230000  1
  C  C263  1  0.90620000  0.58120000  0.77120000  1
  C  C264  1  0.91340000  0.84040000  0.18540000  1
  C  C265  1  0.91580000  0.17390000  0.63360000  1
  C  C266  1  0.93520000  0.13170000  0.70160000  1
  C  C267  1  0.97200000  0.63110000  0.71300000  1
  O  O268  1  0.01610000  0.65830000  0.73190000  1
  O  O269  1  0.01880000  0.35550000  0.35510000  1
  O  O270  1  0.09880000  0.95270000  0.17130000  1
  O  O271  1  0.10870000  0.21910000  0.51750000  1
  O  O272  1  0.12070000  0.75220000  0.50700000  1
  O  O273  1  0.15210000  0.77730000  0.65340000  1
  O  O274  1  0.17560000  0.43740000  0.35400000  1
  O  O275  1  0.17950000  0.96640000  0.83600000  1
  O  O276  1  0.18390000  0.25940000  0.86260000  1
  O  O277  1  0.19720000  0.25810000  0.34740000  1
  O  O278  1  0.21040000  0.62120000  0.62060000  1
  O  O279  1  0.22680000  0.26330000  0.49250000  1
  O  O280  1  0.25400000  0.78110000  0.46470000  1
  O  O281  1  0.29260000  0.78020000  0.60950000  1
  O  O282  1  0.31430000  0.75630000  0.11300000  1
  O  O283  1  0.31910000  0.05870000  0.13210000  1
  O  O284  1  0.32120000  0.38390000  0.34090000  1
  O  O285  1  0.33510000  0.20070000  0.36070000  1
  O  O286  1  0.33920000  0.57770000  0.64820000  1
  O  O287  1  0.40210000  0.30920000  0.48150000  1
  O  O288  1  0.42620000  0.06500000  0.81360000  1
  O  O289  1  0.45680000  0.71110000  0.52330000  1
  O  O290  1  0.54320000  0.28890000  0.47670000  1
  O  O291  1  0.57380000  0.93500000  0.18640000  1
  O  O292  1  0.59790000  0.69080000  0.51850000  1
  O  O293  1  0.66080000  0.42230000  0.35180000  1
  O  O294  1  0.66490000  0.79930000  0.63930000  1
  O  O295  1  0.67880000  0.61610000  0.65910000  1
  O  O296  1  0.68090000  0.94130000  0.86790000  1
  O  O297  1  0.68570000  0.24370000  0.88700000  1
  O  O298  1  0.70740000  0.21980000  0.39050000  1
  O  O299  1  0.74600000  0.21890000  0.53530000  1
  O  O300  1  0.77320000  0.73670000  0.50750000  1
  O  O301  1  0.78960000  0.37880000  0.37940000  1
  O  O302  1  0.80280000  0.74190000  0.65260000  1
  O  O303  1  0.81610000  0.74060000  0.13740000  1
  O  O304  1  0.82050000  0.03360000  0.16400000  1
  O  O305  1  0.82440000  0.56260000  0.64600000  1
  O  O306  1  0.84790000  0.22270000  0.34660000  1
  O  O307  1  0.87930000  0.24780000  0.49300000  1
  O  O308  1  0.89130000  0.78090000  0.48250000  1
  O  O309  1  0.90120000  0.04730000  0.82870000  1
  O  O310  1  0.98120000  0.64450000  0.64490000  1
  O  O311  1  0.98390000  0.34170000  0.26810000  1
