# generated using pymatgen
data_U2Co(CO)12
_symmetry_space_group_name_H-M   'P 1'
_cell_length_a   6.88500000
_cell_length_b   8.52290000
_cell_length_c   11.38400000
_cell_angle_alpha   95.41100000
_cell_angle_beta   90.80000000
_cell_angle_gamma   108.87000000
_symmetry_Int_Tables_number   1
_chemical_formula_structural   U2Co(CO)12
_chemical_formula_sum   'U2 Co1 C12 O12'
_cell_volume   628.59440130
_cell_formula_units_Z   1
loop_
 _symmetry_equiv_pos_site_id
 _symmetry_equiv_pos_as_xyz
  1  'x, y, z'
loop_
 _atom_site_type_symbol
 _atom_site_label
 _atom_site_symmetry_multiplicity
 _atom_site_fract_x
 _atom_site_fract_y
 _atom_site_fract_z
 _atom_site_occupancy
  U  U0  1  0.34297000  0.16988000  0.32921000  1
  U  U1  1  0.65703000  0.83012000  0.67079000  1
  Co  Co2  1  0.00000000  0.50000000  0.00000000  1
  C  C3  1  0.04710000  0.46850000  0.38390000  1
  C  C4  1  0.06940000  0.66240000  0.55580000  1
  C  C5  1  0.08380000  0.43120000  0.25480000  1
  C  C6  1  0.11640000  0.63160000  0.43910000  1
  C  C7  1  0.15250000  0.83380000  0.62360000  1
  C  C8  1  0.24040000  0.77090000  0.37120000  1
  C  C9  1  0.75960000  0.22910000  0.62880000  1
  C  C10  1  0.84750000  0.16620000  0.37640000  1
  C  C11  1  0.88360000  0.36840000  0.56090000  1
  C  C12  1  0.91620000  0.56880000  0.74520000  1
  C  C13  1  0.93060000  0.33760000  0.44420000  1
  C  C14  1  0.95290000  0.53150000  0.61610000  1
  O  O15  1  0.02470000  0.53130000  0.81941000  1
  O  O16  1  0.02820000  0.90960000  0.65330000  1
  O  O17  1  0.20850000  0.35490000  0.22965000  1
  O  O18  1  0.24090000  0.91640000  0.41050000  1
  O  O19  1  0.32920000  0.73660000  0.28419000  1
  O  O20  1  0.33880000  0.88760000  0.65660000  1
  O  O21  1  0.66120000  0.11240000  0.34340000  1
  O  O22  1  0.67080000  0.26340000  0.71581000  1
  O  O23  1  0.75910000  0.08360000  0.58950000  1
  O  O24  1  0.79150000  0.64510000  0.77035000  1
  O  O25  1  0.97180000  0.09040000  0.34670000  1
  O  O26  1  0.97530000  0.46870000  0.18059000  1
