# generated using pymatgen
data_Mg3H8C14(NO5)2
_symmetry_space_group_name_H-M   'P 1'
_cell_length_a   10.86090000
_cell_length_b   14.30880000
_cell_length_c   17.01980000
_cell_angle_alpha   90.00000000
_cell_angle_beta   105.94000000
_cell_angle_gamma   90.00000000
_symmetry_Int_Tables_number   1
_chemical_formula_structural   Mg3H8C14(NO5)2
_chemical_formula_sum   'Mg12 H32 C56 N8 O40'
_cell_volume   2543.28640462
_cell_formula_units_Z   4
loop_
 _symmetry_equiv_pos_site_id
 _symmetry_equiv_pos_as_xyz
  1  'x, y, z'
loop_
 _atom_site_type_symbol
 _atom_site_label
 _atom_site_symmetry_multiplicity
 _atom_site_fract_x
 _atom_site_fract_y
 _atom_site_fract_z
 _atom_site_occupancy
  Mg  Mg0  1  0.04805000  0.03112000  0.59010000  1
  Mg  Mg1  1  0.05038000  0.52921000  0.09147000  1
  Mg  Mg2  1  0.24975000  0.59083000  0.99951000  1
  Mg  Mg3  1  0.25025000  0.09083000  0.50049000  1
  Mg  Mg4  1  0.44962000  0.02921000  0.40853000  1
  Mg  Mg5  1  0.45195000  0.53112000  0.90990000  1
  Mg  Mg6  1  0.54805000  0.46888000  0.09010000  1
  Mg  Mg7  1  0.55038000  0.97079000  0.59147000  1
  Mg  Mg8  1  0.74975000  0.90917000  0.49951000  1
  Mg  Mg9  1  0.75025000  0.40917000  0.00049000  1
  Mg  Mg10  1  0.94962000  0.47079000  0.90853000  1
  Mg  Mg11  1  0.95195000  0.96888000  0.40990000  1
  H  H12  1  0.00900000  0.56710000  0.74940000  1
  H  H13  1  0.02100000  0.62780000  0.96370000  1
  H  H14  1  0.02400000  0.12580000  0.46490000  1
  H  H15  1  0.02500000  0.08010000  0.26310000  1
  H  H16  1  0.05800000  0.79670000  0.82940000  1
  H  H17  1  0.07200000  0.31180000  0.34270000  1
  H  H18  1  0.12500000  0.29800000  0.75160000  1
  H  H19  1  0.13100000  0.79090000  0.25860000  1
  H  H20  1  0.36900000  0.29090000  0.24140000  1
  H  H21  1  0.37500000  0.79800000  0.74840000  1
  H  H22  1  0.42800000  0.81180000  0.15730000  1
  H  H23  1  0.44200000  0.29670000  0.67060000  1
  H  H24  1  0.47500000  0.58010000  0.23690000  1
  H  H25  1  0.47600000  0.62580000  0.03510000  1
  H  H26  1  0.47900000  0.12780000  0.53630000  1
  H  H27  1  0.49100000  0.06710000  0.75060000  1
  H  H28  1  0.50900000  0.93290000  0.24940000  1
  H  H29  1  0.52100000  0.87220000  0.46370000  1
  H  H30  1  0.52400000  0.37420000  0.96490000  1
  H  H31  1  0.52500000  0.41990000  0.76310000  1
  H  H32  1  0.55800000  0.70330000  0.32940000  1
  H  H33  1  0.57200000  0.18820000  0.84270000  1
  H  H34  1  0.62500000  0.20200000  0.25160000  1
  H  H35  1  0.63100000  0.70910000  0.75860000  1
  H  H36  1  0.86900000  0.20910000  0.74140000  1
  H  H37  1  0.87500000  0.70200000  0.24840000  1
  H  H38  1  0.92800000  0.68820000  0.65730000  1
  H  H39  1  0.94200000  0.20330000  0.17060000  1
  H  H40  1  0.97500000  0.91990000  0.73690000  1
  H  H41  1  0.97600000  0.87420000  0.53510000  1
  H  H42  1  0.97900000  0.37220000  0.03630000  1
  H  H43  1  0.99100000  0.43290000  0.25060000  1
  C  C44  1  0.05593000  0.89267000  0.74177000  1
  C  C45  1  0.06674000  0.40206000  0.25110000  1
  C  C46  1  0.10280000  0.81907000  0.79494000  1
  C  C47  1  0.11467000  0.32962000  0.30519000  1
  C  C48  1  0.19817000  0.43822000  0.86162000  1
  C  C49  1  0.20050000  0.93439000  0.36556000  1
  C  C50  1  0.20849000  0.32060000  0.75178000  1
  C  C51  1  0.20972000  0.81799000  0.25439000  1
  C  C52  1  0.22200000  0.78161000  0.79733000  1
  C  C53  1  0.22346000  0.70374000  0.14297000  1
  C  C54  1  0.22722000  0.28559000  0.30126000  1
  C  C55  1  0.22850000  0.19895000  0.64671000  1
  C  C56  1  0.23634000  0.39199000  0.19505000  1
  C  C57  1  0.23676000  0.89413000  0.69703000  1
  C  C58  1  0.26324000  0.39413000  0.80297000  1
  C  C59  1  0.26366000  0.89199000  0.30495000  1
  C  C60  1  0.27150000  0.69895000  0.85329000  1
  C  C61  1  0.27278000  0.78559000  0.19874000  1
  C  C62  1  0.27654000  0.20374000  0.35703000  1
  C  C63  1  0.27800000  0.28161000  0.70267000  1
  C  C64  1  0.29028000  0.31799000  0.24561000  1
  C  C65  1  0.29151000  0.82060000  0.74822000  1
  C  C66  1  0.29950000  0.43439000  0.13444000  1
  C  C67  1  0.30183000  0.93822000  0.63838000  1
  C  C68  1  0.38533000  0.82962000  0.19481000  1
  C  C69  1  0.39720000  0.31907000  0.70506000  1
  C  C70  1  0.43326000  0.90206000  0.24890000  1
  C  C71  1  0.44407000  0.39267000  0.75823000  1
  C  C72  1  0.55593000  0.60733000  0.24177000  1
  C  C73  1  0.56674000  0.09794000  0.75110000  1
  C  C74  1  0.60280000  0.68093000  0.29494000  1
  C  C75  1  0.61467000  0.17038000  0.80519000  1
  C  C76  1  0.69817000  0.06178000  0.36162000  1
  C  C77  1  0.70050000  0.56561000  0.86556000  1
  C  C78  1  0.70849000  0.17940000  0.25178000  1
  C  C79  1  0.70972000  0.68201000  0.75439000  1
  C  C80  1  0.72200000  0.71839000  0.29733000  1
  C  C81  1  0.72346000  0.79626000  0.64297000  1
  C  C82  1  0.72722000  0.21441000  0.80126000  1
  C  C83  1  0.72850000  0.30105000  0.14671000  1
  C  C84  1  0.73634000  0.10801000  0.69505000  1
  C  C85  1  0.73676000  0.60587000  0.19703000  1
  C  C86  1  0.76324000  0.10587000  0.30297000  1
  C  C87  1  0.76366000  0.60801000  0.80495000  1
  C  C88  1  0.77150000  0.80105000  0.35329000  1
  C  C89  1  0.77278000  0.71441000  0.69874000  1
  C  C90  1  0.77654000  0.29626000  0.85703000  1
  C  C91  1  0.77800000  0.21839000  0.20267000  1
  C  C92  1  0.79028000  0.18201000  0.74561000  1
  C  C93  1  0.79151000  0.67940000  0.24822000  1
  C  C94  1  0.79950000  0.06561000  0.63444000  1
  C  C95  1  0.80183000  0.56178000  0.13838000  1
  C  C96  1  0.88533000  0.67038000  0.69481000  1
  C  C97  1  0.89720000  0.18093000  0.20506000  1
  C  C98  1  0.93326000  0.59794000  0.74890000  1
  C  C99  1  0.94407000  0.10733000  0.25823000  1
  N  N100  1  0.12008000  0.92958000  0.69272000  1
  N  N101  1  0.12482000  0.43259000  0.19594000  1
  N  N102  1  0.37518000  0.93259000  0.30406000  1
  N  N103  1  0.37992000  0.42958000  0.80728000  1
  N  N104  1  0.62008000  0.57042000  0.19272000  1
  N  N105  1  0.62482000  0.06741000  0.69594000  1
  N  N106  1  0.87518000  0.56741000  0.80406000  1
  N  N107  1  0.87992000  0.07042000  0.30728000  1
  O  O108  1  0.04918000  0.58022000  0.97864000  1
  O  O109  1  0.05310000  0.07922000  0.47825000  1
  O  O110  1  0.08323000  0.42057000  0.85434000  1
  O  O111  1  0.08787000  0.91380000  0.36065000  1
  O  O112  1  0.14560000  0.64832000  0.16160000  1
  O  O113  1  0.14802000  0.14553000  0.66369000  1
  O  O114  1  0.22423000  0.69111000  0.91253000  1
  O  O115  1  0.23063000  0.49048000  0.08347000  1
  O  O116  1  0.23236000  0.99036000  0.58473000  1
  O  O117  1  0.23486000  0.19710000  0.41869000  1
  O  O118  1  0.26514000  0.69710000  0.08131000  1
  O  O119  1  0.26764000  0.49036000  0.91527000  1
  O  O120  1  0.26937000  0.99048000  0.41653000  1
  O  O121  1  0.27577000  0.19111000  0.58747000  1
  O  O122  1  0.35198000  0.64553000  0.83631000  1
  O  O123  1  0.35440000  0.14832000  0.33840000  1
  O  O124  1  0.41213000  0.41380000  0.13935000  1
  O  O125  1  0.41677000  0.92057000  0.64566000  1
  O  O126  1  0.44690000  0.57922000  0.02175000  1
  O  O127  1  0.45082000  0.08022000  0.52136000  1
  O  O128  1  0.54918000  0.91978000  0.47864000  1
  O  O129  1  0.55310000  0.42078000  0.97825000  1
  O  O130  1  0.58323000  0.07943000  0.35434000  1
  O  O131  1  0.58787000  0.58620000  0.86065000  1
  O  O132  1  0.64560000  0.85168000  0.66160000  1
  O  O133  1  0.64802000  0.35447000  0.16369000  1
  O  O134  1  0.72423000  0.80889000  0.41253000  1
  O  O135  1  0.73063000  0.00952000  0.58347000  1
  O  O136  1  0.73236000  0.50964000  0.08473000  1
  O  O137  1  0.73486000  0.30290000  0.91869000  1
  O  O138  1  0.76514000  0.80290000  0.58131000  1
  O  O139  1  0.76764000  0.00964000  0.41527000  1
  O  O140  1  0.76937000  0.50952000  0.91653000  1
  O  O141  1  0.77577000  0.30889000  0.08747000  1
  O  O142  1  0.85198000  0.85447000  0.33631000  1
  O  O143  1  0.85440000  0.35168000  0.83840000  1
  O  O144  1  0.91213000  0.08620000  0.63935000  1
  O  O145  1  0.91677000  0.57943000  0.14566000  1
  O  O146  1  0.94690000  0.92078000  0.52175000  1
  O  O147  1  0.95082000  0.41978000  0.02136000  1
