# generated using pymatgen
data_Ni2H6(C5N2)3
_symmetry_space_group_name_H-M   'P 1'
_cell_length_a   18.73180000
_cell_length_b   18.73180000
_cell_length_c   18.73180000
_cell_angle_alpha   60.00000000
_cell_angle_beta   60.00000000
_cell_angle_gamma   60.00000000
_symmetry_Int_Tables_number   1
_chemical_formula_structural   Ni2H6(C5N2)3
_chemical_formula_sum   'Ni8 H24 C60 N24'
_cell_volume   4647.54430561
_cell_formula_units_Z   4
loop_
 _symmetry_equiv_pos_site_id
 _symmetry_equiv_pos_as_xyz
  1  'x, y, z'
loop_
 _atom_site_type_symbol
 _atom_site_label
 _atom_site_symmetry_multiplicity
 _atom_site_fract_x
 _atom_site_fract_y
 _atom_site_fract_z
 _atom_site_occupancy
  Ni  Ni0  1  0.15996000  0.94668000  0.94668000  1
  Ni  Ni1  1  0.94668000  0.15996000  0.94668000  1
  Ni  Ni2  1  0.94668000  0.94668000  0.94668000  1
  Ni  Ni3  1  0.05332000  0.05332000  0.84004000  1
  Ni  Ni4  1  0.94668000  0.94668000  0.15996000  1
  Ni  Ni5  1  0.05332000  0.05332000  0.05332000  1
  Ni  Ni6  1  0.05332000  0.84004000  0.05332000  1
  Ni  Ni7  1  0.84004000  0.05332000  0.05332000  1
  H  H8  1  0.37060000  0.78068000  0.92436000  1
  H  H9  1  0.78068000  0.37060000  0.92436000  1
  H  H10  1  0.37060000  0.92436000  0.92436000  1
  H  H11  1  0.92436000  0.37060000  0.92436000  1
  H  H12  1  0.78068000  0.92436000  0.92436000  1
  H  H13  1  0.92436000  0.78068000  0.92436000  1
  H  H14  1  0.37060000  0.92436000  0.78068000  1
  H  H15  1  0.92436000  0.37060000  0.78068000  1
  H  H16  1  0.92436000  0.92436000  0.78068000  1
  H  H17  1  0.07564000  0.07564000  0.62940000  1
  H  H18  1  0.07564000  0.21932000  0.62940000  1
  H  H19  1  0.21932000  0.07564000  0.62940000  1
  H  H20  1  0.78068000  0.92436000  0.37060000  1
  H  H21  1  0.92436000  0.78068000  0.37060000  1
  H  H22  1  0.92436000  0.92436000  0.37060000  1
  H  H23  1  0.07564000  0.07564000  0.21932000  1
  H  H24  1  0.07564000  0.62940000  0.21932000  1
  H  H25  1  0.62940000  0.07564000  0.21932000  1
  H  H26  1  0.07564000  0.21932000  0.07564000  1
  H  H27  1  0.21932000  0.07564000  0.07564000  1
  H  H28  1  0.07564000  0.62940000  0.07564000  1
  H  H29  1  0.62940000  0.07564000  0.07564000  1
  H  H30  1  0.21932000  0.62940000  0.07564000  1
  H  H31  1  0.62940000  0.21932000  0.07564000  1
  C  C32  1  0.32196000  0.67804000  0.00000000  1
  C  C33  1  0.53710000  0.46290000  0.00000000  1
  C  C34  1  0.60384000  0.39616000  0.00000000  1
  C  C35  1  0.67804000  0.32196000  0.00000000  1
  C  C36  1  0.32196000  1.00000000  1.00000000  1
  C  C37  1  0.00000000  0.32196000  1.00000000  1
  C  C38  1  0.39616000  1.00000000  1.00000000  1
  C  C39  1  0.00000000  0.39616000  1.00000000  1
  C  C40  1  0.46290000  1.00000000  1.00000000  1
  C  C41  1  0.00000000  0.46290000  1.00000000  1
  C  C42  1  0.53710000  1.00000000  1.00000000  1
  C  C43  1  0.00000000  0.53710000  1.00000000  1
  C  C44  1  0.60384000  1.00000000  1.00000000  1
  C  C45  1  0.00000000  0.60384000  1.00000000  1
  C  C46  1  0.67804000  1.00000000  1.00000000  1
  C  C47  1  0.32081000  0.76225000  0.95847000  1
  C  C48  1  0.76225000  0.32081000  0.95847000  1
  C  C49  1  0.32081000  0.95847000  0.95847000  1
  C  C50  1  0.95847000  0.32081000  0.95847000  1
  C  C51  1  0.76225000  0.95847000  0.95847000  1
  C  C52  1  0.95847000  0.76225000  0.95847000  1
  C  C53  1  0.32081000  0.95847000  0.76225000  1
  C  C54  1  0.95847000  0.32081000  0.76225000  1
  C  C55  1  0.95847000  0.95847000  0.76225000  1
  C  C56  1  0.04153000  0.04153000  0.67919000  1
  C  C57  1  0.04153000  0.23775000  0.67919000  1
  C  C58  1  0.23775000  0.04153000  0.67919000  1
  C  C59  1  0.32196000  1.00000000  0.67804000  1
  C  C60  1  0.00000000  0.32196000  0.67804000  1
  C  C61  1  0.00000000  1.00000000  0.67804000  1
  C  C62  1  0.39616000  1.00000000  0.60384000  1
  C  C63  1  0.00000000  0.39616000  0.60384000  1
  C  C64  1  0.00000000  1.00000000  0.60384000  1
  C  C65  1  0.46290000  1.00000000  0.53710000  1
  C  C66  1  0.00000000  0.46290000  0.53710000  1
  C  C67  1  0.00000000  1.00000000  0.53710000  1
  C  C68  1  0.53710000  1.00000000  0.46290000  1
  C  C69  1  0.00000000  0.53710000  0.46290000  1
  C  C70  1  0.00000000  1.00000000  0.46290000  1
  C  C71  1  0.60384000  1.00000000  0.39616000  1
  C  C72  1  0.00000000  0.60384000  0.39616000  1
  C  C73  1  0.00000000  1.00000000  0.39616000  1
  C  C74  1  0.67804000  1.00000000  0.32196000  1
  C  C75  1  0.00000000  0.67804000  0.32196000  1
  C  C76  1  0.00000000  1.00000000  0.32196000  1
  C  C77  1  0.76225000  0.95847000  0.32081000  1
  C  C78  1  0.95847000  0.76225000  0.32081000  1
  C  C79  1  0.95847000  0.95847000  0.32081000  1
  C  C80  1  0.04153000  0.04153000  0.23775000  1
  C  C81  1  0.04153000  0.67919000  0.23775000  1
  C  C82  1  0.67919000  0.04153000  0.23775000  1
  C  C83  1  0.04153000  0.23775000  0.04153000  1
  C  C84  1  0.23775000  0.04153000  0.04153000  1
  C  C85  1  0.04153000  0.67919000  0.04153000  1
  C  C86  1  0.67919000  0.04153000  0.04153000  1
  C  C87  1  0.23775000  0.67919000  0.04153000  1
  C  C88  1  0.67919000  0.23775000  0.04153000  1
  C  C89  1  0.39616000  0.60384000  0.00000000  1
  C  C90  1  0.46290000  0.53710000  0.00000000  1
  C  C91  1  0.00000000  0.67804000  1.00000000  1
  N  N92  1  0.23591000  0.81543000  0.97433000  1
  N  N93  1  0.81543000  0.23591000  0.97433000  1
  N  N94  1  0.23591000  0.97433000  0.97433000  1
  N  N95  1  0.97433000  0.23591000  0.97433000  1
  N  N96  1  0.81543000  0.97433000  0.97433000  1
  N  N97  1  0.97433000  0.81543000  0.97433000  1
  N  N98  1  0.23591000  0.97433000  0.81543000  1
  N  N99  1  0.97433000  0.23591000  0.81543000  1
  N  N100  1  0.97433000  0.97433000  0.81543000  1
  N  N101  1  0.02567000  0.02567000  0.76409000  1
  N  N102  1  0.02567000  0.18457000  0.76409000  1
  N  N103  1  0.18457000  0.02567000  0.76409000  1
  N  N104  1  0.81543000  0.97433000  0.23591000  1
  N  N105  1  0.97433000  0.81543000  0.23591000  1
  N  N106  1  0.97433000  0.97433000  0.23591000  1
  N  N107  1  0.02567000  0.02567000  0.18457000  1
  N  N108  1  0.02567000  0.76409000  0.18457000  1
  N  N109  1  0.76409000  0.02567000  0.18457000  1
  N  N110  1  0.02567000  0.18457000  0.02567000  1
  N  N111  1  0.18457000  0.02567000  0.02567000  1
  N  N112  1  0.02567000  0.76409000  0.02567000  1
  N  N113  1  0.76409000  0.02567000  0.02567000  1
  N  N114  1  0.18457000  0.76409000  0.02567000  1
  N  N115  1  0.76409000  0.18457000  0.02567000  1
