# generated using pymatgen
data_MnH5C10N3O4
_symmetry_space_group_name_H-M   'P 1'
_cell_length_a   12.28620000
_cell_length_b   14.94710000
_cell_length_c   20.89590000
_cell_angle_alpha   90.00000000
_cell_angle_beta   90.00000000
_cell_angle_gamma   90.00000000
_symmetry_Int_Tables_number   1
_chemical_formula_structural   MnH5C10N3O4
_chemical_formula_sum   'Mn8 H40 C80 N24 O32'
_cell_volume   3837.38701787
_cell_formula_units_Z   8
loop_
 _symmetry_equiv_pos_site_id
 _symmetry_equiv_pos_as_xyz
  1  'x, y, z'
loop_
 _atom_site_type_symbol
 _atom_site_label
 _atom_site_symmetry_multiplicity
 _atom_site_fract_x
 _atom_site_fract_y
 _atom_site_fract_z
 _atom_site_occupancy
  Mn  Mn0  1  0.08431000  0.37544000  0.69367000  1
  Mn  Mn1  1  0.08431000  0.62456000  0.19367000  1
  Mn  Mn2  1  0.41569000  0.12456000  0.19367000  1
  Mn  Mn3  1  0.41569000  0.87544000  0.69367000  1
  Mn  Mn4  1  0.58431000  0.12456000  0.30633000  1
  Mn  Mn5  1  0.58431000  0.87544000  0.80633000  1
  Mn  Mn6  1  0.91569000  0.37544000  0.80633000  1
  Mn  Mn7  1  0.91569000  0.62456000  0.30633000  1
  H  H8  1  0.08310000  0.36000000  0.53540000  1
  H  H9  1  0.08310000  0.64000000  0.03540000  1
  H  H10  1  0.09990000  0.11950000  0.04000000  1
  H  H11  1  0.09990000  0.88050000  0.54000000  1
  H  H12  1  0.13180000  0.47030000  0.43120000  1
  H  H13  1  0.13180000  0.52970000  0.93120000  1
  H  H14  1  0.14050000  0.22350000  0.93470000  1
  H  H15  1  0.14050000  0.77650000  0.43470000  1
  H  H16  1  0.24560000  0.12560000  0.76690000  1
  H  H17  1  0.24560000  0.87440000  0.26690000  1
  H  H18  1  0.25440000  0.37440000  0.26690000  1
  H  H19  1  0.25440000  0.62560000  0.76690000  1
  H  H20  1  0.35950000  0.27650000  0.43470000  1
  H  H21  1  0.35950000  0.72350000  0.93470000  1
  H  H22  1  0.36820000  0.02970000  0.93120000  1
  H  H23  1  0.36820000  0.97030000  0.43120000  1
  H  H24  1  0.40010000  0.38050000  0.54000000  1
  H  H25  1  0.40010000  0.61950000  0.04000000  1
  H  H26  1  0.41690000  0.14000000  0.03540000  1
  H  H27  1  0.41690000  0.86000000  0.53540000  1
  H  H28  1  0.58310000  0.14000000  0.46460000  1
  H  H29  1  0.58310000  0.86000000  0.96460000  1
  H  H30  1  0.59990000  0.38050000  0.96000000  1
  H  H31  1  0.59990000  0.61950000  0.46000000  1
  H  H32  1  0.63180000  0.02970000  0.56880000  1
  H  H33  1  0.63180000  0.97030000  0.06880000  1
  H  H34  1  0.64050000  0.27650000  0.06530000  1
  H  H35  1  0.64050000  0.72350000  0.56530000  1
  H  H36  1  0.74560000  0.37440000  0.23310000  1
  H  H37  1  0.74560000  0.62560000  0.73310000  1
  H  H38  1  0.75440000  0.12560000  0.73310000  1
  H  H39  1  0.75440000  0.87440000  0.23310000  1
  H  H40  1  0.85950000  0.22350000  0.56530000  1
  H  H41  1  0.85950000  0.77650000  0.06530000  1
  H  H42  1  0.86820000  0.47030000  0.06880000  1
  H  H43  1  0.86820000  0.52970000  0.56880000  1
  H  H44  1  0.90010000  0.11950000  0.46000000  1
  H  H45  1  0.90010000  0.88050000  0.96000000  1
  H  H46  1  0.91690000  0.36000000  0.96460000  1
  H  H47  1  0.91690000  0.64000000  0.46460000  1
  C  C48  1  0.11260000  0.25310000  0.81040000  1
  C  C49  1  0.11260000  0.74690000  0.31040000  1
  C  C50  1  0.11970000  0.49900000  0.80640000  1
  C  C51  1  0.11970000  0.50100000  0.30640000  1
  C  C52  1  0.15400000  0.36920000  0.54960000  1
  C  C53  1  0.15400000  0.63080000  0.04960000  1
  C  C54  1  0.17260000  0.11860000  0.05250000  1
  C  C55  1  0.17260000  0.88140000  0.55250000  1
  C  C56  1  0.17990000  0.43280000  0.40970000  1
  C  C57  1  0.17990000  0.56720000  0.90970000  1
  C  C58  1  0.18420000  0.18630000  0.84590000  1
  C  C59  1  0.18420000  0.81370000  0.34590000  1
  C  C60  1  0.18460000  0.18480000  0.91140000  1
  C  C61  1  0.18460000  0.81520000  0.41140000  1
  C  C62  1  0.18500000  0.43310000  0.34250000  1
  C  C63  1  0.18500000  0.56690000  0.84250000  1
  C  C64  1  0.24630000  0.37680000  0.44290000  1
  C  C65  1  0.24630000  0.62320000  0.94290000  1
  C  C66  1  0.24830000  0.12580000  0.81130000  1
  C  C67  1  0.24830000  0.87420000  0.31130000  1
  C  C68  1  0.25170000  0.37420000  0.31130000  1
  C  C69  1  0.25170000  0.62580000  0.81130000  1
  C  C70  1  0.25370000  0.12320000  0.94290000  1
  C  C71  1  0.25370000  0.87680000  0.44290000  1
  C  C72  1  0.31500000  0.06690000  0.84250000  1
  C  C73  1  0.31500000  0.93310000  0.34250000  1
  C  C74  1  0.31540000  0.31520000  0.41140000  1
  C  C75  1  0.31540000  0.68480000  0.91140000  1
  C  C76  1  0.31580000  0.31370000  0.34590000  1
  C  C77  1  0.31580000  0.68630000  0.84590000  1
  C  C78  1  0.32010000  0.06720000  0.90970000  1
  C  C79  1  0.32010000  0.93280000  0.40970000  1
  C  C80  1  0.32740000  0.38140000  0.55250000  1
  C  C81  1  0.32740000  0.61860000  0.05250000  1
  C  C82  1  0.34600000  0.13080000  0.04960000  1
  C  C83  1  0.34600000  0.86920000  0.54960000  1
  C  C84  1  0.38030000  0.00100000  0.30640000  1
  C  C85  1  0.38030000  0.99900000  0.80640000  1
  C  C86  1  0.38740000  0.24690000  0.31040000  1
  C  C87  1  0.38740000  0.75310000  0.81040000  1
  C  C88  1  0.61260000  0.24690000  0.18960000  1
  C  C89  1  0.61260000  0.75310000  0.68960000  1
  C  C90  1  0.61970000  0.00100000  0.19360000  1
  C  C91  1  0.61970000  0.99900000  0.69360000  1
  C  C92  1  0.65400000  0.13080000  0.45040000  1
  C  C93  1  0.65400000  0.86920000  0.95040000  1
  C  C94  1  0.67260000  0.38140000  0.94750000  1
  C  C95  1  0.67260000  0.61860000  0.44750000  1
  C  C96  1  0.67990000  0.06720000  0.59030000  1
  C  C97  1  0.67990000  0.93280000  0.09030000  1
  C  C98  1  0.68420000  0.31370000  0.15410000  1
  C  C99  1  0.68420000  0.68630000  0.65410000  1
  C  C100  1  0.68460000  0.31520000  0.08860000  1
  C  C101  1  0.68460000  0.68480000  0.58860000  1
  C  C102  1  0.68500000  0.06690000  0.65750000  1
  C  C103  1  0.68500000  0.93310000  0.15750000  1
  C  C104  1  0.74630000  0.12320000  0.55710000  1
  C  C105  1  0.74630000  0.87680000  0.05710000  1
  C  C106  1  0.74830000  0.37420000  0.18870000  1
  C  C107  1  0.74830000  0.62580000  0.68870000  1
  C  C108  1  0.75170000  0.12580000  0.68870000  1
  C  C109  1  0.75170000  0.87420000  0.18870000  1
  C  C110  1  0.75370000  0.37680000  0.05710000  1
  C  C111  1  0.75370000  0.62320000  0.55710000  1
  C  C112  1  0.81500000  0.43310000  0.15750000  1
  C  C113  1  0.81500000  0.56690000  0.65750000  1
  C  C114  1  0.81540000  0.18480000  0.58860000  1
  C  C115  1  0.81540000  0.81520000  0.08860000  1
  C  C116  1  0.81580000  0.18630000  0.65410000  1
  C  C117  1  0.81580000  0.81370000  0.15410000  1
  C  C118  1  0.82010000  0.43280000  0.09030000  1
  C  C119  1  0.82010000  0.56720000  0.59030000  1
  C  C120  1  0.82740000  0.11860000  0.44750000  1
  C  C121  1  0.82740000  0.88140000  0.94750000  1
  C  C122  1  0.84600000  0.36920000  0.95040000  1
  C  C123  1  0.84600000  0.63080000  0.45040000  1
  C  C124  1  0.88030000  0.49900000  0.69360000  1
  C  C125  1  0.88030000  0.50100000  0.19360000  1
  C  C126  1  0.88740000  0.25310000  0.68960000  1
  C  C127  1  0.88740000  0.74690000  0.18960000  1
  N  N128  1  0.18330000  0.37680000  0.60920000  1
  N  N129  1  0.18330000  0.62320000  0.10920000  1
  N  N130  1  0.20460000  0.11250000  0.11120000  1
  N  N131  1  0.20460000  0.88750000  0.61120000  1
  N  N132  1  0.24290000  0.37670000  0.51140000  1
  N  N133  1  0.24290000  0.62330000  0.01140000  1
  N  N134  1  0.25710000  0.12330000  0.01140000  1
  N  N135  1  0.25710000  0.87670000  0.51140000  1
  N  N136  1  0.29540000  0.38750000  0.61120000  1
  N  N137  1  0.29540000  0.61250000  0.11120000  1
  N  N138  1  0.31670000  0.12320000  0.10920000  1
  N  N139  1  0.31670000  0.87680000  0.60920000  1
  N  N140  1  0.68330000  0.12320000  0.39080000  1
  N  N141  1  0.68330000  0.87680000  0.89080000  1
  N  N142  1  0.70460000  0.38750000  0.88880000  1
  N  N143  1  0.70460000  0.61250000  0.38880000  1
  N  N144  1  0.74290000  0.12330000  0.48860000  1
  N  N145  1  0.74290000  0.87670000  0.98860000  1
  N  N146  1  0.75710000  0.37670000  0.98860000  1
  N  N147  1  0.75710000  0.62330000  0.48860000  1
  N  N148  1  0.79540000  0.11250000  0.38880000  1
  N  N149  1  0.79540000  0.88750000  0.88880000  1
  N  N150  1  0.81670000  0.37680000  0.89080000  1
  N  N151  1  0.81670000  0.62320000  0.39080000  1
  O  O152  1  0.03050000  0.28060000  0.83940000  1
  O  O153  1  0.03050000  0.71940000  0.33940000  1
  O  O154  1  0.03720000  0.46870000  0.83420000  1
  O  O155  1  0.03720000  0.53130000  0.33420000  1
  O  O156  1  0.14350000  0.27610000  0.75670000  1
  O  O157  1  0.14350000  0.72390000  0.25670000  1
  O  O158  1  0.15080000  0.47720000  0.75170000  1
  O  O159  1  0.15080000  0.52280000  0.25170000  1
  O  O160  1  0.34920000  0.02280000  0.25170000  1
  O  O161  1  0.34920000  0.97720000  0.75170000  1
  O  O162  1  0.35650000  0.22390000  0.25670000  1
  O  O163  1  0.35650000  0.77610000  0.75670000  1
  O  O164  1  0.46280000  0.03130000  0.33420000  1
  O  O165  1  0.46280000  0.96870000  0.83420000  1
  O  O166  1  0.46950000  0.21940000  0.33940000  1
  O  O167  1  0.46950000  0.78060000  0.83940000  1
  O  O168  1  0.53050000  0.21940000  0.16060000  1
  O  O169  1  0.53050000  0.78060000  0.66060000  1
  O  O170  1  0.53720000  0.03130000  0.16580000  1
  O  O171  1  0.53720000  0.96870000  0.66580000  1
  O  O172  1  0.64350000  0.22390000  0.24330000  1
  O  O173  1  0.64350000  0.77610000  0.74330000  1
  O  O174  1  0.65080000  0.02280000  0.24830000  1
  O  O175  1  0.65080000  0.97720000  0.74830000  1
  O  O176  1  0.84920000  0.47720000  0.74830000  1
  O  O177  1  0.84920000  0.52280000  0.24830000  1
  O  O178  1  0.85650000  0.27610000  0.74330000  1
  O  O179  1  0.85650000  0.72390000  0.24330000  1
  O  O180  1  0.96280000  0.46870000  0.66580000  1
  O  O181  1  0.96280000  0.53130000  0.16580000  1
  O  O182  1  0.96950000  0.28060000  0.66060000  1
  O  O183  1  0.96950000  0.71940000  0.16060000  1
