# generated using pymatgen
data_Eu2H9(C5O2)6
_symmetry_space_group_name_H-M   'P 1'
_cell_length_a   18.47970000
_cell_length_b   18.47970000
_cell_length_c   18.63200000
_cell_angle_alpha   86.37720000
_cell_angle_beta   86.37720000
_cell_angle_gamma   70.36350000
_symmetry_Int_Tables_number   1
_chemical_formula_structural   Eu2H9(C5O2)6
_chemical_formula_sum   'Eu8 H36 C120 O48'
_cell_volume   5974.84076591
_cell_formula_units_Z   4
loop_
 _symmetry_equiv_pos_site_id
 _symmetry_equiv_pos_as_xyz
  1  'x, y, z'
loop_
 _atom_site_type_symbol
 _atom_site_label
 _atom_site_symmetry_multiplicity
 _atom_site_fract_x
 _atom_site_fract_y
 _atom_site_fract_z
 _atom_site_occupancy
  Eu  Eu0  1  0.64755000  0.99121000  0.97984000  1
  Eu  Eu1  1  0.54547000  0.89878000  0.56756000  1
  Eu  Eu2  1  0.99121000  0.64755000  0.47984000  1
  Eu  Eu3  1  0.89878000  0.54547000  0.06756000  1
  Eu  Eu4  1  0.10122000  0.45453000  0.93244000  1
  Eu  Eu5  1  0.00879000  0.35245000  0.52016000  1
  Eu  Eu6  1  0.45453000  0.10122000  0.43244000  1
  Eu  Eu7  1  0.35245000  0.00879000  0.02016000  1
  H  H8  1  0.43840000  0.96420000  0.26450000  1
  H  H9  1  0.28650000  0.93330000  0.63950000  1
  H  H10  1  0.89620000  0.91740000  0.85480000  1
  H  H11  1  0.91740000  0.89620000  0.35480000  1
  H  H12  1  0.73620000  0.86600000  0.46780000  1
  H  H13  1  0.45140000  0.79120000  0.05050000  1
  H  H14  1  0.37580000  0.79120000  0.20440000  1
  H  H15  1  0.45420000  0.78220000  0.40040000  1
  H  H16  1  0.67350000  0.76790000  0.00590000  1
  H  H17  1  0.86600000  0.73620000  0.96780000  1
  H  H18  1  0.06670000  0.71350000  0.86050000  1
  H  H19  1  0.76790000  0.67350000  0.50590000  1
  H  H20  1  0.20880000  0.62420000  0.29560000  1
  H  H21  1  0.59310000  0.61630000  0.60040000  1
  H  H22  1  0.61630000  0.59310000  0.10040000  1
  H  H23  1  0.03580000  0.56160000  0.23550000  1
  H  H24  1  0.20880000  0.54860000  0.44950000  1
  H  H25  1  0.21780000  0.54580000  0.09960000  1
  H  H26  1  0.78220000  0.45420000  0.90040000  1
  H  H27  1  0.79120000  0.45140000  0.55050000  1
  H  H28  1  0.96420000  0.43840000  0.76450000  1
  H  H29  1  0.38370000  0.40690000  0.89960000  1
  H  H30  1  0.40690000  0.38370000  0.39960000  1
  H  H31  1  0.79120000  0.37580000  0.70440000  1
  H  H32  1  0.23210000  0.32650000  0.49410000  1
  H  H33  1  0.93330000  0.28650000  0.13950000  1
  H  H34  1  0.13400000  0.26380000  0.03220000  1
  H  H35  1  0.32650000  0.23210000  0.99410000  1
  H  H36  1  0.54580000  0.21780000  0.59960000  1
  H  H37  1  0.62420000  0.20880000  0.79560000  1
  H  H38  1  0.54860000  0.20880000  0.94950000  1
  H  H39  1  0.26380000  0.13400000  0.53220000  1
  H  H40  1  0.08260000  0.10380000  0.64520000  1
  H  H41  1  0.10380000  0.08260000  0.14520000  1
  H  H42  1  0.71350000  0.06670000  0.36050000  1
  H  H43  1  0.56160000  0.03580000  0.73550000  1
  C  C44  1  0.37030000  0.99590000  0.55860000  1
  C  C45  1  0.82240000  0.98940000  0.35360000  1
  C  C46  1  0.25610000  0.98250000  0.62460000  1
  C  C47  1  0.71280000  0.97220000  0.41820000  1
  C  C48  1  0.14360000  0.96200000  0.69380000  1
  C  C49  1  0.11110000  0.92690000  0.72730000  1
  C  C50  1  0.38270000  0.92490000  0.15220000  1
  C  C51  1  0.43260000  0.91660000  0.27540000  1
  C  C52  1  0.86680000  0.91600000  0.37280000  1
  C  C53  1  0.48320000  0.91420000  0.39830000  1
  C  C54  1  0.75810000  0.89750000  0.44000000  1
  C  C55  1  0.07310000  0.88890000  0.77270000  1
  C  C56  1  0.79330000  0.88570000  0.94260000  1
  C  C57  1  0.40400000  0.88420000  0.22520000  1
  C  C58  1  0.45390000  0.87950000  0.34400000  1
  C  C59  1  0.53720000  0.87480000  0.99550000  1
  C  C60  1  0.83550000  0.87130000  0.41960000  1
  C  C61  1  0.91600000  0.86680000  0.87280000  1
  C  C62  1  0.03800000  0.85640000  0.80620000  1
  C  C63  1  0.87130000  0.83550000  0.91960000  1
  C  C64  1  0.98940000  0.82240000  0.85360000  1
  C  C65  1  0.39350000  0.81370000  0.23960000  1
  C  C66  1  0.44100000  0.80880000  0.35650000  1
  C  C67  1  0.55850000  0.79390000  0.02220000  1
  C  C68  1  0.88570000  0.79330000  0.44260000  1
  C  C69  1  0.40960000  0.77740000  0.30680000  1
  C  C70  1  0.50320000  0.76140000  0.05100000  1
  C  C71  1  0.89750000  0.75810000  0.94000000  1
  C  C72  1  0.63570000  0.74750000  0.02330000  1
  C  C73  1  0.01750000  0.74390000  0.87540000  1
  C  C74  1  0.62480000  0.73980000  0.55100000  1
  C  C75  1  0.97220000  0.71280000  0.91820000  1
  C  C76  1  0.39330000  0.70850000  0.32430000  1
  C  C77  1  0.52280000  0.68900000  0.07920000  1
  C  C78  1  0.65700000  0.67280000  0.04970000  1
  C  C79  1  0.46430000  0.66110000  0.10990000  1
  C  C80  1  0.67280000  0.65700000  0.54970000  1
  C  C81  1  0.37640000  0.65120000  0.34420000  1
  C  C82  1  0.60180000  0.64280000  0.07990000  1
  C  C83  1  0.41050000  0.64250000  0.13280000  1
  C  C84  1  0.74750000  0.63570000  0.52330000  1
  C  C85  1  0.00410000  0.62970000  0.94140000  1
  C  C86  1  0.73980000  0.62480000  0.05100000  1
  C  C87  1  0.34880000  0.62360000  0.15580000  1
  C  C88  1  0.07510000  0.61730000  0.34780000  1
  C  C89  1  0.29150000  0.60670000  0.17570000  1
  C  C90  1  0.18630000  0.60650000  0.26040000  1
  C  C91  1  0.64280000  0.60180000  0.57990000  1
  C  C92  1  0.11580000  0.59600000  0.27480000  1
  C  C93  1  0.22260000  0.59040000  0.19320000  1
  C  C94  1  0.35750000  0.58950000  0.36720000  1
  C  C95  1  0.08340000  0.56740000  0.22460000  1
  C  C96  1  0.19120000  0.55900000  0.14350000  1
  C  C97  1  0.79390000  0.55850000  0.52220000  1
  C  C98  1  0.12050000  0.54610000  0.15600000  1
  C  C99  1  0.87480000  0.53720000  0.49550000  1
  C  C100  1  0.33890000  0.53570000  0.39010000  1
  C  C101  1  0.68900000  0.52280000  0.57920000  1
  C  C102  1  0.08580000  0.51680000  0.10170000  1
  C  C103  1  0.76140000  0.50320000  0.55100000  1
  C  C104  1  0.23860000  0.49680000  0.44900000  1
  C  C105  1  0.91420000  0.48320000  0.89830000  1
  C  C106  1  0.31100000  0.47720000  0.42080000  1
  C  C107  1  0.66110000  0.46430000  0.60990000  1
  C  C108  1  0.12520000  0.46280000  0.50450000  1
  C  C109  1  0.87950000  0.45390000  0.84400000  1
  C  C110  1  0.20610000  0.44150000  0.47780000  1
  C  C111  1  0.80880000  0.44100000  0.85650000  1
  C  C112  1  0.91660000  0.43260000  0.77540000  1
  C  C113  1  0.64250000  0.41050000  0.63280000  1
  C  C114  1  0.77740000  0.40960000  0.80680000  1
  C  C115  1  0.88420000  0.40400000  0.72520000  1
  C  C116  1  0.35720000  0.39820000  0.42010000  1
  C  C117  1  0.81370000  0.39350000  0.73960000  1
  C  C118  1  0.70850000  0.39330000  0.82430000  1
  C  C119  1  0.92490000  0.38270000  0.65220000  1
  C  C120  1  0.65120000  0.37640000  0.84420000  1
  C  C121  1  0.26020000  0.37520000  0.94900000  1
  C  C122  1  0.99590000  0.37030000  0.05860000  1
  C  C123  1  0.25250000  0.36430000  0.47670000  1
  C  C124  1  0.58950000  0.35750000  0.86720000  1
  C  C125  1  0.39820000  0.35720000  0.92010000  1
  C  C126  1  0.62360000  0.34880000  0.65580000  1
  C  C127  1  0.32720000  0.34300000  0.45030000  1
  C  C128  1  0.53570000  0.33890000  0.89010000  1
  C  C129  1  0.34300000  0.32720000  0.95030000  1
  C  C130  1  0.47720000  0.31100000  0.92080000  1
  C  C131  1  0.60670000  0.29150000  0.67570000  1
  C  C132  1  0.02780000  0.28720000  0.08180000  1
  C  C133  1  0.37520000  0.26020000  0.44900000  1
  C  C134  1  0.98250000  0.25610000  0.12460000  1
  C  C135  1  0.36430000  0.25250000  0.97670000  1
  C  C136  1  0.10250000  0.24190000  0.06000000  1
  C  C137  1  0.49680000  0.23860000  0.94900000  1
  C  C138  1  0.59040000  0.22260000  0.69320000  1
  C  C139  1  0.11430000  0.20670000  0.55740000  1
  C  C140  1  0.44150000  0.20610000  0.97780000  1
  C  C141  1  0.55900000  0.19120000  0.64350000  1
  C  C142  1  0.60650000  0.18630000  0.76040000  1
  C  C143  1  0.01060000  0.17760000  0.14640000  1
  C  C144  1  0.12870000  0.16450000  0.08040000  1
  C  C145  1  0.96200000  0.14360000  0.19380000  1
  C  C146  1  0.08400000  0.13320000  0.12720000  1
  C  C147  1  0.16450000  0.12870000  0.58040000  1
  C  C148  1  0.46280000  0.12520000  0.00450000  1
  C  C149  1  0.54610000  0.12050000  0.65600000  1
  C  C150  1  0.59600000  0.11580000  0.77480000  1
  C  C151  1  0.20670000  0.11430000  0.05740000  1
  C  C152  1  0.92690000  0.11110000  0.22730000  1
  C  C153  1  0.24190000  0.10250000  0.56000000  1
  C  C154  1  0.51680000  0.08580000  0.60170000  1
  C  C155  1  0.13320000  0.08400000  0.62720000  1
  C  C156  1  0.56740000  0.08340000  0.72460000  1
  C  C157  1  0.61730000  0.07510000  0.84780000  1
  C  C158  1  0.88890000  0.07310000  0.27270000  1
  C  C159  1  0.85640000  0.03800000  0.30620000  1
  C  C160  1  0.28720000  0.02780000  0.58180000  1
  C  C161  1  0.74390000  0.01750000  0.37540000  1
  C  C162  1  0.17760000  0.01060000  0.64640000  1
  C  C163  1  0.62970000  0.00410000  0.44140000  1
  O  O164  1  0.40260000  0.98400000  0.13770000  1
  O  O165  1  0.48620000  0.98140000  0.38180000  1
  O  O166  1  0.60350000  0.96670000  0.48790000  1
  O  O167  1  0.76280000  0.94500000  0.90660000  1
  O  O168  1  0.40920000  0.93320000  0.58620000  1
  O  O169  1  0.46540000  0.91180000  0.99150000  1
  O  O170  1  0.34990000  0.90170000  0.11100000  1
  O  O171  1  0.58800000  0.90080000  0.97430000  1
  O  O172  1  0.50240000  0.87760000  0.45460000  1
  O  O173  1  0.75600000  0.86840000  0.99150000  1
  O  O174  1  0.65350000  0.78830000  0.52300000  1
  O  O175  1  0.94500000  0.76280000  0.40660000  1
  O  O176  1  0.55800000  0.75920000  0.57800000  1
  O  O177  1  0.86840000  0.75600000  0.49150000  1
  O  O178  1  0.78830000  0.65350000  0.02300000  1
  O  O179  1  0.09830000  0.65010000  0.38900000  1
  O  O180  1  0.96670000  0.60350000  0.98790000  1
  O  O181  1  0.01600000  0.59740000  0.36230000  1
  O  O182  1  0.06680000  0.59080000  0.91380000  1
  O  O183  1  0.90080000  0.58800000  0.47430000  1
  O  O184  1  0.75920000  0.55800000  0.07800000  1
  O  O185  1  0.08820000  0.53460000  0.50850000  1
  O  O186  1  0.01860000  0.51380000  0.11820000  1
  O  O187  1  0.87760000  0.50240000  0.95460000  1
  O  O188  1  0.12240000  0.49760000  0.04540000  1
  O  O189  1  0.98140000  0.48620000  0.88180000  1
  O  O190  1  0.91180000  0.46540000  0.49150000  1
  O  O191  1  0.24080000  0.44200000  0.92200000  1
  O  O192  1  0.09920000  0.41200000  0.52570000  1
  O  O193  1  0.93320000  0.40920000  0.08620000  1
  O  O194  1  0.98400000  0.40260000  0.63770000  1
  O  O195  1  0.03330000  0.39650000  0.01210000  1
  O  O196  1  0.90170000  0.34990000  0.61100000  1
  O  O197  1  0.21170000  0.34650000  0.97700000  1
  O  O198  1  0.13160000  0.24400000  0.50850000  1
  O  O199  1  0.44200000  0.24080000  0.42200000  1
  O  O200  1  0.05500000  0.23720000  0.59340000  1
  O  O201  1  0.34650000  0.21170000  0.47700000  1
  O  O202  1  0.24400000  0.13160000  0.00850000  1
  O  O203  1  0.49760000  0.12240000  0.54540000  1
  O  O204  1  0.41200000  0.09920000  0.02570000  1
  O  O205  1  0.65010000  0.09830000  0.88900000  1
  O  O206  1  0.53460000  0.08820000  0.00850000  1
  O  O207  1  0.59080000  0.06680000  0.41380000  1
  O  O208  1  0.23720000  0.05500000  0.09340000  1
  O  O209  1  0.39650000  0.03330000  0.51210000  1
  O  O210  1  0.51380000  0.01860000  0.61820000  1
  O  O211  1  0.59740000  0.01600000  0.86230000  1
