# generated using pymatgen
data_ZnH13C22NO4
_symmetry_space_group_name_H-M   'P 1'
_cell_length_a   11.52100000
_cell_length_b   14.00800000
_cell_length_c   15.70100000
_cell_angle_alpha   96.67900000
_cell_angle_beta   90.00000000
_cell_angle_gamma   90.00000000
_symmetry_Int_Tables_number   1
_chemical_formula_structural   ZnH13C22NO4
_chemical_formula_sum   'Zn4 H52 C88 N4 O16'
_cell_volume   2516.72735398
_cell_formula_units_Z   4
loop_
 _symmetry_equiv_pos_site_id
 _symmetry_equiv_pos_as_xyz
  1  'x, y, z'
loop_
 _atom_site_type_symbol
 _atom_site_label
 _atom_site_symmetry_multiplicity
 _atom_site_fract_x
 _atom_site_fract_y
 _atom_site_fract_z
 _atom_site_occupancy
  Zn  Zn0  1  0.09520000  0.19570000  0.98308000  1
  Zn  Zn1  1  0.09560000  0.40460000  0.00210000  1
  Zn  Zn2  1  0.59520000  0.80430000  0.01692000  1
  Zn  Zn3  1  0.59560000  0.59540000  0.99790000  1
  H  H4  1  0.02020000  0.82540000  0.72530000  1
  H  H5  1  0.03370000  0.59720000  0.28280000  1
  H  H6  1  0.15950000  0.58440000  0.68930000  1
  H  H7  1  0.16000000  0.83430000  0.31460000  1
  H  H8  1  0.25100000  0.03520000  0.92860000  1
  H  H9  1  0.26450000  0.83230000  0.19280000  1
  H  H10  1  0.26500000  0.85220000  0.97240000  1
  H  H11  1  0.26780000  0.71680000  0.02850000  1
  H  H12  1  0.27170000  0.57150000  0.81360000  1
  H  H13  1  0.27210000  0.56780000  0.99120000  1
  H  H14  1  0.27580000  0.43720000  0.25160000  1
  H  H15  1  0.28720000  0.15470000  0.73600000  1
  H  H16  1  0.29640000  0.70340000  0.50440000  1
  H  H17  1  0.30160000  0.83580000  0.67200000  1
  H  H18  1  0.31050000  0.58750000  0.36330000  1
  H  H19  1  0.36840000  0.16780000  0.60970000  1
  H  H20  1  0.38900000  0.43190000  0.37470000  1
  H  H21  1  0.39860000  0.82980000  0.78970000  1
  H  H22  1  0.39910000  0.27760000  0.48340000  1
  H  H23  1  0.40440000  0.41970000  0.82730000  1
  H  H24  1  0.40690000  0.17990000  0.15160000  1
  H  H25  1  0.41740000  0.26120000  0.00140000  1
  H  H26  1  0.42650000  0.58790000  0.23400000  1
  H  H27  1  0.43280000  0.43510000  0.97900000  1
  H  H28  1  0.44100000  0.12140000  0.92620000  1
  H  H29  1  0.45200000  0.96120000  0.96250000  1
  H  H30  1  0.52020000  0.17460000  0.27470000  1
  H  H31  1  0.53370000  0.40280000  0.71720000  1
  H  H32  1  0.65950000  0.41560000  0.31070000  1
  H  H33  1  0.66000000  0.16570000  0.68540000  1
  H  H34  1  0.75100000  0.96480000  0.07140000  1
  H  H35  1  0.76450000  0.16770000  0.80720000  1
  H  H36  1  0.76500000  0.14780000  0.02760000  1
  H  H37  1  0.76780000  0.28320000  0.97150000  1
  H  H38  1  0.77170000  0.42850000  0.18640000  1
  H  H39  1  0.77210000  0.43220000  0.00880000  1
  H  H40  1  0.77580000  0.56280000  0.74840000  1
  H  H41  1  0.78720000  0.84530000  0.26400000  1
  H  H42  1  0.79640000  0.29660000  0.49560000  1
  H  H43  1  0.80160000  0.16420000  0.32800000  1
  H  H44  1  0.81050000  0.41250000  0.63670000  1
  H  H45  1  0.86840000  0.83220000  0.39030000  1
  H  H46  1  0.88900000  0.56810000  0.62530000  1
  H  H47  1  0.89860000  0.17020000  0.21030000  1
  H  H48  1  0.89910000  0.72240000  0.51660000  1
  H  H49  1  0.90440000  0.58030000  0.17270000  1
  H  H50  1  0.90690000  0.82010000  0.84840000  1
  H  H51  1  0.91740000  0.73880000  0.99860000  1
  H  H52  1  0.92650000  0.41210000  0.76600000  1
  H  H53  1  0.93280000  0.56490000  0.02100000  1
  H  H54  1  0.94100000  0.87860000  0.07380000  1
  H  H55  1  0.95200000  0.03880000  0.03750000  1
  C  C56  1  0.00100000  0.90200000  0.04000000  1
  C  C57  1  0.00200000  0.59900000  0.01100000  1
  C  C58  1  0.01800000  0.00100000  0.02000000  1
  C  C59  1  0.02500000  0.70500000  0.43100000  1
  C  C60  1  0.03200000  0.71900000  0.58500000  1
  C  C61  1  0.08500000  0.85200000  0.00100000  1
  C  C62  1  0.10100000  0.74500000  0.00230000  1
  C  C63  1  0.14900000  0.69800000  0.58900000  1
  C  C64  1  0.15000000  0.72500000  0.43400000  1
  C  C65  1  0.19000000  0.00600000  0.95700000  1
  C  C66  1  0.19600000  0.88900000  0.97700000  1
  C  C67  1  0.19700000  0.68500000  0.01200000  1
  C  C68  1  0.20100000  0.60100000  0.00190000  1
  C  C69  1  0.21400000  0.70800000  0.50700000  1
  C  C70  1  0.21400000  0.78400000  0.29900000  1
  C  C71  1  0.21600000  0.63200000  0.70800000  1
  C  C72  1  0.22700000  0.71200000  0.35000000  1
  C  C73  1  0.23200000  0.70700000  0.66700000  1
  C  C74  1  0.24000000  0.31300000  0.11400000  1
  C  C75  1  0.24600000  0.29600000  0.86900000  1
  C  C76  1  0.27700000  0.78400000  0.23000000  1
  C  C77  1  0.28300000  0.62300000  0.78000000  1
  C  C78  1  0.29900000  0.77900000  0.69900000  1
  C  C79  1  0.30400000  0.63800000  0.32800000  1
  C  C80  1  0.31900000  0.29700000  0.80600000  1
  C  C81  1  0.32540000  0.38390000  0.25630000  1
  C  C82  1  0.32800000  0.21200000  0.72900000  1
  C  C83  1  0.33070000  0.30900000  0.19000000  1
  C  C84  1  0.36000000  0.77300000  0.76500000  1
  C  C85  1  0.36200000  0.71400000  0.21100000  1
  C  C86  1  0.37400000  0.63900000  0.25200000  1
  C  C87  1  0.37400000  0.69600000  0.80300000  1
  C  C88  1  0.38600000  0.21500000  0.65700000  1
  C  C89  1  0.39270000  0.38070000  0.32940000  1
  C  C90  1  0.39900000  0.36300000  0.78800000  1
  C  C91  1  0.40330000  0.23100000  0.19690000  1
  C  C92  1  0.43700000  0.69400000  0.88400000  1
  C  C93  1  0.44600000  0.71700000  0.12500000  1
  C  C94  1  0.46400000  0.27600000  0.64700000  1
  C  C95  1  0.46520000  0.30270000  0.33630000  1
  C  C96  1  0.47060000  0.22790000  0.27000000  1
  C  C97  1  0.47400000  0.35600000  0.71900000  1
  C  C98  1  0.48100000  0.28400000  0.48700000  1
  C  C99  1  0.48900000  0.29500000  0.99730000  1
  C  C100  1  0.50100000  0.09800000  0.96000000  1
  C  C101  1  0.50200000  0.40100000  0.98900000  1
  C  C102  1  0.51800000  0.99900000  0.98000000  1
  C  C103  1  0.52500000  0.29500000  0.56900000  1
  C  C104  1  0.53200000  0.28100000  0.41500000  1
  C  C105  1  0.58500000  0.14800000  0.99900000  1
  C  C106  1  0.60100000  0.25500000  0.99770000  1
  C  C107  1  0.64900000  0.30200000  0.41100000  1
  C  C108  1  0.65000000  0.27500000  0.56600000  1
  C  C109  1  0.69000000  0.99400000  0.04300000  1
  C  C110  1  0.69600000  0.11100000  0.02300000  1
  C  C111  1  0.69700000  0.31500000  0.98800000  1
  C  C112  1  0.70100000  0.39900000  0.99810000  1
  C  C113  1  0.71400000  0.21600000  0.70100000  1
  C  C114  1  0.71400000  0.29200000  0.49300000  1
  C  C115  1  0.71600000  0.36800000  0.29200000  1
  C  C116  1  0.72700000  0.28800000  0.65000000  1
  C  C117  1  0.73200000  0.29300000  0.33300000  1
  C  C118  1  0.74000000  0.68700000  0.88600000  1
  C  C119  1  0.74600000  0.70400000  0.13100000  1
  C  C120  1  0.77700000  0.21600000  0.77000000  1
  C  C121  1  0.78300000  0.37700000  0.22000000  1
  C  C122  1  0.79900000  0.22100000  0.30100000  1
  C  C123  1  0.80400000  0.36200000  0.67200000  1
  C  C124  1  0.81900000  0.70300000  0.19400000  1
  C  C125  1  0.82540000  0.61610000  0.74370000  1
  C  C126  1  0.82800000  0.78800000  0.27100000  1
  C  C127  1  0.83070000  0.69100000  0.81000000  1
  C  C128  1  0.86000000  0.22700000  0.23500000  1
  C  C129  1  0.86200000  0.28600000  0.78900000  1
  C  C130  1  0.87400000  0.30400000  0.19700000  1
  C  C131  1  0.87400000  0.36100000  0.74800000  1
  C  C132  1  0.88600000  0.78500000  0.34300000  1
  C  C133  1  0.89270000  0.61930000  0.67060000  1
  C  C134  1  0.89900000  0.63700000  0.21200000  1
  C  C135  1  0.90330000  0.76900000  0.80310000  1
  C  C136  1  0.93700000  0.30600000  0.11600000  1
  C  C137  1  0.94600000  0.28300000  0.87500000  1
  C  C138  1  0.96400000  0.72400000  0.35300000  1
  C  C139  1  0.96520000  0.69730000  0.66370000  1
  C  C140  1  0.97060000  0.77210000  0.73000000  1
  C  C141  1  0.97400000  0.64400000  0.28100000  1
  C  C142  1  0.98100000  0.71600000  0.51300000  1
  C  C143  1  0.98900000  0.70500000  0.00270000  1
  N  N144  1  0.09400000  0.05530000  0.98570000  1
  N  N145  1  0.09700000  0.54990000  0.00620000  1
  N  N146  1  0.59400000  0.94470000  0.01430000  1
  N  N147  1  0.59700000  0.45010000  0.99380000  1
  O  O148  1  0.22900000  0.38500000  0.08620000  1
  O  O149  1  0.22910000  0.22320000  0.06740000  1
  O  O150  1  0.23200000  0.37600000  0.91970000  1
  O  O151  1  0.23380000  0.20900000  0.90360000  1
  O  O152  1  0.48330000  0.63600000  0.09530000  1
  O  O153  1  0.48340000  0.78400000  0.11230000  1
  O  O154  1  0.48600000  0.61000000  0.89880000  1
  O  O155  1  0.49120000  0.76530000  0.91460000  1
  O  O156  1  0.72900000  0.61500000  0.91380000  1
  O  O157  1  0.72910000  0.77680000  0.93260000  1
  O  O158  1  0.73200000  0.62400000  0.08030000  1
  O  O159  1  0.73380000  0.79100000  0.09640000  1
  O  O160  1  0.98330000  0.36400000  0.90470000  1
  O  O161  1  0.98340000  0.21600000  0.88770000  1
  O  O162  1  0.98600000  0.39000000  0.10120000  1
  O  O163  1  0.99120000  0.23470000  0.08540000  1
