# generated using pymatgen
data_Cu5H18C24(N6O5)2
_symmetry_space_group_name_H-M   'P 1'
_cell_length_a   10.55260000
_cell_length_b   10.87490000
_cell_length_c   15.36430000
_cell_angle_alpha   76.54500000
_cell_angle_beta   82.10100000
_cell_angle_gamma   79.92700000
_symmetry_Int_Tables_number   1
_chemical_formula_structural   Cu5H18C24(N6O5)2
_chemical_formula_sum   'Cu10 H36 C48 N24 O20'
_cell_volume   1679.72058167
_cell_formula_units_Z   2
loop_
 _symmetry_equiv_pos_site_id
 _symmetry_equiv_pos_as_xyz
  1  'x, y, z'
loop_
 _atom_site_type_symbol
 _atom_site_label
 _atom_site_symmetry_multiplicity
 _atom_site_fract_x
 _atom_site_fract_y
 _atom_site_fract_z
 _atom_site_occupancy
  Cu  Cu0  1  0.00000000  0.50000000  0.00000000  1
  Cu  Cu1  1  0.07311000  0.23881000  0.90841000  1
  Cu  Cu2  1  0.15906000  0.51020000  0.15969000  1
  Cu  Cu3  1  0.32016000  0.49567000  0.34245000  1
  Cu  Cu4  1  0.38063000  0.39639000  0.71538000  1
  Cu  Cu5  1  0.50000000  0.50000000  0.50000000  1
  Cu  Cu6  1  0.61937000  0.60361000  0.28462000  1
  Cu  Cu7  1  0.67984000  0.50433000  0.65755000  1
  Cu  Cu8  1  0.84094000  0.48980000  0.84031000  1
  Cu  Cu9  1  0.92689000  0.76119000  0.09159000  1
  H  H10  1  0.00460000  0.06970000  0.76930000  1
  H  H11  1  0.01770000  0.61000000  0.69200000  1
  H  H12  1  0.03560000  0.04010000  0.59110000  1
  H  H13  1  0.07890000  0.50310000  0.83580000  1
  H  H14  1  0.08050000  0.37700000  0.49240000  1
  H  H15  1  0.11500000  0.32360000  0.65350000  1
  H  H16  1  0.15030000  0.82760000  0.34100000  1
  H  H17  1  0.16030000  0.03440000  0.38610000  1
  H  H18  1  0.18250000  0.00320000  0.91630000  1
  H  H19  1  0.22420000  0.89940000  0.61320000  1
  H  H20  1  0.30340000  0.09620000  0.05350000  1
  H  H21  1  0.32960000  0.66850000  0.84880000  1
  H  H22  1  0.33860000  0.21560000  0.16390000  1
  H  H23  1  0.39960000  0.66710000  0.38550000  1
  H  H24  1  0.40020000  0.35290000  0.93310000  1
  H  H25  1  0.40480000  0.60000000  0.01490000  1
  H  H26  1  0.47180000  0.76910000  0.73830000  1
  H  H27  1  0.47240000  0.98580000  0.71920000  1
  H  H28  1  0.52760000  0.01420000  0.28080000  1
  H  H29  1  0.52820000  0.23090000  0.26170000  1
  H  H30  1  0.59520000  0.40000000  0.98510000  1
  H  H31  1  0.59980000  0.64710000  0.06690000  1
  H  H32  1  0.60040000  0.33290000  0.61450000  1
  H  H33  1  0.66140000  0.78440000  0.83610000  1
  H  H34  1  0.67040000  0.33150000  0.15120000  1
  H  H35  1  0.69660000  0.90380000  0.94650000  1
  H  H36  1  0.77580000  0.10060000  0.38680000  1
  H  H37  1  0.81750000  0.99680000  0.08370000  1
  H  H38  1  0.83970000  0.96560000  0.61390000  1
  H  H39  1  0.84970000  0.17240000  0.65900000  1
  H  H40  1  0.88500000  0.67640000  0.34650000  1
  H  H41  1  0.91950000  0.62300000  0.50760000  1
  H  H42  1  0.92110000  0.49690000  0.16420000  1
  H  H43  1  0.96440000  0.95990000  0.40890000  1
  H  H44  1  0.98230000  0.39000000  0.30800000  1
  H  H45  1  0.99540000  0.93030000  0.23070000  1
  C  C46  1  0.02140000  0.69680000  0.67090000  1
  C  C47  1  0.03260000  0.95300000  0.61040000  1
  C  C48  1  0.03940000  0.84730000  0.23800000  1
  C  C49  1  0.08480000  0.09180000  0.37540000  1
  C  C50  1  0.09160000  0.22060000  0.34560000  1
  C  C51  1  0.12560000  0.78970000  0.29890000  1
  C  C52  1  0.14050000  0.73910000  0.65710000  1
  C  C53  1  0.14500000  0.86920000  0.62490000  1
  C  C54  1  0.15010000  0.75680000  0.96380000  1
  C  C55  1  0.15320000  0.38680000  0.51670000  1
  C  C56  1  0.17280000  0.35690000  0.60610000  1
  C  C57  1  0.21680000  0.27120000  0.33760000  1
  C  C58  1  0.24100000  0.95600000  0.88100000  1
  C  C59  1  0.24230000  0.82450000  0.89290000  1
  C  C60  1  0.26110000  0.17670000  0.05980000  1
  C  C61  1  0.26160000  0.64120000  0.66960000  1
  C  C62  1  0.28030000  0.24290000  0.12060000  1
  C  C63  1  0.32870000  0.75620000  0.84020000  1
  C  C64  1  0.32920000  0.01580000  0.81490000  1
  C  C65  1  0.32970000  0.15860000  0.79780000  1
  C  C66  1  0.41410000  0.94560000  0.76290000  1
  C  C67  1  0.41440000  0.81590000  0.77440000  1
  C  C68  1  0.42260000  0.58610000  0.07430000  1
  C  C69  1  0.46920000  0.38730000  0.89710000  1
  C  C70  1  0.53080000  0.61270000  0.10290000  1
  C  C71  1  0.57740000  0.41390000  0.92570000  1
  C  C72  1  0.58560000  0.18410000  0.22560000  1
  C  C73  1  0.58590000  0.05440000  0.23710000  1
  C  C74  1  0.67030000  0.84140000  0.20220000  1
  C  C75  1  0.67080000  0.98420000  0.18510000  1
  C  C76  1  0.67130000  0.24380000  0.15980000  1
  C  C77  1  0.71970000  0.75710000  0.87940000  1
  C  C78  1  0.73840000  0.35880000  0.33040000  1
  C  C79  1  0.73890000  0.82330000  0.94020000  1
  C  C80  1  0.75770000  0.17550000  0.10710000  1
  C  C81  1  0.75900000  0.04400000  0.11900000  1
  C  C82  1  0.78320000  0.72880000  0.66240000  1
  C  C83  1  0.82720000  0.64310000  0.39390000  1
  C  C84  1  0.84680000  0.61320000  0.48330000  1
  C  C85  1  0.84990000  0.24320000  0.03620000  1
  C  C86  1  0.85500000  0.13080000  0.37510000  1
  C  C87  1  0.85950000  0.26090000  0.34290000  1
  C  C88  1  0.87440000  0.21030000  0.70110000  1
  C  C89  1  0.90840000  0.77940000  0.65440000  1
  C  C90  1  0.91520000  0.90820000  0.62460000  1
  C  C91  1  0.96060000  0.15270000  0.76200000  1
  C  C92  1  0.96740000  0.04700000  0.38960000  1
  C  C93  1  0.97860000  0.30320000  0.32910000  1
  N  N94  1  0.03050000  0.76030000  0.19060000  1
  N  N95  1  0.10830000  0.65410000  0.22150000  1
  N  N96  1  0.13360000  0.35740000  0.03960000  1
  N  N97  1  0.16910000  0.25050000  0.01030000  1
  N  N98  1  0.16930000  0.67010000  0.28870000  1
  N  N99  1  0.20130000  0.35330000  0.10760000  1
  N  N100  1  0.25730000  0.43250000  0.47150000  1
  N  N101  1  0.28860000  0.38340000  0.61360000  1
  N  N102  1  0.33960000  0.42820000  0.53160000  1
  N  N103  1  0.34860000  0.53720000  0.14610000  1
  N  N104  1  0.40740000  0.53310000  0.21830000  1
  N  N105  1  0.48300000  0.42060000  0.80720000  1
  N  N106  1  0.51700000  0.57940000  0.19280000  1
  N  N107  1  0.59260000  0.46690000  0.78170000  1
  N  N108  1  0.65140000  0.46280000  0.85390000  1
  N  N109  1  0.66040000  0.57180000  0.46840000  1
  N  N110  1  0.71140000  0.61660000  0.38640000  1
  N  N111  1  0.74270000  0.56750000  0.52850000  1
  N  N112  1  0.79870000  0.64670000  0.89240000  1
  N  N113  1  0.83070000  0.32990000  0.71130000  1
  N  N114  1  0.83090000  0.74950000  0.98970000  1
  N  N115  1  0.86640000  0.64260000  0.96040000  1
  N  N116  1  0.89170000  0.34590000  0.77850000  1
  N  N117  1  0.96950000  0.23970000  0.80940000  1
  O  O118  1  0.01670000  0.45790000  0.87950000  1
  O  O119  1  0.06190000  0.82850000  0.00260000  1
  O  O120  1  0.16300000  0.63800000  0.98110000  1
  O  O121  1  0.20890000  0.39440000  0.30450000  1
  O  O122  1  0.23840000  0.23190000  0.82890000  1
  O  O123  1  0.24800000  0.54280000  0.73140000  1
  O  O124  1  0.31380000  0.20350000  0.36240000  1
  O  O125  1  0.36120000  0.65900000  0.61870000  1
  O  O126  1  0.42360000  0.20170000  0.74930000  1
  O  O127  1  0.44330000  0.58090000  0.38190000  1
  O  O128  1  0.55670000  0.41910000  0.61810000  1
  O  O129  1  0.57640000  0.79830000  0.25070000  1
  O  O130  1  0.63880000  0.34100000  0.38130000  1
  O  O131  1  0.68620000  0.79650000  0.63760000  1
  O  O132  1  0.75200000  0.45720000  0.26860000  1
  O  O133  1  0.76160000  0.76810000  0.17110000  1
  O  O134  1  0.79110000  0.60560000  0.69550000  1
  O  O135  1  0.83700000  0.36200000  0.01890000  1
  O  O136  1  0.93810000  0.17150000  0.99740000  1
  O  O137  1  0.98330000  0.54210000  0.12050000  1
