# generated using pymatgen
data_ZnH11C16(NO3)2
_symmetry_space_group_name_H-M   'P 1'
_cell_length_a   11.44200000
_cell_length_b   13.37300000
_cell_length_c   15.80700000
_cell_angle_alpha   90.00000000
_cell_angle_beta   90.00000000
_cell_angle_gamma   101.36000000
_symmetry_Int_Tables_number   1
_chemical_formula_structural   ZnH11C16(NO3)2
_chemical_formula_sum   'Zn4 H44 C64 N8 O24'
_cell_volume   2371.30544297
_cell_formula_units_Z   4
loop_
 _symmetry_equiv_pos_site_id
 _symmetry_equiv_pos_as_xyz
  1  'x, y, z'
loop_
 _atom_site_type_symbol
 _atom_site_label
 _atom_site_symmetry_multiplicity
 _atom_site_fract_x
 _atom_site_fract_y
 _atom_site_fract_z
 _atom_site_occupancy
  Zn  Zn0  1  0.42889000  0.39163000  0.92116000  1
  Zn  Zn1  1  0.42889000  0.89163000  0.57884000  1
  Zn  Zn2  1  0.57111000  0.10837000  0.42116000  1
  Zn  Zn3  1  0.57111000  0.60837000  0.07884000  1
  H  H4  1  0.00120000  0.30840000  0.02770000  1
  H  H5  1  0.00120000  0.80840000  0.47230000  1
  H  H6  1  0.03900000  0.46360000  0.81120000  1
  H  H7  1  0.03900000  0.96360000  0.68880000  1
  H  H8  1  0.13360000  0.49780000  0.16330000  1
  H  H9  1  0.13360000  0.99780000  0.33670000  1
  H  H10  1  0.18860000  0.22770000  0.50030000  1
  H  H11  1  0.18860000  0.72770000  0.99970000  1
  H  H12  1  0.19980000  0.30600000  0.02200000  1
  H  H13  1  0.19980000  0.80600000  0.47800000  1
  H  H14  1  0.23780000  0.46050000  0.81560000  1
  H  H15  1  0.23780000  0.96050000  0.68440000  1
  H  H16  1  0.33320000  0.49770000  0.16020000  1
  H  H17  1  0.33320000  0.99770000  0.33980000  1
  H  H18  1  0.38410000  0.11790000  0.73400000  1
  H  H19  1  0.38410000  0.61790000  0.76600000  1
  H  H20  1  0.38600000  0.22370000  0.49860000  1
  H  H21  1  0.38600000  0.72370000  0.00140000  1
  H  H22  1  0.39020000  0.17350000  0.11550000  1
  H  H23  1  0.39020000  0.67350000  0.38450000  1
  H  H24  1  0.39960000  0.15880000  0.21360000  1
  H  H25  1  0.39960000  0.65880000  0.28640000  1
  H  H26  1  0.60040000  0.34120000  0.71360000  1
  H  H27  1  0.60040000  0.84120000  0.78640000  1
  H  H28  1  0.60980000  0.32650000  0.61550000  1
  H  H29  1  0.60980000  0.82650000  0.88450000  1
  H  H30  1  0.61400000  0.27630000  0.99860000  1
  H  H31  1  0.61400000  0.77630000  0.50140000  1
  H  H32  1  0.61590000  0.38210000  0.23400000  1
  H  H33  1  0.61590000  0.88210000  0.26600000  1
  H  H34  1  0.66680000  0.00230000  0.66020000  1
  H  H35  1  0.66680000  0.50230000  0.83980000  1
  H  H36  1  0.76220000  0.03950000  0.31560000  1
  H  H37  1  0.76220000  0.53950000  0.18440000  1
  H  H38  1  0.80020000  0.19400000  0.52200000  1
  H  H39  1  0.80020000  0.69400000  0.97800000  1
  H  H40  1  0.81140000  0.27230000  0.00030000  1
  H  H41  1  0.81140000  0.77230000  0.49970000  1
  H  H42  1  0.86640000  0.00220000  0.66330000  1
  H  H43  1  0.86640000  0.50220000  0.83670000  1
  H  H44  1  0.96100000  0.03640000  0.31120000  1
  H  H45  1  0.96100000  0.53640000  0.18880000  1
  H  H46  1  0.99880000  0.19160000  0.52770000  1
  H  H47  1  0.99880000  0.69160000  0.97230000  1
  C  C48  1  0.00529000  0.11223000  0.42000000  1
  C  C49  1  0.00529000  0.61223000  0.08000000  1
  C  C50  1  0.04705000  0.34040000  0.98315000  1
  C  C51  1  0.04705000  0.84040000  0.51685000  1
  C  C52  1  0.06940000  0.43220000  0.85635000  1
  C  C53  1  0.06940000  0.93220000  0.64365000  1
  C  C54  1  0.13497000  0.11106000  0.41934000  1
  C  C55  1  0.13497000  0.61106000  0.08066000  1
  C  C56  1  0.16724000  0.34080000  0.98001000  1
  C  C57  1  0.16724000  0.84080000  0.51999000  1
  C  C58  1  0.18313000  0.04422000  0.37113000  1
  C  C59  1  0.18313000  0.54422000  0.12887000  1
  C  C60  1  0.18960000  0.43000000  0.85964000  1
  C  C61  1  0.18960000  0.93000000  0.64036000  1
  C  C62  1  0.21562000  0.17948000  0.46714000  1
  C  C63  1  0.21562000  0.67948000  0.03286000  1
  C  C64  1  0.26260000  0.23160000  0.18131000  1
  C  C65  1  0.26260000  0.73160000  0.31869000  1
  C  C66  1  0.30362000  0.04464000  0.37283000  1
  C  C67  1  0.30362000  0.54464000  0.12717000  1
  C  C68  1  0.33459000  0.17663000  0.46589000  1
  C  C69  1  0.33459000  0.67663000  0.03411000  1
  C  C70  1  0.38630000  0.20623000  0.16990000  1
  C  C71  1  0.38630000  0.70623000  0.33010000  1
  C  C72  1  0.42480000  0.24620000  0.80978000  1
  C  C73  1  0.42480000  0.74620000  0.69022000  1
  C  C74  1  0.43760000  0.17989000  0.73694000  1
  C  C75  1  0.43760000  0.67989000  0.76306000  1
  C  C76  1  0.48135000  0.30011000  0.17453000  1
  C  C77  1  0.48135000  0.80011000  0.32547000  1
  C  C78  1  0.48254000  0.37721000  0.10559000  1
  C  C79  1  0.48254000  0.87721000  0.39441000  1
  C  C80  1  0.51746000  0.12279000  0.60559000  1
  C  C81  1  0.51746000  0.62279000  0.89441000  1
  C  C82  1  0.51865000  0.19989000  0.67453000  1
  C  C83  1  0.51865000  0.69989000  0.82547000  1
  C  C84  1  0.56240000  0.32011000  0.23694000  1
  C  C85  1  0.56240000  0.82011000  0.26306000  1
  C  C86  1  0.57520000  0.25380000  0.30978000  1
  C  C87  1  0.57520000  0.75380000  0.19022000  1
  C  C88  1  0.61370000  0.29377000  0.66990000  1
  C  C89  1  0.61370000  0.79377000  0.83010000  1
  C  C90  1  0.66541000  0.32337000  0.96589000  1
  C  C91  1  0.66541000  0.82337000  0.53411000  1
  C  C92  1  0.69638000  0.45536000  0.87283000  1
  C  C93  1  0.69638000  0.95536000  0.62717000  1
  C  C94  1  0.73740000  0.26840000  0.68131000  1
  C  C95  1  0.73740000  0.76840000  0.81869000  1
  C  C96  1  0.78438000  0.32052000  0.96714000  1
  C  C97  1  0.78438000  0.82052000  0.53286000  1
  C  C98  1  0.81040000  0.07000000  0.35964000  1
  C  C99  1  0.81040000  0.57000000  0.14036000  1
  C  C100  1  0.81687000  0.45578000  0.87113000  1
  C  C101  1  0.81687000  0.95578000  0.62887000  1
  C  C102  1  0.83276000  0.15920000  0.48001000  1
  C  C103  1  0.83276000  0.65920000  0.01999000  1
  C  C104  1  0.86503000  0.38894000  0.91934000  1
  C  C105  1  0.86503000  0.88894000  0.58066000  1
  C  C106  1  0.93060000  0.06780000  0.35635000  1
  C  C107  1  0.93060000  0.56780000  0.14365000  1
  C  C108  1  0.95295000  0.15960000  0.48315000  1
  C  C109  1  0.95295000  0.65960000  0.01685000  1
  C  C110  1  0.99471000  0.38777000  0.92000000  1
  C  C111  1  0.99471000  0.88777000  0.58000000  1
  N  N112  1  0.23948000  0.38807000  0.92026000  1
  N  N113  1  0.23948000  0.88807000  0.57974000  1
  N  N114  1  0.38010000  0.11064000  0.42072000  1
  N  N115  1  0.38010000  0.61064000  0.07928000  1
  N  N116  1  0.61990000  0.38936000  0.92072000  1
  N  N117  1  0.61990000  0.88936000  0.57928000  1
  N  N118  1  0.76052000  0.11193000  0.42026000  1
  N  N119  1  0.76052000  0.61193000  0.07974000  1
  O  O120  1  0.17526000  0.16124000  0.15627000  1
  O  O121  1  0.17526000  0.66124000  0.34373000  1
  O  O122  1  0.24837000  0.30915000  0.21074000  1
  O  O123  1  0.24837000  0.80915000  0.28926000  1
  O  O124  1  0.41652000  0.21169000  0.88190000  1
  O  O125  1  0.41652000  0.71169000  0.61810000  1
  O  O126  1  0.41717000  0.34827000  0.04266000  1
  O  O127  1  0.41717000  0.84827000  0.45734000  1
  O  O128  1  0.42255000  0.33870000  0.79479000  1
  O  O129  1  0.42255000  0.83870000  0.70521000  1
  O  O130  1  0.45077000  0.03731000  0.61455000  1
  O  O131  1  0.45077000  0.53731000  0.88545000  1
  O  O132  1  0.54923000  0.46269000  0.11455000  1
  O  O133  1  0.54923000  0.96269000  0.38545000  1
  O  O134  1  0.57745000  0.16130000  0.29479000  1
  O  O135  1  0.57745000  0.66130000  0.20521000  1
  O  O136  1  0.58283000  0.15173000  0.54266000  1
  O  O137  1  0.58283000  0.65173000  0.95734000  1
  O  O138  1  0.58348000  0.28831000  0.38190000  1
  O  O139  1  0.58348000  0.78831000  0.11810000  1
  O  O140  1  0.75163000  0.19085000  0.71074000  1
  O  O141  1  0.75163000  0.69085000  0.78926000  1
  O  O142  1  0.82474000  0.33876000  0.65627000  1
  O  O143  1  0.82474000  0.83876000  0.84373000  1
