# generated using pymatgen
data_HoH2C7(NO3)2
_symmetry_space_group_name_H-M   'P 1'
_cell_length_a   7.93750000
_cell_length_b   9.62190000
_cell_length_c   15.82160000
_cell_angle_alpha   90.00000000
_cell_angle_beta   90.00000000
_cell_angle_gamma   96.62500000
_symmetry_Int_Tables_number   1
_chemical_formula_structural   HoH2C7(NO3)2
_chemical_formula_sum   'Ho4 H8 C28 N8 O24'
_cell_volume   1200.28743439
_cell_formula_units_Z   4
loop_
 _symmetry_equiv_pos_site_id
 _symmetry_equiv_pos_as_xyz
  1  'x, y, z'
loop_
 _atom_site_type_symbol
 _atom_site_label
 _atom_site_symmetry_multiplicity
 _atom_site_fract_x
 _atom_site_fract_y
 _atom_site_fract_z
 _atom_site_occupancy
  Ho  Ho0  1  0.07276000  0.86692000  0.67277000  1
  Ho  Ho1  1  0.42724000  0.63308000  0.17277000  1
  Ho  Ho2  1  0.57276000  0.36692000  0.82723000  1
  Ho  Ho3  1  0.92724000  0.13308000  0.32723000  1
  H  H4  1  0.03140000  0.31504000  0.61209000  1
  H  H5  1  0.11737000  0.84707000  0.24853000  1
  H  H6  1  0.38263000  0.65293000  0.74853000  1
  H  H7  1  0.46860000  0.18496000  0.11209000  1
  H  H8  1  0.53140000  0.81504000  0.88791000  1
  H  H9  1  0.61737000  0.34707000  0.25147000  1
  H  H10  1  0.88263000  0.15293000  0.75147000  1
  H  H11  1  0.96860000  0.68496000  0.38791000  1
  C  C12  1  0.06040000  0.42260000  0.41890000  1
  C  C13  1  0.08190000  0.52710000  0.63210000  1
  C  C14  1  0.09120000  0.99010000  0.48500000  1
  C  C15  1  0.10050000  0.38620000  0.64140000  1
  C  C16  1  0.19660000  0.91550000  0.22200000  1
  C  C17  1  0.22530000  0.35270000  0.69500000  1
  C  C18  1  0.24870000  0.29580000  0.21710000  1
  C  C19  1  0.25130000  0.20420000  0.71710000  1
  C  C20  1  0.27470000  0.14730000  0.19500000  1
  C  C21  1  0.30340000  0.58450000  0.72200000  1
  C  C22  1  0.39950000  0.11380000  0.14140000  1
  C  C23  1  0.40880000  0.50990000  0.98500000  1
  C  C24  1  0.41810000  0.97290000  0.13210000  1
  C  C25  1  0.43960000  0.07740000  0.91890000  1
  C  C26  1  0.56040000  0.92260000  0.08110000  1
  C  C27  1  0.58190000  0.02710000  0.86790000  1
  C  C28  1  0.59120000  0.49010000  0.01500000  1
  C  C29  1  0.60050000  0.88620000  0.85860000  1
  C  C30  1  0.69660000  0.41550000  0.27800000  1
  C  C31  1  0.72530000  0.85270000  0.80500000  1
  C  C32  1  0.74870000  0.79580000  0.28290000  1
  C  C33  1  0.75130000  0.70420000  0.78290000  1
  C  C34  1  0.77470000  0.64730000  0.30500000  1
  C  C35  1  0.80340000  0.08450000  0.77800000  1
  C  C36  1  0.89950000  0.61380000  0.35860000  1
  C  C37  1  0.90880000  0.00990000  0.51500000  1
  C  C38  1  0.91810000  0.47290000  0.36790000  1
  C  C39  1  0.93960000  0.57740000  0.58110000  1
  N  N40  1  0.16880000  0.04780000  0.23498000  1
  N  N41  1  0.18280000  0.62570000  0.67276000  1
  N  N42  1  0.31720000  0.87430000  0.17276000  1
  N  N43  1  0.33120000  0.45220000  0.73498000  1
  N  N44  1  0.66880000  0.54780000  0.26502000  1
  N  N45  1  0.68280000  0.12570000  0.82724000  1
  N  N46  1  0.81720000  0.37430000  0.32724000  1
  N  N47  1  0.83120000  0.95220000  0.76502000  1
  O  O48  1  0.05150000  0.29160000  0.42931000  1
  O  O49  1  0.12360000  0.31260000  0.26254000  1
  O  O50  1  0.12730000  0.02260000  0.41026000  1
  O  O51  1  0.14390000  0.10910000  0.68988000  1
  O  O52  1  0.17520000  0.51140000  0.44439000  1
  O  O53  1  0.18700000  0.94360000  0.53773000  1
  O  O54  1  0.31300000  0.55640000  0.03773000  1
  O  O55  1  0.32480000  0.98860000  0.94439000  1
  O  O56  1  0.35610000  0.39090000  0.18988000  1
  O  O57  1  0.37270000  0.47740000  0.91026000  1
  O  O58  1  0.37640000  0.18740000  0.76254000  1
  O  O59  1  0.44850000  0.20840000  0.92931000  1
  O  O60  1  0.55150000  0.79160000  0.07069000  1
  O  O61  1  0.62360000  0.81260000  0.23746000  1
  O  O62  1  0.62730000  0.52260000  0.08974000  1
  O  O63  1  0.64390000  0.60910000  0.81012000  1
  O  O64  1  0.67520000  0.01140000  0.05561000  1
  O  O65  1  0.68700000  0.44360000  0.96227000  1
  O  O66  1  0.81300000  0.05640000  0.46227000  1
  O  O67  1  0.82480000  0.48860000  0.55561000  1
  O  O68  1  0.85610000  0.89090000  0.31012000  1
  O  O69  1  0.87270000  0.97740000  0.58974000  1
  O  O70  1  0.87640000  0.68740000  0.73746000  1
  O  O71  1  0.94850000  0.70840000  0.57069000  1
