# generated using pymatgen
data_Mg3CuH9C21N3O13
_symmetry_space_group_name_H-M   'P 1'
_cell_length_a   13.16960000
_cell_length_b   13.16960000
_cell_length_c   14.79730000
_cell_angle_alpha   90.00000000
_cell_angle_beta   90.00000000
_cell_angle_gamma   120.00000000
_symmetry_Int_Tables_number   1
_chemical_formula_structural   Mg3CuH9C21N3O13
_chemical_formula_sum   'Mg6 Cu2 H18 C42 N6 O26'
_cell_volume   2222.58448895
_cell_formula_units_Z   2
loop_
 _symmetry_equiv_pos_site_id
 _symmetry_equiv_pos_as_xyz
  1  'x, y, z'
loop_
 _atom_site_type_symbol
 _atom_site_label
 _atom_site_symmetry_multiplicity
 _atom_site_fract_x
 _atom_site_fract_y
 _atom_site_fract_z
 _atom_site_occupancy
  Mg  Mg0  1  0.83400000  0.36465000  0.75000000  1
  Mg  Mg1  1  0.63535000  0.46935000  0.75000000  1
  Mg  Mg2  1  0.53065000  0.16600000  0.75000000  1
  Mg  Mg3  1  0.46935000  0.63535000  0.25000000  1
  Mg  Mg4  1  0.36465000  0.83400000  0.25000000  1
  Mg  Mg5  1  0.16600000  0.53065000  0.25000000  1
  Cu  Cu6  1  0.00000000  0.00000000  0.00000000  1
  Cu  Cu7  1  0.00000000  0.00000000  0.50000000  1
  H  H8  1  1.00000000  0.56620000  1.00000000  1
  H  H9  1  1.00000000  0.56620000  0.50000000  1
  H  H10  1  0.89310000  0.12500000  0.90950000  1
  H  H11  1  0.89310000  0.12500000  0.59050000  1
  H  H12  1  0.87500000  0.76810000  0.90950000  1
  H  H13  1  0.87500000  0.76810000  0.59050000  1
  H  H14  1  0.76810000  0.87500000  0.40950000  1
  H  H15  1  0.76810000  0.87500000  0.09050000  1
  H  H16  1  0.56620000  0.00000000  1.00000000  1
  H  H17  1  0.56620000  0.00000000  0.50000000  1
  H  H18  1  0.43380000  0.43380000  1.00000000  1
  H  H19  1  0.43380000  0.43380000  0.50000000  1
  H  H20  1  0.23190000  0.10690000  0.90950000  1
  H  H21  1  0.23190000  0.10690000  0.59050000  1
  H  H22  1  0.12500000  0.89310000  0.40950000  1
  H  H23  1  0.12500000  0.89310000  0.09050000  1
  H  H24  1  0.10690000  0.23190000  0.40950000  1
  H  H25  1  0.10690000  0.23190000  0.09050000  1
  C  C26  1  1.00000000  0.63680000  1.00000000  1
  C  C27  1  1.00000000  0.63680000  0.50000000  1
  C  C28  1  0.92780000  0.65420000  0.94130000  1
  C  C29  1  0.92780000  0.65420000  0.55870000  1
  C  C30  1  0.92760000  0.75910000  0.94570000  1
  C  C31  1  0.92760000  0.75910000  0.55430000  1
  C  C32  1  0.84850000  0.56010000  0.87400000  1
  C  C33  1  0.84850000  0.56010000  0.62600000  1
  C  C34  1  0.83150000  0.07240000  0.94570000  1
  C  C35  1  0.83150000  0.07240000  0.55430000  1
  C  C36  1  0.75910000  0.92760000  0.44570000  1
  C  C37  1  0.75910000  0.92760000  0.05430000  1
  C  C38  1  0.72640000  0.07220000  0.94130000  1
  C  C39  1  0.72640000  0.07220000  0.55870000  1
  C  C40  1  0.71160000  0.15150000  0.87400000  1
  C  C41  1  0.71160000  0.15150000  0.62600000  1
  C  C42  1  0.65420000  0.92780000  0.44130000  1
  C  C43  1  0.65420000  0.92780000  0.05870000  1
  C  C44  1  0.63680000  1.00000000  1.00000000  1
  C  C45  1  0.63680000  1.00000000  0.50000000  1
  C  C46  1  0.56010000  0.84850000  0.37400000  1
  C  C47  1  0.56010000  0.84850000  0.12600000  1
  C  C48  1  0.43990000  0.28840000  0.87400000  1
  C  C49  1  0.43990000  0.28840000  0.62600000  1
  C  C50  1  0.36320000  0.36320000  1.00000000  1
  C  C51  1  0.36320000  0.36320000  0.50000000  1
  C  C52  1  0.34580000  0.27360000  0.94130000  1
  C  C53  1  0.34580000  0.27360000  0.55870000  1
  C  C54  1  0.28840000  0.43990000  0.37400000  1
  C  C55  1  0.28840000  0.43990000  0.12600000  1
  C  C56  1  0.27360000  0.34580000  0.44130000  1
  C  C57  1  0.27360000  0.34580000  0.05870000  1
  C  C58  1  0.24090000  0.16850000  0.94570000  1
  C  C59  1  0.24090000  0.16850000  0.55430000  1
  C  C60  1  0.16850000  0.24090000  0.44570000  1
  C  C61  1  0.16850000  0.24090000  0.05430000  1
  C  C62  1  0.15150000  0.71160000  0.37400000  1
  C  C63  1  0.15150000  0.71160000  0.12600000  1
  C  C64  1  0.07240000  0.83150000  0.44570000  1
  C  C65  1  0.07240000  0.83150000  0.05430000  1
  C  C66  1  0.07220000  0.72640000  0.44130000  1
  C  C67  1  0.07220000  0.72640000  0.05870000  1
  N  N68  1  1.00000000  0.84900000  0.00000000  1
  N  N69  1  1.00000000  0.84900000  0.50000000  1
  N  N70  1  0.84900000  0.00000000  1.00000000  1
  N  N71  1  0.84900000  0.00000000  0.50000000  1
  N  N72  1  0.15100000  0.15100000  1.00000000  1
  N  N73  1  0.15100000  0.15100000  0.50000000  1
  O  O74  1  0.88220000  0.49010000  0.85220000  1
  O  O75  1  0.88220000  0.49010000  0.64780000  1
  O  O76  1  0.80280000  0.23770000  0.84730000  1
  O  O77  1  0.80280000  0.23770000  0.65270000  1
  O  O78  1  0.76230000  0.56510000  0.84730000  1
  O  O79  1  0.76230000  0.56510000  0.65270000  1
  O  O80  1  0.66666667  0.33333333  0.75000000  1
  O  O81  1  0.60790000  0.11780000  0.85220000  1
  O  O82  1  0.60790000  0.11780000  0.64780000  1
  O  O83  1  0.56510000  0.76230000  0.34730000  1
  O  O84  1  0.56510000  0.76230000  0.15270000  1
  O  O85  1  0.50990000  0.39210000  0.85220000  1
  O  O86  1  0.50990000  0.39210000  0.64780000  1
  O  O87  1  0.49010000  0.88220000  0.35220000  1
  O  O88  1  0.49010000  0.88220000  0.14780000  1
  O  O89  1  0.43490000  0.19720000  0.84730000  1
  O  O90  1  0.43490000  0.19720000  0.65270000  1
  O  O91  1  0.39210000  0.50990000  0.35220000  1
  O  O92  1  0.39210000  0.50990000  0.14780000  1
  O  O93  1  0.33333333  0.66666667  0.25000000  1
  O  O94  1  0.23770000  0.80280000  0.34730000  1
  O  O95  1  0.23770000  0.80280000  0.15270000  1
  O  O96  1  0.19720000  0.43490000  0.34730000  1
  O  O97  1  0.19720000  0.43490000  0.15270000  1
  O  O98  1  0.11780000  0.60790000  0.35220000  1
  O  O99  1  0.11780000  0.60790000  0.14780000  1
