# generated using pymatgen
data_Cu19H60(C58N39)2
_symmetry_space_group_name_H-M   'P 1'
_cell_length_a   12.66800000
_cell_length_b   22.77300000
_cell_length_c   22.77300000
_cell_angle_alpha   90.00000000
_cell_angle_beta   90.00000000
_cell_angle_gamma   90.00000000
_symmetry_Int_Tables_number   1
_chemical_formula_structural   Cu19H60(C58N39)2
_chemical_formula_sum   'Cu38 H120 C232 N156'
_cell_volume   6569.74551337
_cell_formula_units_Z   2
loop_
 _symmetry_equiv_pos_site_id
 _symmetry_equiv_pos_as_xyz
  1  'x, y, z'
loop_
 _atom_site_type_symbol
 _atom_site_label
 _atom_site_symmetry_multiplicity
 _atom_site_fract_x
 _atom_site_fract_y
 _atom_site_fract_z
 _atom_site_occupancy
  Cu  Cu0  1  0.50000000  0.00000000  0.00000000  1
  Cu  Cu1  1  0.00000000  1.00000000  0.50000000  1
  Cu  Cu2  1  0.74106000  0.04563000  0.13252000  1
  Cu  Cu3  1  0.83095000  0.05784000  0.68421000  1
  Cu  Cu4  1  0.91497000  0.08873000  0.28910000  1
  Cu  Cu5  1  0.98822000  0.12092000  0.87015000  1
  Cu  Cu6  1  0.48822000  0.12985000  0.62092000  1
  Cu  Cu7  1  0.75894000  0.13252000  0.45437000  1
  Cu  Cu8  1  0.33095000  0.18421000  0.94216000  1
  Cu  Cu9  1  0.58503000  0.21090000  0.08873000  1
  Cu  Cu10  1  0.75000000  0.25000000  0.25000000  1
  Cu  Cu11  1  0.58503000  0.28910000  0.41127000  1
  Cu  Cu12  1  0.33095000  0.31579000  0.55784000  1
  Cu  Cu13  1  0.75894000  0.36748000  0.04563000  1
  Cu  Cu14  1  0.48822000  0.37015000  0.87908000  1
  Cu  Cu15  1  0.98822000  0.37908000  0.62985000  1
  Cu  Cu16  1  0.91497000  0.41127000  0.21090000  1
  Cu  Cu17  1  0.83095000  0.44216000  0.81579000  1
  Cu  Cu18  1  0.74106000  0.45437000  0.36748000  1
  Cu  Cu19  1  1.00000000  0.50000000  0.00000000  1
  Cu  Cu20  1  0.50000000  0.50000000  0.50000000  1
  Cu  Cu21  1  0.25894000  0.54563000  0.63252000  1
  Cu  Cu22  1  0.16905000  0.55784000  0.18421000  1
  Cu  Cu23  1  0.08503000  0.58873000  0.78910000  1
  Cu  Cu24  1  0.01178000  0.62092000  0.37015000  1
  Cu  Cu25  1  0.51178000  0.62985000  0.12092000  1
  Cu  Cu26  1  0.24106000  0.63252000  0.95437000  1
  Cu  Cu27  1  0.66905000  0.68421000  0.44216000  1
  Cu  Cu28  1  0.41497000  0.71090000  0.58873000  1
  Cu  Cu29  1  0.25000000  0.75000000  0.75000000  1
  Cu  Cu30  1  0.41497000  0.78910000  0.91127000  1
  Cu  Cu31  1  0.66905000  0.81579000  0.05784000  1
  Cu  Cu32  1  0.24106000  0.86748000  0.54563000  1
  Cu  Cu33  1  0.51178000  0.87015000  0.37908000  1
  Cu  Cu34  1  0.01178000  0.87908000  0.12985000  1
  Cu  Cu35  1  0.08503000  0.91127000  0.71090000  1
  Cu  Cu36  1  0.16905000  0.94216000  0.31579000  1
  Cu  Cu37  1  0.25894000  0.95437000  0.86748000  1
  H  H38  1  0.45360000  0.00560000  0.41670000  1
  H  H39  1  0.21200000  0.01240000  0.51700000  1
  H  H40  1  0.71200000  0.01700000  0.98760000  1
  H  H41  1  0.43600000  0.02380000  0.69720000  1
  H  H42  1  0.81350000  0.03190000  0.90680000  1
  H  H43  1  0.59480000  0.05470000  0.83160000  1
  H  H44  1  0.26250000  0.05940000  0.19770000  1
  H  H45  1  0.35750000  0.06660000  0.28450000  1
  H  H46  1  0.09290000  0.07210000  0.68180000  1
  H  H47  1  0.52750000  0.07740000  0.28630000  1
  H  H48  1  0.04640000  0.08330000  0.00560000  1
  H  H49  1  0.31350000  0.09320000  0.53190000  1
  H  H50  1  0.24570000  0.09410000  0.82690000  1
  H  H51  1  0.27450000  0.09550000  0.37180000  1
  H  H52  1  0.22550000  0.12820000  0.09550000  1
  H  H53  1  0.22040000  0.14050000  0.66620000  1
  H  H54  1  0.40030000  0.16130000  0.27000000  1
  H  H55  1  0.36730000  0.16610000  0.81080000  1
  H  H56  1  0.72040000  0.16620000  0.85950000  1
  H  H57  1  0.09480000  0.16840000  0.55470000  1
  H  H58  1  0.74570000  0.17310000  0.59410000  1
  H  H59  1  0.59290000  0.18180000  0.92790000  1
  H  H60  1  0.86730000  0.18920000  0.66610000  1
  H  H61  1  0.93600000  0.19720000  0.97620000  1
  H  H62  1  0.23750000  0.19770000  0.44060000  1
  H  H63  1  0.17900000  0.20050000  0.26110000  1
  H  H64  1  0.97250000  0.21370000  0.07740000  1
  H  H65  1  0.14250000  0.21550000  0.06660000  1
  H  H66  1  0.09970000  0.23000000  0.16130000  1
  H  H67  1  0.32100000  0.23890000  0.20050000  1
  H  H68  1  0.32100000  0.26110000  0.29950000  1
  H  H69  1  0.09970000  0.27000000  0.33870000  1
  H  H70  1  0.14250000  0.28450000  0.43340000  1
  H  H71  1  0.97250000  0.28630000  0.42260000  1
  H  H72  1  0.17900000  0.29950000  0.23890000  1
  H  H73  1  0.23750000  0.30230000  0.05940000  1
  H  H74  1  0.93600000  0.30280000  0.52380000  1
  H  H75  1  0.86730000  0.31080000  0.83390000  1
  H  H76  1  0.59290000  0.31820000  0.57210000  1
  H  H77  1  0.74570000  0.32690000  0.90590000  1
  H  H78  1  0.09480000  0.33160000  0.94530000  1
  H  H79  1  0.72040000  0.33380000  0.64050000  1
  H  H80  1  0.36730000  0.33390000  0.68920000  1
  H  H81  1  0.40030000  0.33870000  0.23000000  1
  H  H82  1  0.22040000  0.35950000  0.83380000  1
  H  H83  1  0.22550000  0.37180000  0.40450000  1
  H  H84  1  0.27450000  0.40450000  0.12820000  1
  H  H85  1  0.24570000  0.40590000  0.67310000  1
  H  H86  1  0.31350000  0.40680000  0.96810000  1
  H  H87  1  0.04640000  0.41670000  0.49440000  1
  H  H88  1  0.52750000  0.42260000  0.21370000  1
  H  H89  1  0.09290000  0.42790000  0.81820000  1
  H  H90  1  0.35750000  0.43340000  0.21550000  1
  H  H91  1  0.26250000  0.44060000  0.30230000  1
  H  H92  1  0.59480000  0.44530000  0.66840000  1
  H  H93  1  0.81350000  0.46810000  0.59320000  1
  H  H94  1  0.43600000  0.47620000  0.80280000  1
  H  H95  1  0.71200000  0.48300000  0.51240000  1
  H  H96  1  0.21200000  0.48760000  0.98300000  1
  H  H97  1  0.45360000  0.49440000  0.08330000  1
  H  H98  1  0.54640000  0.50560000  0.91670000  1
  H  H99  1  0.78800000  0.51240000  0.01700000  1
  H  H100  1  0.28800000  0.51700000  0.48760000  1
  H  H101  1  0.56400000  0.52380000  0.19720000  1
  H  H102  1  0.18650000  0.53190000  0.40680000  1
  H  H103  1  0.40520000  0.55470000  0.33160000  1
  H  H104  1  0.73750000  0.55940000  0.69770000  1
  H  H105  1  0.64250000  0.56660000  0.78450000  1
  H  H106  1  0.90710000  0.57210000  0.18180000  1
  H  H107  1  0.47250000  0.57740000  0.78630000  1
  H  H108  1  0.95360000  0.58330000  0.50560000  1
  H  H109  1  0.68650000  0.59320000  0.03190000  1
  H  H110  1  0.75430000  0.59410000  0.32690000  1
  H  H111  1  0.72550000  0.59550000  0.87180000  1
  H  H112  1  0.77450000  0.62820000  0.59550000  1
  H  H113  1  0.77960000  0.64050000  0.16620000  1
  H  H114  1  0.59970000  0.66130000  0.77000000  1
  H  H115  1  0.63270000  0.66610000  0.31080000  1
  H  H116  1  0.27960000  0.66620000  0.35950000  1
  H  H117  1  0.90520000  0.66840000  0.05470000  1
  H  H118  1  0.25430000  0.67310000  0.09410000  1
  H  H119  1  0.40710000  0.68180000  0.42790000  1
  H  H120  1  0.13270000  0.68920000  0.16610000  1
  H  H121  1  0.06400000  0.69720000  0.47620000  1
  H  H122  1  0.76250000  0.69770000  0.94060000  1
  H  H123  1  0.82100000  0.70050000  0.76110000  1
  H  H124  1  0.02750000  0.71370000  0.57740000  1
  H  H125  1  0.85750000  0.71550000  0.56660000  1
  H  H126  1  0.90030000  0.73000000  0.66130000  1
  H  H127  1  0.67900000  0.73890000  0.70050000  1
  H  H128  1  0.67900000  0.76110000  0.79950000  1
  H  H129  1  0.90030000  0.77000000  0.83870000  1
  H  H130  1  0.85750000  0.78450000  0.93340000  1
  H  H131  1  0.02750000  0.78630000  0.92260000  1
  H  H132  1  0.82100000  0.79950000  0.73890000  1
  H  H133  1  0.76250000  0.80230000  0.55940000  1
  H  H134  1  0.06400000  0.80280000  0.02380000  1
  H  H135  1  0.13270000  0.81080000  0.33390000  1
  H  H136  1  0.40710000  0.81820000  0.07210000  1
  H  H137  1  0.25430000  0.82690000  0.40590000  1
  H  H138  1  0.90520000  0.83160000  0.44530000  1
  H  H139  1  0.27960000  0.83380000  0.14050000  1
  H  H140  1  0.63270000  0.83390000  0.18920000  1
  H  H141  1  0.59970000  0.83870000  0.73000000  1
  H  H142  1  0.77960000  0.85950000  0.33380000  1
  H  H143  1  0.77450000  0.87180000  0.90450000  1
  H  H144  1  0.72550000  0.90450000  0.62820000  1
  H  H145  1  0.75430000  0.90590000  0.17310000  1
  H  H146  1  0.68650000  0.90680000  0.46810000  1
  H  H147  1  0.95360000  0.91670000  0.99440000  1
  H  H148  1  0.47250000  0.92260000  0.71370000  1
  H  H149  1  0.90710000  0.92790000  0.31820000  1
  H  H150  1  0.64250000  0.93340000  0.71550000  1
  H  H151  1  0.73750000  0.94060000  0.80230000  1
  H  H152  1  0.40520000  0.94530000  0.16840000  1
  H  H153  1  0.18650000  0.96810000  0.09320000  1
  H  H154  1  0.56400000  0.97620000  0.30280000  1
  H  H155  1  0.28800000  0.98300000  0.01240000  1
  H  H156  1  0.78800000  0.98760000  0.48300000  1
  H  H157  1  0.54640000  0.99440000  0.58330000  1
  C  C158  1  0.52210000  0.00136000  0.43080000  1
  C  C159  1  0.28100000  0.00750000  0.53020000  1
  C  C160  1  0.71070000  0.00885000  0.30197000  1
  C  C161  1  0.45070000  0.01944000  0.84389000  1
  C  C162  1  0.78100000  0.03020000  0.99250000  1
  C  C163  1  0.90690000  0.03310000  0.61590000  1
  C  C164  1  0.36550000  0.03410000  0.69201000  1
  C  C165  1  0.52050000  0.03997000  0.13831000  1
  C  C166  1  0.84140000  0.04010000  0.94370000  1
  C  C167  1  0.58150000  0.05138000  0.44273000  1
  C  C168  1  0.34140000  0.05630000  0.54010000  1
  C  C169  1  0.91850000  0.05727000  0.05138000  1
  C  C170  1  0.16330000  0.06070000  0.68340000  1
  C  C171  1  0.52310000  0.06360000  0.83090000  1
  C  C172  1  0.95580000  0.06406000  0.11115000  1
  C  C173  1  0.22890000  0.06820000  0.23290000  1
  C  C174  1  0.97790000  0.06920000  0.00136000  1
  C  C175  1  0.68530000  0.06965000  0.29052000  1
  C  C176  1  0.04340000  0.07200000  0.18788000  1
  C  C177  1  0.89550000  0.07310000  0.75830000  1
  C  C178  1  0.28530000  0.07380000  0.28470000  1
  C  C179  1  0.68220000  0.07440000  0.67300000  1
  C  C180  1  0.12080000  0.07620000  0.23546000  1
  C  C181  1  0.31710000  0.08480000  0.82890000  1
  C  C182  1  0.23620000  0.09000000  0.33740000  1
  C  C183  1  0.12660000  0.09750000  0.33550000  1
  C  C184  1  0.24040000  0.10220000  0.67500000  1
  C  C185  1  0.54420000  0.11115000  0.43594000  1
  C  C186  1  0.05620000  0.11320000  0.38371000  1
  C  C187  1  0.40690000  0.11590000  0.96690000  1
  C  C188  1  0.44380000  0.11629000  0.11320000  1
  C  C189  1  0.39070000  0.12810000  0.81810000  1
  C  C190  1  0.97950000  0.13831000  0.46003000  1
  C  C191  1  0.61390000  0.15003000  0.27390000  1
  C  C192  1  0.95070000  0.15611000  0.51944000  1
  C  C193  1  0.26380000  0.16260000  0.09000000  1
  C  C194  1  0.37340000  0.16450000  0.09750000  1
  C  C195  1  0.02310000  0.16910000  0.56360000  1
  C  C196  1  0.81710000  0.17110000  0.58480000  1
  C  C197  1  0.18220000  0.17300000  0.92560000  1
  C  C198  1  0.74040000  0.17500000  0.89780000  1
  C  C199  1  0.89070000  0.18190000  0.62810000  1
  C  C200  1  0.66330000  0.18340000  0.93930000  1
  C  C201  1  0.45660000  0.18788000  0.42800000  1
  C  C202  1  0.86550000  0.19201000  0.96590000  1
  C  C203  1  0.78930000  0.19803000  0.00885000  1
  C  C204  1  0.43690000  0.19830000  0.26170000  1
  C  C205  1  0.54430000  0.19980000  0.26210000  1
  C  C206  1  0.81470000  0.20948000  0.06965000  1
  C  C207  1  0.21470000  0.21530000  0.07380000  1
  C  C208  1  0.11660000  0.22530000  0.25550000  1
  C  C209  1  0.88610000  0.22610000  0.15003000  1
  C  C210  1  0.27110000  0.23290000  0.43180000  1
  C  C211  1  0.37920000  0.23546000  0.42380000  1
  C  C212  1  0.95570000  0.23790000  0.19980000  1
  C  C213  1  0.06310000  0.23830000  0.19830000  1
  C  C214  1  0.39550000  0.24170000  0.57310000  1
  C  C215  1  0.38340000  0.24450000  0.22530000  1
  C  C216  1  0.38340000  0.25550000  0.27470000  1
  C  C217  1  0.39550000  0.25830000  0.92690000  1
  C  C218  1  0.06310000  0.26170000  0.30170000  1
  C  C219  1  0.95570000  0.26210000  0.30020000  1
  C  C220  1  0.37920000  0.26454000  0.07620000  1
  C  C221  1  0.27110000  0.26710000  0.06820000  1
  C  C222  1  0.88610000  0.27390000  0.34997000  1
  C  C223  1  0.11660000  0.27470000  0.24450000  1
  C  C224  1  0.21470000  0.28470000  0.42620000  1
  C  C225  1  0.81470000  0.29052000  0.43035000  1
  C  C226  1  0.54430000  0.30020000  0.23790000  1
  C  C227  1  0.43690000  0.30170000  0.23830000  1
  C  C228  1  0.78930000  0.30197000  0.49115000  1
  C  C229  1  0.86550000  0.30799000  0.53410000  1
  C  C230  1  0.45660000  0.31212000  0.07200000  1
  C  C231  1  0.66330000  0.31660000  0.56070000  1
  C  C232  1  0.89070000  0.31810000  0.87190000  1
  C  C233  1  0.74040000  0.32500000  0.60220000  1
  C  C234  1  0.18220000  0.32700000  0.57440000  1
  C  C235  1  0.81710000  0.32890000  0.91520000  1
  C  C236  1  0.02310000  0.33090000  0.93640000  1
  C  C237  1  0.37340000  0.33550000  0.40250000  1
  C  C238  1  0.26380000  0.33740000  0.41000000  1
  C  C239  1  0.95070000  0.34389000  0.98056000  1
  C  C240  1  0.61390000  0.34997000  0.22610000  1
  C  C241  1  0.97950000  0.36169000  0.03997000  1
  C  C242  1  0.39070000  0.37190000  0.68190000  1
  C  C243  1  0.44380000  0.38371000  0.38680000  1
  C  C244  1  0.40690000  0.38410000  0.53310000  1
  C  C245  1  0.05620000  0.38680000  0.11629000  1
  C  C246  1  0.54420000  0.38885000  0.06406000  1
  C  C247  1  0.24040000  0.39780000  0.82500000  1
  C  C248  1  0.12660000  0.40250000  0.16450000  1
  C  C249  1  0.23620000  0.41000000  0.16260000  1
  C  C250  1  0.31710000  0.41520000  0.67110000  1
  C  C251  1  0.12080000  0.42380000  0.26454000  1
  C  C252  1  0.68220000  0.42560000  0.82700000  1
  C  C253  1  0.28530000  0.42620000  0.21530000  1
  C  C254  1  0.89550000  0.42690000  0.74170000  1
  C  C255  1  0.04340000  0.42800000  0.31212000  1
  C  C256  1  0.68530000  0.43035000  0.20948000  1
  C  C257  1  0.97790000  0.43080000  0.49864000  1
  C  C258  1  0.22890000  0.43180000  0.26710000  1
  C  C259  1  0.95580000  0.43594000  0.38885000  1
  C  C260  1  0.52310000  0.43640000  0.66910000  1
  C  C261  1  0.16330000  0.43930000  0.81660000  1
  C  C262  1  0.91850000  0.44273000  0.44862000  1
  C  C263  1  0.34140000  0.44370000  0.95990000  1
  C  C264  1  0.58150000  0.44862000  0.05727000  1
  C  C265  1  0.84140000  0.45990000  0.55630000  1
  C  C266  1  0.52050000  0.46003000  0.36169000  1
  C  C267  1  0.36550000  0.46590000  0.80799000  1
  C  C268  1  0.90690000  0.46690000  0.88410000  1
  C  C269  1  0.78100000  0.46980000  0.50750000  1
  C  C270  1  0.45070000  0.48056000  0.65611000  1
  C  C271  1  0.71070000  0.49115000  0.19803000  1
  C  C272  1  0.28100000  0.49250000  0.96980000  1
  C  C273  1  0.52210000  0.49864000  0.06920000  1
  C  C274  1  0.47790000  0.50136000  0.93080000  1
  C  C275  1  0.71900000  0.50750000  0.03020000  1
  C  C276  1  0.28930000  0.50885000  0.80197000  1
  C  C277  1  0.54930000  0.51944000  0.34389000  1
  C  C278  1  0.21900000  0.53020000  0.49250000  1
  C  C279  1  0.09310000  0.53310000  0.11590000  1
  C  C280  1  0.63450000  0.53410000  0.19201000  1
  C  C281  1  0.47950000  0.53997000  0.63831000  1
  C  C282  1  0.15860000  0.54010000  0.44370000  1
  C  C283  1  0.41850000  0.55138000  0.94273000  1
  C  C284  1  0.65860000  0.55630000  0.04010000  1
  C  C285  1  0.08150000  0.55727000  0.55138000  1
  C  C286  1  0.83670000  0.56070000  0.18340000  1
  C  C287  1  0.47690000  0.56360000  0.33090000  1
  C  C288  1  0.04420000  0.56406000  0.61115000  1
  C  C289  1  0.77110000  0.56820000  0.73290000  1
  C  C290  1  0.02210000  0.56920000  0.50136000  1
  C  C291  1  0.31470000  0.56965000  0.79052000  1
  C  C292  1  0.95660000  0.57200000  0.68788000  1
  C  C293  1  0.10450000  0.57310000  0.25830000  1
  C  C294  1  0.71470000  0.57380000  0.78470000  1
  C  C295  1  0.31780000  0.57440000  0.17300000  1
  C  C296  1  0.87920000  0.57620000  0.73546000  1
  C  C297  1  0.68290000  0.58480000  0.32890000  1
  C  C298  1  0.76380000  0.59000000  0.83740000  1
  C  C299  1  0.87340000  0.59750000  0.83550000  1
  C  C300  1  0.75960000  0.60220000  0.17500000  1
  C  C301  1  0.45580000  0.61115000  0.93594000  1
  C  C302  1  0.94380000  0.61320000  0.88371000  1
  C  C303  1  0.59310000  0.61590000  0.46690000  1
  C  C304  1  0.55620000  0.61629000  0.61320000  1
  C  C305  1  0.60930000  0.62810000  0.31810000  1
  C  C306  1  0.02050000  0.63831000  0.96003000  1
  C  C307  1  0.38610000  0.65003000  0.77390000  1
  C  C308  1  0.04930000  0.65611000  0.01944000  1
  C  C309  1  0.73620000  0.66260000  0.59000000  1
  C  C310  1  0.62660000  0.66450000  0.59750000  1
  C  C311  1  0.97690000  0.66910000  0.06360000  1
  C  C312  1  0.18290000  0.67110000  0.08480000  1
  C  C313  1  0.81780000  0.67300000  0.42560000  1
  C  C314  1  0.25960000  0.67500000  0.39780000  1
  C  C315  1  0.10930000  0.68190000  0.12810000  1
  C  C316  1  0.33670000  0.68340000  0.43930000  1
  C  C317  1  0.54340000  0.68788000  0.92800000  1
  C  C318  1  0.13450000  0.69201000  0.46590000  1
  C  C319  1  0.21070000  0.69803000  0.50885000  1
  C  C320  1  0.56310000  0.69830000  0.76170000  1
  C  C321  1  0.45570000  0.69980000  0.76210000  1
  C  C322  1  0.18530000  0.70948000  0.56965000  1
  C  C323  1  0.78530000  0.71530000  0.57380000  1
  C  C324  1  0.88340000  0.72530000  0.75550000  1
  C  C325  1  0.11390000  0.72610000  0.65003000  1
  C  C326  1  0.72890000  0.73290000  0.93180000  1
  C  C327  1  0.62080000  0.73546000  0.92380000  1
  C  C328  1  0.04430000  0.73790000  0.69980000  1
  C  C329  1  0.93690000  0.73830000  0.69830000  1
  C  C330  1  0.60450000  0.74170000  0.07310000  1
  C  C331  1  0.61660000  0.74450000  0.72530000  1
  C  C332  1  0.61660000  0.75550000  0.77470000  1
  C  C333  1  0.60450000  0.75830000  0.42690000  1
  C  C334  1  0.93690000  0.76170000  0.80170000  1
  C  C335  1  0.04430000  0.76210000  0.80020000  1
  C  C336  1  0.62080000  0.76454000  0.57620000  1
  C  C337  1  0.72890000  0.76710000  0.56820000  1
  C  C338  1  0.11390000  0.77390000  0.84997000  1
  C  C339  1  0.88340000  0.77470000  0.74450000  1
  C  C340  1  0.78530000  0.78470000  0.92620000  1
  C  C341  1  0.18530000  0.79052000  0.93035000  1
  C  C342  1  0.45570000  0.80020000  0.73790000  1
  C  C343  1  0.56310000  0.80170000  0.73830000  1
  C  C344  1  0.21070000  0.80197000  0.99115000  1
  C  C345  1  0.13450000  0.80799000  0.03410000  1
  C  C346  1  0.54340000  0.81212000  0.57200000  1
  C  C347  1  0.33670000  0.81660000  0.06070000  1
  C  C348  1  0.10930000  0.81810000  0.37190000  1
  C  C349  1  0.25960000  0.82500000  0.10220000  1
  C  C350  1  0.81780000  0.82700000  0.07440000  1
  C  C351  1  0.18290000  0.82890000  0.41520000  1
  C  C352  1  0.97690000  0.83090000  0.43640000  1
  C  C353  1  0.62660000  0.83550000  0.90250000  1
  C  C354  1  0.73620000  0.83740000  0.91000000  1
  C  C355  1  0.04930000  0.84389000  0.48056000  1
  C  C356  1  0.38610000  0.84997000  0.72610000  1
  C  C357  1  0.02050000  0.86169000  0.53997000  1
  C  C358  1  0.60930000  0.87190000  0.18190000  1
  C  C359  1  0.55620000  0.88371000  0.88680000  1
  C  C360  1  0.59310000  0.88410000  0.03310000  1
  C  C361  1  0.94380000  0.88680000  0.61629000  1
  C  C362  1  0.45580000  0.88885000  0.56406000  1
  C  C363  1  0.75960000  0.89780000  0.32500000  1
  C  C364  1  0.87340000  0.90250000  0.66450000  1
  C  C365  1  0.76380000  0.91000000  0.66260000  1
  C  C366  1  0.68290000  0.91520000  0.17110000  1
  C  C367  1  0.87920000  0.92380000  0.76454000  1
  C  C368  1  0.31780000  0.92560000  0.32700000  1
  C  C369  1  0.71470000  0.92620000  0.71530000  1
  C  C370  1  0.10450000  0.92690000  0.24170000  1
  C  C371  1  0.95660000  0.92800000  0.81212000  1
  C  C372  1  0.31470000  0.93035000  0.70948000  1
  C  C373  1  0.02210000  0.93080000  0.99864000  1
  C  C374  1  0.77110000  0.93180000  0.76710000  1
  C  C375  1  0.04420000  0.93594000  0.88885000  1
  C  C376  1  0.47690000  0.93640000  0.16910000  1
  C  C377  1  0.83670000  0.93930000  0.31660000  1
  C  C378  1  0.08150000  0.94273000  0.94862000  1
  C  C379  1  0.65860000  0.94370000  0.45990000  1
  C  C380  1  0.41850000  0.94862000  0.55727000  1
  C  C381  1  0.15860000  0.95990000  0.05630000  1
  C  C382  1  0.47950000  0.96003000  0.86169000  1
  C  C383  1  0.63450000  0.96590000  0.30799000  1
  C  C384  1  0.09310000  0.96690000  0.38410000  1
  C  C385  1  0.21900000  0.96980000  0.00750000  1
  C  C386  1  0.54930000  0.98056000  0.15611000  1
  C  C387  1  0.28930000  0.99115000  0.69803000  1
  C  C388  1  0.71900000  0.99250000  0.46980000  1
  C  C389  1  0.47790000  0.99864000  0.56920000  1
  N  N390  1  0.18620000  0.00446000  0.69368000  1
  N  N391  1  0.94650000  0.02110000  0.57240000  1
  N  N392  1  0.34570000  0.02994000  0.84223000  1
  N  N393  1  0.81760000  0.03878000  0.04710000  1
  N  N394  1  0.68240000  0.04710000  0.46122000  1
  N  N395  1  0.43940000  0.05235000  0.56107000  1
  N  N396  1  0.93940000  0.06107000  0.94765000  1
  N  N397  1  0.42200000  0.06147000  0.12989000  1
  N  N398  1  0.88480000  0.06634000  0.15491000  1
  N  N399  1  0.05750000  0.06782000  0.13001000  1
  N  N400  1  0.94140000  0.07176000  0.20458000  1
  N  N401  1  0.44650000  0.07240000  0.97890000  1
  N  N402  1  0.59770000  0.07898000  0.12803000  1
  N  N403  1  0.07250000  0.08872000  0.28594000  1
  N  N404  1  0.93100000  0.08900000  0.79990000  1
  N  N405  1  0.34250000  0.08978000  0.67912000  1
  N  N406  1  0.60670000  0.09310000  0.65870000  1
  N  N407  1  0.58870000  0.09371000  0.28422000  1
  N  N408  1  0.76360000  0.10916000  0.28469000  1
  N  N409  1  0.95160000  0.11195000  0.37127000  1
  N  N410  1  0.49370000  0.11750000  0.81780000  1
  N  N411  1  0.90230000  0.12803000  0.42102000  1
  N  N412  1  0.54840000  0.12873000  0.11195000  1
  N  N413  1  0.07800000  0.12989000  0.43853000  1
  N  N414  1  0.44250000  0.13001000  0.43218000  1
  N  N415  1  0.61520000  0.15491000  0.43366000  1
  N  N416  1  0.84570000  0.15777000  0.52994000  1
  N  N417  1  0.10670000  0.15870000  0.90690000  1
  N  N418  1  0.71720000  0.16112000  0.27390000  1
  N  N419  1  0.84250000  0.17912000  0.91022000  1
  N  N420  1  0.99370000  0.18220000  0.61750000  1
  N  N421  1  0.68620000  0.19368000  0.99554000  1
  N  N422  1  0.43100000  0.20010000  0.58900000  1
  N  N423  1  0.55860000  0.20458000  0.42824000  1
  N  N424  1  0.42750000  0.21406000  0.08872000  1
  N  N425  1  0.73640000  0.21531000  0.10916000  1
  N  N426  1  0.91130000  0.21578000  0.09371000  1
  N  N427  1  0.78280000  0.22610000  0.16112000  1
  N  N428  1  0.59430000  0.25000000  0.25000000  1
  N  N429  1  0.90570000  0.25000000  0.25000000  1
  N  N430  1  0.78280000  0.27390000  0.33888000  1
  N  N431  1  0.91130000  0.28422000  0.40629000  1
  N  N432  1  0.73640000  0.28469000  0.39084000  1
  N  N433  1  0.42750000  0.28594000  0.41128000  1
  N  N434  1  0.55860000  0.29542000  0.07176000  1
  N  N435  1  0.43100000  0.29990000  0.91100000  1
  N  N436  1  0.68620000  0.30632000  0.50446000  1
  N  N437  1  0.99370000  0.31780000  0.88250000  1
  N  N438  1  0.84250000  0.32088000  0.58978000  1
  N  N439  1  0.71720000  0.33888000  0.22610000  1
  N  N440  1  0.10670000  0.34130000  0.59310000  1
  N  N441  1  0.84570000  0.34223000  0.97006000  1
  N  N442  1  0.61520000  0.34509000  0.06634000  1
  N  N443  1  0.44250000  0.36999000  0.06782000  1
  N  N444  1  0.07800000  0.37011000  0.06147000  1
  N  N445  1  0.54840000  0.37127000  0.38805000  1
  N  N446  1  0.90230000  0.37197000  0.07898000  1
  N  N447  1  0.49370000  0.38250000  0.68220000  1
  N  N448  1  0.95160000  0.38805000  0.12873000  1
  N  N449  1  0.76360000  0.39084000  0.21531000  1
  N  N450  1  0.58870000  0.40629000  0.21578000  1
  N  N451  1  0.60670000  0.40690000  0.84130000  1
  N  N452  1  0.34250000  0.41022000  0.82088000  1
  N  N453  1  0.93100000  0.41100000  0.70010000  1
  N  N454  1  0.07250000  0.41128000  0.21406000  1
  N  N455  1  0.59770000  0.42102000  0.37197000  1
  N  N456  1  0.44650000  0.42760000  0.52110000  1
  N  N457  1  0.94140000  0.42824000  0.29542000  1
  N  N458  1  0.05750000  0.43218000  0.36999000  1
  N  N459  1  0.88480000  0.43366000  0.34509000  1
  N  N460  1  0.42200000  0.43853000  0.37011000  1
  N  N461  1  0.93940000  0.43893000  0.55235000  1
  N  N462  1  0.43940000  0.44765000  0.93893000  1
  N  N463  1  0.68240000  0.45290000  0.03878000  1
  N  N464  1  0.81760000  0.46122000  0.45290000  1
  N  N465  1  0.34570000  0.47006000  0.65777000  1
  N  N466  1  0.94650000  0.47890000  0.92760000  1
  N  N467  1  0.18620000  0.49554000  0.80632000  1
  N  N468  1  0.81380000  0.50446000  0.19368000  1
  N  N469  1  0.05350000  0.52110000  0.07240000  1
  N  N470  1  0.65430000  0.52994000  0.34223000  1
  N  N471  1  0.18240000  0.53878000  0.54710000  1
  N  N472  1  0.31760000  0.54710000  0.96122000  1
  N  N473  1  0.56060000  0.55235000  0.06107000  1
  N  N474  1  0.06060000  0.56107000  0.44765000  1
  N  N475  1  0.57800000  0.56147000  0.62989000  1
  N  N476  1  0.11520000  0.56634000  0.65491000  1
  N  N477  1  0.94250000  0.56782000  0.63001000  1
  N  N478  1  0.05860000  0.57176000  0.70458000  1
  N  N479  1  0.55350000  0.57240000  0.47890000  1
  N  N480  1  0.40230000  0.57898000  0.62803000  1
  N  N481  1  0.92750000  0.58872000  0.78594000  1
  N  N482  1  0.06900000  0.58900000  0.29990000  1
  N  N483  1  0.65750000  0.58978000  0.17912000  1
  N  N484  1  0.39330000  0.59310000  0.15870000  1
  N  N485  1  0.41130000  0.59371000  0.78422000  1
  N  N486  1  0.23640000  0.60916000  0.78469000  1
  N  N487  1  0.04840000  0.61195000  0.87127000  1
  N  N488  1  0.50630000  0.61750000  0.31780000  1
  N  N489  1  0.09770000  0.62803000  0.92102000  1
  N  N490  1  0.45160000  0.62873000  0.61195000  1
  N  N491  1  0.92200000  0.62989000  0.93853000  1
  N  N492  1  0.55750000  0.63001000  0.93218000  1
  N  N493  1  0.38480000  0.65491000  0.93366000  1
  N  N494  1  0.15430000  0.65777000  0.02994000  1
  N  N495  1  0.89330000  0.65870000  0.40690000  1
  N  N496  1  0.28280000  0.66112000  0.77390000  1
  N  N497  1  0.15750000  0.67912000  0.41022000  1
  N  N498  1  0.00630000  0.68220000  0.11750000  1
  N  N499  1  0.31380000  0.69368000  0.49554000  1
  N  N500  1  0.56900000  0.70010000  0.08900000  1
  N  N501  1  0.44140000  0.70458000  0.92824000  1
  N  N502  1  0.57250000  0.71406000  0.58872000  1
  N  N503  1  0.26360000  0.71531000  0.60916000  1
  N  N504  1  0.08870000  0.71578000  0.59371000  1
  N  N505  1  0.21720000  0.72610000  0.66112000  1
  N  N506  1  0.09430000  0.75000000  0.75000000  1
  N  N507  1  0.40570000  0.75000000  0.75000000  1
  N  N508  1  0.21720000  0.77390000  0.83888000  1
  N  N509  1  0.08870000  0.78422000  0.90629000  1
  N  N510  1  0.26360000  0.78469000  0.89084000  1
  N  N511  1  0.57250000  0.78594000  0.91128000  1
  N  N512  1  0.44140000  0.79542000  0.57176000  1
  N  N513  1  0.56900000  0.79990000  0.41100000  1
  N  N514  1  0.31380000  0.80632000  0.00446000  1
  N  N515  1  0.00630000  0.81780000  0.38250000  1
  N  N516  1  0.15750000  0.82088000  0.08978000  1
  N  N517  1  0.28280000  0.83888000  0.72610000  1
  N  N518  1  0.89330000  0.84130000  0.09310000  1
  N  N519  1  0.15430000  0.84223000  0.47006000  1
  N  N520  1  0.38480000  0.84509000  0.56634000  1
  N  N521  1  0.55750000  0.86999000  0.56782000  1
  N  N522  1  0.92200000  0.87011000  0.56147000  1
  N  N523  1  0.45160000  0.87127000  0.88805000  1
  N  N524  1  0.09770000  0.87197000  0.57898000  1
  N  N525  1  0.50630000  0.88250000  0.18220000  1
  N  N526  1  0.04840000  0.88805000  0.62873000  1
  N  N527  1  0.23640000  0.89084000  0.71531000  1
  N  N528  1  0.41130000  0.90629000  0.71578000  1
  N  N529  1  0.39330000  0.90690000  0.34130000  1
  N  N530  1  0.65750000  0.91022000  0.32088000  1
  N  N531  1  0.06900000  0.91100000  0.20010000  1
  N  N532  1  0.92750000  0.91128000  0.71406000  1
  N  N533  1  0.40230000  0.92102000  0.87197000  1
  N  N534  1  0.55350000  0.92760000  0.02110000  1
  N  N535  1  0.05860000  0.92824000  0.79542000  1
  N  N536  1  0.94250000  0.93218000  0.86999000  1
  N  N537  1  0.11520000  0.93366000  0.84509000  1
  N  N538  1  0.57800000  0.93853000  0.87011000  1
  N  N539  1  0.06060000  0.93893000  0.05235000  1
  N  N540  1  0.56060000  0.94765000  0.43893000  1
  N  N541  1  0.31760000  0.95290000  0.53878000  1
  N  N542  1  0.18240000  0.96122000  0.95290000  1
  N  N543  1  0.65430000  0.97006000  0.15777000  1
  N  N544  1  0.05350000  0.97890000  0.42760000  1
  N  N545  1  0.81380000  0.99554000  0.30632000  1
