# generated using pymatgen
data_CeU2(C6O7)2
_symmetry_space_group_name_H-M   'P 1'
_cell_length_a   11.61820000
_cell_length_b   13.11340000
_cell_length_c   15.58870000
_cell_angle_alpha   90.00000000
_cell_angle_beta   90.00000000
_cell_angle_gamma   90.00000000
_symmetry_Int_Tables_number   1
_chemical_formula_structural   CeU2(C6O7)2
_chemical_formula_sum   'Ce4 U8 C48 O56'
_cell_volume   2375.00241915
_cell_formula_units_Z   4
loop_
 _symmetry_equiv_pos_site_id
 _symmetry_equiv_pos_as_xyz
  1  'x, y, z'
loop_
 _atom_site_type_symbol
 _atom_site_label
 _atom_site_symmetry_multiplicity
 _atom_site_fract_x
 _atom_site_fract_y
 _atom_site_fract_z
 _atom_site_occupancy
  Ce  Ce0  1  0.75000000  0.06121000  0.71365000  1
  Ce  Ce1  1  0.75000000  0.43879000  0.21365000  1
  Ce  Ce2  1  0.25000000  0.56121000  0.78635000  1
  Ce  Ce3  1  0.25000000  0.93879000  0.28635000  1
  U  U4  1  0.00000000  0.00000000  0.00000000  1
  U  U5  1  0.00000000  0.50000000  0.50000000  1
  U  U6  1  0.75000000  0.34295000  0.75300000  1
  U  U7  1  0.75000000  0.15705000  0.25300000  1
  U  U8  1  0.50000000  0.50000000  0.50000000  1
  U  U9  1  0.50000000  0.00000000  0.00000000  1
  U  U10  1  0.25000000  0.84295000  0.74700000  1
  U  U11  1  0.25000000  0.65705000  0.24700000  1
  C  C12  1  0.99920000  0.21950000  0.73390000  1
  C  C13  1  0.99920000  0.28050000  0.23390000  1
  C  C14  1  0.87410000  0.56630000  0.67280000  1
  C  C15  1  0.87410000  0.93370000  0.17280000  1
  C  C16  1  0.87340000  0.88120000  0.85500000  1
  C  C17  1  0.87340000  0.61880000  0.35500000  1
  C  C18  1  0.87020000  0.71890000  0.76860000  1
  C  C19  1  0.87020000  0.78110000  0.26860000  1
  C  C20  1  0.81020000  0.79710000  0.80920000  1
  C  C21  1  0.81020000  0.70290000  0.30920000  1
  C  C22  1  0.80980000  0.64040000  0.72770000  1
  C  C23  1  0.80980000  0.85960000  0.22770000  1
  C  C24  1  0.69020000  0.64040000  0.72770000  1
  C  C25  1  0.69020000  0.85960000  0.22770000  1
  C  C26  1  0.68980000  0.79710000  0.80920000  1
  C  C27  1  0.68980000  0.70290000  0.30920000  1
  C  C28  1  0.62980000  0.71890000  0.76860000  1
  C  C29  1  0.62980000  0.78110000  0.26860000  1
  C  C30  1  0.62660000  0.88120000  0.85500000  1
  C  C31  1  0.62660000  0.61880000  0.35500000  1
  C  C32  1  0.62590000  0.56630000  0.67280000  1
  C  C33  1  0.62590000  0.93370000  0.17280000  1
  C  C34  1  0.50080000  0.21950000  0.73390000  1
  C  C35  1  0.50080000  0.28050000  0.23390000  1
  C  C36  1  0.49920000  0.71950000  0.76610000  1
  C  C37  1  0.49920000  0.78050000  0.26610000  1
  C  C38  1  0.37410000  0.06630000  0.82720000  1
  C  C39  1  0.37410000  0.43370000  0.32720000  1
  C  C40  1  0.37340000  0.38120000  0.64500000  1
  C  C41  1  0.37340000  0.11880000  0.14500000  1
  C  C42  1  0.37020000  0.21890000  0.73140000  1
  C  C43  1  0.37020000  0.28110000  0.23140000  1
  C  C44  1  0.31020000  0.29710000  0.69080000  1
  C  C45  1  0.31020000  0.20290000  0.19080000  1
  C  C46  1  0.30980000  0.14040000  0.77230000  1
  C  C47  1  0.30980000  0.35960000  0.27230000  1
  C  C48  1  0.19020000  0.14040000  0.77230000  1
  C  C49  1  0.19020000  0.35960000  0.27230000  1
  C  C50  1  0.18980000  0.29710000  0.69080000  1
  C  C51  1  0.18980000  0.20290000  0.19080000  1
  C  C52  1  0.12980000  0.21890000  0.73140000  1
  C  C53  1  0.12980000  0.28110000  0.23140000  1
  C  C54  1  0.12660000  0.38120000  0.64500000  1
  C  C55  1  0.12660000  0.11880000  0.14500000  1
  C  C56  1  0.12590000  0.06630000  0.82720000  1
  C  C57  1  0.12590000  0.43370000  0.32720000  1
  C  C58  1  0.00080000  0.71950000  0.76610000  1
  C  C59  1  0.00080000  0.78050000  0.26610000  1
  O  O60  1  0.95300000  0.30070000  0.76140000  1
  O  O61  1  0.95300000  0.19930000  0.26140000  1
  O  O62  1  0.94860000  0.14100000  0.70900000  1
  O  O63  1  0.94860000  0.35900000  0.20900000  1
  O  O64  1  0.93110000  0.60480000  0.61230000  1
  O  O65  1  0.93110000  0.89520000  0.11230000  1
  O  O66  1  0.92530000  0.85740000  0.92320000  1
  O  O67  1  0.92530000  0.64260000  0.42320000  1
  O  O68  1  0.87080000  0.96970000  0.82620000  1
  O  O69  1  0.87080000  0.53030000  0.32620000  1
  O  O70  1  0.86810000  0.47240000  0.68550000  1
  O  O71  1  0.86810000  0.02760000  0.18550000  1
  O  O72  1  0.75000000  0.19230000  0.82210000  1
  O  O73  1  0.75000000  0.26640000  0.65890000  1
  O  O74  1  0.75000000  0.30770000  0.32210000  1
  O  O75  1  0.75000000  0.23360000  0.15890000  1
  O  O76  1  0.63190000  0.47240000  0.68550000  1
  O  O77  1  0.63190000  0.02760000  0.18550000  1
  O  O78  1  0.62920000  0.96970000  0.82620000  1
  O  O79  1  0.62920000  0.53030000  0.32620000  1
  O  O80  1  0.57470000  0.85740000  0.92320000  1
  O  O81  1  0.57470000  0.64260000  0.42320000  1
  O  O82  1  0.56890000  0.60480000  0.61230000  1
  O  O83  1  0.56890000  0.89520000  0.11230000  1
  O  O84  1  0.55140000  0.14100000  0.70900000  1
  O  O85  1  0.55140000  0.35900000  0.20900000  1
  O  O86  1  0.54700000  0.30070000  0.76140000  1
  O  O87  1  0.54700000  0.19930000  0.26140000  1
  O  O88  1  0.45300000  0.80070000  0.73860000  1
  O  O89  1  0.45300000  0.69930000  0.23860000  1
  O  O90  1  0.44860000  0.64100000  0.79100000  1
  O  O91  1  0.44860000  0.85900000  0.29100000  1
  O  O92  1  0.43110000  0.10480000  0.88770000  1
  O  O93  1  0.43110000  0.39520000  0.38770000  1
  O  O94  1  0.42530000  0.35740000  0.57680000  1
  O  O95  1  0.42530000  0.14260000  0.07680000  1
  O  O96  1  0.37080000  0.46970000  0.67380000  1
  O  O97  1  0.37080000  0.03030000  0.17380000  1
  O  O98  1  0.36810000  0.97240000  0.81450000  1
  O  O99  1  0.36810000  0.52760000  0.31450000  1
  O  O100  1  0.25000000  0.76640000  0.84110000  1
  O  O101  1  0.25000000  0.69230000  0.67790000  1
  O  O102  1  0.25000000  0.73360000  0.34110000  1
  O  O103  1  0.25000000  0.80770000  0.17790000  1
  O  O104  1  0.13190000  0.97240000  0.81450000  1
  O  O105  1  0.13190000  0.52760000  0.31450000  1
  O  O106  1  0.12920000  0.46970000  0.67380000  1
  O  O107  1  0.12920000  0.03030000  0.17380000  1
  O  O108  1  0.07470000  0.35740000  0.57680000  1
  O  O109  1  0.07470000  0.14260000  0.07680000  1
  O  O110  1  0.06890000  0.10480000  0.88770000  1
  O  O111  1  0.06890000  0.39520000  0.38770000  1
  O  O112  1  0.05140000  0.64100000  0.79100000  1
  O  O113  1  0.05140000  0.85900000  0.29100000  1
  O  O114  1  0.04700000  0.80070000  0.73860000  1
  O  O115  1  0.04700000  0.69930000  0.23860000  1
