# generated using pymatgen
data_Cu3H37C53N6O12F29
_symmetry_space_group_name_H-M   'P 1'
_cell_length_a   15.42680000
_cell_length_b   17.60130000
_cell_length_c   31.40752632
_cell_angle_alpha   95.20791225
_cell_angle_beta   104.21646947
_cell_angle_gamma   90.00000000
_symmetry_Int_Tables_number   1
_chemical_formula_structural   Cu3H37C53N6O12F29
_chemical_formula_sum   'Cu12 H148 C212 N24 O48 F116'
_cell_volume   8230.64178186
_cell_formula_units_Z   4
loop_
 _symmetry_equiv_pos_site_id
 _symmetry_equiv_pos_as_xyz
  1  'x, y, z'
loop_
 _atom_site_type_symbol
 _atom_site_label
 _atom_site_symmetry_multiplicity
 _atom_site_fract_x
 _atom_site_fract_y
 _atom_site_fract_z
 _atom_site_occupancy
  Cu  Cu0  1  0.00000000  0.00000000  0.00000000  1
  Cu  Cu1  1  0.00000000  0.50000000  0.00000000  1
  Cu  Cu2  1  0.51404000  0.36364000  0.41528000  1
  Cu  Cu3  1  0.79111000  0.48056000  0.69112000  1
  Cu  Cu4  1  0.90001000  0.98056000  0.69112000  1
  Cu  Cu5  1  0.26012000  0.75000000  1.00000000  1
  Cu  Cu6  1  0.90124000  0.86364000  0.41528000  1
  Cu  Cu7  1  0.09876000  0.13636000  0.58472000  1
  Cu  Cu8  1  0.73988000  0.25000000  1.00000000  1
  Cu  Cu9  1  0.09999000  0.01944000  0.30888000  1
  Cu  Cu10  1  0.20889000  0.51944000  0.30888000  1
  Cu  Cu11  1  0.48596000  0.63636000  0.58472000  1
  H  H12  1  0.69110000  0.24760000  0.68020000  1
  H  H13  1  0.37390000  0.43460000  0.34480000  1
  H  H14  1  0.93470000  0.03690000  0.90420000  1
  H  H15  1  0.88030000  0.58590000  0.84620000  1
  H  H16  1  0.28210000  0.79780000  0.23780000  1
  H  H17  1  0.22660000  0.48670000  0.16840000  1
  H  H18  1  0.96950000  0.53690000  0.90420000  1
  H  H19  1  0.31310000  0.03940000  0.24320000  1
  H  H20  1  0.22870000  0.33910000  0.15840000  1
  H  H21  1  0.28400000  0.53010000  0.21360000  1
  H  H22  1  0.55420000  0.98920000  0.48040000  1
  H  H23  1  0.60890000  0.59480000  0.53080000  1
  H  H24  1  0.45070000  0.13080000  0.36020000  1
  H  H25  1  0.29070000  0.29550000  0.19700000  1
  H  H26  1  0.83190000  0.16090000  0.72980000  1
  H  H27  1  0.37860000  0.45610000  0.27100000  1
  H  H28  1  0.27560000  0.81570000  0.16480000  1
  H  H29  1  0.66310000  0.02300000  0.54560000  1
  H  H30  1  0.38210000  0.36520000  0.26280000  1
  H  H31  1  0.96590000  0.08590000  0.84620000  1
  H  H32  1  0.13960000  0.61870000  0.01380000  1
  H  H33  1  0.22430000  0.78360000  0.09420000  1
  H  H34  1  0.12580000  0.88130000  0.98620000  1
  H  H35  1  0.62280000  0.50750000  0.47640000  1
  H  H36  1  0.33340000  0.49200000  0.17800000  1
  H  H37  1  0.89790000  0.66090000  0.72980000  1
  H  H38  1  0.33530000  0.34340000  0.16660000  1
  H  H39  1  0.19400000  0.18420000  0.02260000  1
  H  H40  1  0.59270000  0.96390000  0.41380000  1
  H  H41  1  0.78650000  0.98240000  0.60060000  1
  H  H42  1  0.42770000  0.41820000  0.23520000  1
  H  H43  1  0.17140000  0.31580000  0.97740000  1
  H  H44  1  0.52990000  0.41880000  0.32480000  1
  H  H45  1  0.53410000  0.50990000  0.32660000  1
  H  H46  1  0.81410000  0.48240000  0.60060000  1
  H  H47  1  0.13010000  0.71640000  0.90580000  1
  H  H48  1  0.05820000  0.01330000  0.83160000  1
  H  H49  1  0.07030000  0.16090000  0.84160000  1
  H  H50  1  0.60140000  0.03880000  0.36820000  1
  H  H51  1  0.60170000  0.88970000  0.36420000  1
  H  H52  1  0.11080000  0.68430000  0.83520000  1
  H  H53  1  0.57130000  0.45900000  0.29040000  1
  H  H54  1  0.04430000  0.70220000  0.76220000  1
  H  H55  1  0.07040000  0.96990000  0.78640000  1
  H  H56  1  0.60570000  0.03800000  0.31780000  1
  H  H57  1  0.60110000  0.88740000  0.31300000  1
  H  H58  1  0.09370000  0.20450000  0.80300000  1
  H  H59  1  0.98910000  0.74760000  0.68020000  1
  H  H60  1  0.06990000  0.46060000  0.75680000  1
  H  H61  1  0.67370000  0.58170000  0.35600000  1
  H  H62  1  0.66740000  0.34660000  0.34620000  1
  H  H63  1  0.68230000  0.08170000  0.35600000  1
  H  H64  1  0.67880000  0.84660000  0.34620000  1
  H  H65  1  0.15540000  0.00800000  0.82200000  1
  H  H66  1  0.16870000  0.15660000  0.83340000  1
  H  H67  1  0.88250000  0.52300000  0.54560000  1
  H  H68  1  0.02910000  0.06540000  0.65520000  1
  H  H69  1  0.85360000  0.00750000  0.47640000  1
  H  H70  1  0.10760000  0.04390000  0.72900000  1
  H  H71  1  0.11930000  0.13480000  0.73720000  1
  H  H72  1  0.92190000  0.09480000  0.53080000  1
  H  H73  1  0.71210000  0.53800000  0.31780000  1
  H  H74  1  0.76250000  0.38970000  0.36420000  1
  H  H75  1  0.76680000  0.53880000  0.36820000  1
  H  H76  1  0.71190000  0.38740000  0.31300000  1
  H  H77  1  0.82110000  0.46390000  0.41380000  1
  H  H78  1  0.46170000  0.59650000  0.05340000  1
  H  H79  1  0.19250000  0.08180000  0.76480000  1
  H  H80  1  0.71910000  0.95900000  0.29040000  1
  H  H81  1  0.92620000  0.48920000  0.48040000  1
  H  H82  1  0.09050000  0.36920000  0.63980000  1
  H  H83  1  0.40830000  0.90350000  0.94660000  1
  H  H84  1  0.79250000  0.00990000  0.32660000  1
  H  H85  1  0.79490000  0.91880000  0.32480000  1
  H  H86  1  0.20510000  0.08120000  0.67520000  1
  H  H87  1  0.20750000  0.99010000  0.67340000  1
  H  H88  1  0.59170000  0.09650000  0.05340000  1
  H  H89  1  0.90950000  0.63080000  0.36020000  1
  H  H90  1  0.07380000  0.51080000  0.51960000  1
  H  H91  1  0.28090000  0.04100000  0.70960000  1
  H  H92  1  0.80750000  0.91820000  0.23520000  1
  H  H93  1  0.53830000  0.40350000  0.94660000  1
  H  H94  1  0.17890000  0.53610000  0.58620000  1
  H  H95  1  0.28810000  0.61260000  0.68700000  1
  H  H96  1  0.23320000  0.46120000  0.63180000  1
  H  H97  1  0.23750000  0.61030000  0.63580000  1
  H  H98  1  0.28790000  0.46200000  0.68220000  1
  H  H99  1  0.07810000  0.90520000  0.46920000  1
  H  H100  1  0.88070000  0.86520000  0.26280000  1
  H  H101  1  0.89240000  0.95610000  0.27100000  1
  H  H102  1  0.14640000  0.99250000  0.52360000  1
  H  H103  1  0.97090000  0.93460000  0.34480000  1
  H  H104  1  0.11750000  0.47700000  0.45440000  1
  H  H105  1  0.83130000  0.84340000  0.16660000  1
  H  H106  1  0.84466667  0.99200000  0.17800000  1
  H  H107  1  0.32120000  0.15340000  0.65380000  1
  H  H108  1  0.31770000  0.91830000  0.64400000  1
  H  H109  1  0.33260000  0.65340000  0.65380000  1
  H  H110  1  0.32630000  0.41830000  0.64400000  1
  H  H111  1  0.93010000  0.53940000  0.24320000  1
  H  H112  1  0.01090000  0.25240000  0.31980000  1
  H  H113  1  0.90630000  0.79550000  0.19700000  1
  H  H114  1  0.39890000  0.11260000  0.68700000  1
  H  H115  1  0.39430000  0.96200000  0.68220000  1
  H  H116  1  0.92960000  0.03010000  0.21360000  1
  H  H117  1  0.95570000  0.29780000  0.23780000  1
  H  H118  1  0.42870000  0.54100000  0.70960000  1
  H  H119  1  0.88920000  0.31570000  0.16480000  1
  H  H120  1  0.39830000  0.11030000  0.63580000  1
  H  H121  1  0.39860000  0.96120000  0.63180000  1
  H  H122  1  0.92970000  0.83910000  0.15840000  1
  H  H123  1  0.94180000  0.98670000  0.16840000  1
  H  H124  1  0.86990000  0.28360000  0.09420000  1
  H  H125  1  0.18590000  0.51760000  0.39940000  1
  H  H126  1  0.46590000  0.49010000  0.67340000  1
  H  H127  1  0.47010000  0.58120000  0.67520000  1
  H  H128  1  0.82860000  0.68420000  0.02260000  1
  H  H129  1  0.57230000  0.58180000  0.76480000  1
  H  H130  1  0.21350000  0.01760000  0.39940000  1
  H  H131  1  0.40730000  0.03610000  0.58620000  1
  H  H132  1  0.80600000  0.81580000  0.97740000  1
  H  H133  1  0.66470000  0.65660000  0.83340000  1
  H  H134  1  0.10210000  0.33910000  0.27020000  1
  H  H135  1  0.66660000  0.50800000  0.82200000  1
  H  H136  1  0.37720000  0.49250000  0.52360000  1
  H  H137  1  0.87420000  0.11870000  0.01380000  1
  H  H138  1  0.77570000  0.21640000  0.90580000  1
  H  H139  1  0.86040000  0.38130000  0.98620000  1
  H  H140  1  0.03410000  0.91410000  0.15380000  1
  H  H141  1  0.61790000  0.63480000  0.73720000  1
  H  H142  1  0.33690000  0.97700000  0.45440000  1
  H  H143  1  0.72440000  0.18430000  0.83520000  1
  H  H144  1  0.62140000  0.54390000  0.72900000  1
  H  H145  1  0.16810000  0.83910000  0.27020000  1
  H  H146  1  0.70930000  0.70450000  0.80300000  1
  H  H147  1  0.54930000  0.86920000  0.63980000  1
  H  H148  1  0.39110000  0.40520000  0.46920000  1
  H  H149  1  0.44580000  0.01080000  0.51960000  1
  H  H150  1  0.71600000  0.46990000  0.78640000  1
  H  H151  1  0.77130000  0.66090000  0.84160000  1
  H  H152  1  0.68690000  0.96060000  0.75680000  1
  H  H153  1  0.03050000  0.46310000  0.09580000  1
  H  H154  1  0.77340000  0.51330000  0.83160000  1
  H  H155  1  0.71790000  0.20220000  0.76220000  1
  H  H156  1  0.11970000  0.41410000  0.15380000  1
  H  H157  1  0.06530000  0.96310000  0.09580000  1
  H  H158  1  0.62610000  0.56540000  0.65520000  1
  H  H159  1  0.30890000  0.75240000  0.31980000  1
  C  C160  1  0.15324000  0.86560000  0.15148000  1
  C  C161  1  0.71205000  0.01020000  0.70450000  1
  C  C162  1  0.26728000  0.03110000  0.25776000  1
  C  C163  1  0.23183000  0.82190000  0.22086000  1
  C  C164  1  0.57256000  0.85310000  0.55952000  1
  C  C165  1  0.09501000  0.92650000  0.08062000  1
  C  C166  1  0.65026000  0.55810000  0.63012000  1
  C  C167  1  0.70539000  0.29970000  0.67878000  1
  C  C168  1  0.82943000  0.89600000  0.79926000  1
  C  C169  1  0.11774000  0.20940000  0.08608000  1
  C  C170  1  0.44883000  0.20640000  0.41186000  1
  C  C171  1  0.34758000  0.64390000  0.30636000  1
  C  C172  1  0.14594000  0.87280000  0.10388000  1
  C  C173  1  0.10023000  0.14240000  0.05006000  1
  C  C174  1  0.22774000  0.83180000  0.17728000  1
  C  C175  1  0.81618000  0.94030000  0.75876000  1
  C  C176  1  0.38094000  0.95440000  0.30748000  1
  C  C177  1  0.83566000  0.15390000  0.75992000  1
  C  C178  1  0.28960000  0.41230000  0.21320000  1
  C  C179  1  0.63897000  0.57416000  0.55734000  1
  C  C180  1  0.91391000  0.60940000  0.82922000  1
  C  C181  1  0.45480000  0.18380000  0.36960000  1
  C  C182  1  0.91531000  0.10940000  0.82922000  1
  C  C183  1  0.87511000  0.61870000  0.78502000  1
  C  C184  1  0.28274000  0.48700000  0.19128000  1
  C  C185  1  0.01439000  0.57350000  0.91938000  1
  C  C186  1  0.05017000  0.35760000  0.94994000  1
  C  C187  1  0.28574000  0.34120000  0.18088000  1
  C  C188  1  0.18889000  0.82210000  0.07958000  1
  C  C189  1  0.13094000  0.87860000  0.01688000  1
  C  C190  1  0.77780000  0.31650000  0.66200000  1
  C  C191  1  0.03166000  0.29060000  0.91392000  1
  C  C192  1  0.90991000  0.11870000  0.78502000  1
  C  C193  1  0.46654000  0.23520000  0.33988000  1
  C  C194  1  0.37736000  0.41300000  0.24872000  1
  C  C195  1  0.11406000  0.62140000  0.98312000  1
  C  C196  1  0.15200000  0.14330000  0.01920000  1
  C  C197  1  0.61522000  0.99260000  0.47964000  1
  C  C198  1  0.43137000  0.67050000  0.29394000  1
  C  C199  1  0.16189000  0.41150000  0.01598000  1
  C  C200  1  0.04206000  0.62720000  0.89612000  1
  C  C201  1  0.13280000  0.35670000  0.98080000  1
  C  C202  1  0.00176000  0.63440000  0.84852000  1
  C  C203  1  0.71697000  0.53443000  0.55814000  1
  C  C204  1  0.67985000  0.01250000  0.51850000  1
  C  C205  1  0.76009000  0.50935000  0.59838000  1
  C  C206  1  0.14591000  0.08850000  0.98402000  1
  C  C207  1  0.92426000  0.65390000  0.75992000  1
  C  C208  1  0.96983000  0.39600000  0.79926000  1
  C  C209  1  0.46429000  0.20330000  0.29278000  1
  C  C210  1  0.81794000  0.75040000  0.64348000  1
  C  C211  1  0.82554000  0.25040000  0.64348000  1
  C  C212  1  0.94258000  0.44030000  0.75876000  1
  C  C213  1  0.10931000  0.67790000  0.92042000  1
  C  C214  1  0.63765000  0.97780000  0.43990000  1
  C  C215  1  0.68454000  0.50319000  0.47728000  1
  C  C216  1  0.25424000  0.40460000  0.04608000  1
  C  C217  1  0.88420000  0.81650000  0.66200000  1
  C  C218  1  0.05046000  0.66820000  0.82272000  1
  C  C219  1  0.74810000  0.51693000  0.51740000  1
  C  C220  1  0.01097000  0.67810000  0.77914000  1
  C  C221  1  0.83829000  0.00935000  0.59838000  1
  C  C222  1  0.56486000  0.46280000  0.32072000  1
  C  C223  1  0.35813000  0.62470000  0.10806000  1
  C  C224  1  0.76930000  0.01693000  0.51740000  1
  C  C225  1  0.20816000  0.09540000  0.95392000  1
  C  C226  1  0.00952000  0.46890000  0.74224000  1
  C  C227  1  0.71112000  0.48320000  0.43844000  1
  C  C228  1  0.09146000  0.01300000  0.80872000  1
  C  C229  1  0.84117000  0.03443000  0.55814000  1
  C  C230  1  0.10486000  0.15880000  0.81912000  1
  C  C231  1  0.99245000  0.51020000  0.70450000  1
  C  C232  1  0.72732000  0.98320000  0.43844000  1
  C  C233  1  0.35102000  0.64850000  0.06164000  1
  C  C234  1  0.07640000  0.08770000  0.78680000  1
  C  C235  1  0.64134000  0.03720000  0.34828000  1
  C  C236  1  0.97339000  0.79970000  0.67878000  1
  C  C237  1  0.63929000  0.89030000  0.34318000  1
  C  C238  1  0.65716000  0.46410000  0.35252000  1
  C  C239  1  0.79274000  0.00319000  0.47728000  1
  C  C240  1  0.83865000  0.51250000  0.51850000  1
  C  C241  1  0.69536000  0.96410000  0.35252000  1
  C  C242  1  0.04122000  0.85610000  0.69364000  1
  C  C243  1  0.97986000  0.05810000  0.63012000  1
  C  C244  1  0.28938000  0.85150000  0.93836000  1
  C  C245  1  0.25007000  0.87530000  0.89194000  1
  C  C246  1  0.70694000  0.53720000  0.34828000  1
  C  C247  1  0.70389000  0.39030000  0.34318000  1
  C  C248  1  0.91837000  0.07416000  0.55734000  1
  C  C249  1  0.80225000  0.47780000  0.43990000  1
  C  C250  1  0.41300000  0.62560000  0.03920000  1
  C  C251  1  0.12864000  0.08700000  0.75128000  1
  C  C252  1  0.07346000  0.54560000  0.69252000  1
  C  C253  1  0.86442000  0.49260000  0.47964000  1
  C  C254  1  0.41182000  0.85640000  0.00404000  1
  C  C255  1  0.40778000  0.64360000  0.99596000  1
  C  C256  1  0.37380000  0.87440000  0.96080000  1
  C  C257  1  0.98696000  0.35310000  0.55952000  1
  C  C258  1  0.13743000  0.82950000  0.70606000  1
  C  C259  1  0.75586000  0.96280000  0.32072000  1
  C  C260  1  0.03697000  0.29360000  0.58814000  1
  C  C261  1  0.08520000  0.31620000  0.63040000  1
  C  C262  1  0.17151000  0.29670000  0.70722000  1
  C  C263  1  0.12666000  0.26480000  0.66012000  1
  C  C264  1  0.51044000  0.38350000  0.02288000  1
  C  C265  1  0.51244000  0.88350000  0.02288000  1
  C  C266  1  0.48756000  0.11650000  0.97712000  1
  C  C267  1  0.48956000  0.61650000  0.97712000  1
  C  C268  1  0.87334000  0.73520000  0.33988000  1
  C  C269  1  0.82849000  0.70330000  0.29278000  1
  C  C270  1  0.91480000  0.68380000  0.36960000  1
  C  C271  1  0.96303000  0.70640000  0.41186000  1
  C  C272  1  0.24414000  0.03720000  0.67928000  1
  C  C273  1  0.86257000  0.17050000  0.29394000  1
  C  C274  1  0.01304000  0.64690000  0.44048000  1
  C  C275  1  0.62620000  0.12560000  0.03920000  1
  C  C276  1  0.59222000  0.35640000  0.00404000  1
  C  C277  1  0.58818000  0.14360000  0.99596000  1
  C  C278  1  0.13558000  0.50740000  0.52036000  1
  C  C279  1  0.92654000  0.45440000  0.30748000  1
  C  C280  1  0.87136000  0.91300000  0.24872000  1
  C  C281  1  0.58700000  0.37440000  0.96080000  1
  C  C282  1  0.19775000  0.52220000  0.56010000  1
  C  C283  1  0.08163000  0.92584000  0.44266000  1
  C  C284  1  0.29611000  0.60970000  0.65682000  1
  C  C285  1  0.29306000  0.46280000  0.65172000  1
  C  C286  1  0.74993000  0.12470000  0.10806000  1
  C  C287  1  0.71062000  0.14850000  0.06164000  1
  C  C288  1  0.02014000  0.94190000  0.36988000  1
  C  C289  1  0.95878000  0.14390000  0.30636000  1
  C  C290  1  0.30464000  0.03590000  0.64748000  1
  C  C291  1  0.16135000  0.48750000  0.48150000  1
  C  C292  1  0.20726000  0.99681000  0.52272000  1
  C  C293  1  0.34284000  0.53590000  0.64748000  1
  C  C294  1  0.36071000  0.10970000  0.65682000  1
  C  C295  1  0.02661000  0.20030000  0.32122000  1
  C  C296  1  0.35866000  0.96280000  0.65172000  1
  C  C297  1  0.92360000  0.91230000  0.21320000  1
  C  C298  1  0.64898000  0.35150000  0.93836000  1
  C  C299  1  0.27268000  0.01680000  0.56156000  1
  C  C300  1  0.00755000  0.48980000  0.29550000  1
  C  C301  1  0.89514000  0.84120000  0.18088000  1
  C  C302  1  0.15883000  0.96557000  0.44186000  1
  C  C303  1  0.90854000  0.98700000  0.19128000  1
  C  C304  1  0.28888000  0.51680000  0.56156000  1
  C  C305  1  0.99048000  0.53110000  0.25776000  1
  C  C306  1  0.79184000  0.90460000  0.04608000  1
  C  C307  1  0.23070000  0.98307000  0.48260000  1
  C  C308  1  0.64187000  0.37530000  0.89194000  1
  C  C309  1  0.43514000  0.53720000  0.67928000  1
  C  C310  1  0.16171000  0.99065000  0.40162000  1
  C  C311  1  0.98903000  0.32190000  0.22086000  1
  C  C312  1  0.25190000  0.48307000  0.48260000  1
  C  C313  1  0.94954000  0.33180000  0.17728000  1
  C  C314  1  0.11580000  0.18350000  0.33800000  1
  C  C315  1  0.74576000  0.59540000  0.95392000  1
  C  C316  1  0.31546000  0.49681000  0.52272000  1
  C  C317  1  0.36235000  0.02220000  0.56010000  1
  C  C318  1  0.89069000  0.32210000  0.07958000  1
  C  C319  1  0.05742000  0.55970000  0.24124000  1
  C  C320  1  0.17446000  0.74960000  0.35652000  1
  C  C321  1  0.18206000  0.24960000  0.35652000  1
  C  C322  1  0.53571000  0.79670000  0.70722000  1
  C  C323  1  0.03017000  0.60400000  0.20074000  1
  C  C324  1  0.07574000  0.34610000  0.24008000  1
  C  C325  1  0.85409000  0.91150000  0.01598000  1
  C  C326  1  0.23991000  0.49065000  0.40162000  1
  C  C327  1  0.32015000  0.98750000  0.48150000  1
  C  C328  1  0.28303000  0.46557000  0.44186000  1
  C  C329  1  0.99824000  0.36560000  0.15148000  1
  C  C330  1  0.86720000  0.64330000  0.01920000  1
  C  C331  1  0.95794000  0.37280000  0.10388000  1
  C  C332  1  0.83811000  0.58850000  0.98402000  1
  C  C333  1  0.56863000  0.32950000  0.70606000  1
  C  C334  1  0.38478000  0.00740000  0.52036000  1
  C  C335  1  0.84800000  0.85670000  0.98080000  1
  C  C336  1  0.88594000  0.37860000  0.01688000  1
  C  C337  1  0.62264000  0.58700000  0.75128000  1
  C  C338  1  0.53346000  0.76480000  0.66012000  1
  C  C339  1  0.09009000  0.88130000  0.21498000  1
  C  C340  1  0.96834000  0.70940000  0.08608000  1
  C  C341  1  0.22220000  0.68350000  0.33800000  1
  C  C342  1  0.86906000  0.12140000  0.98312000  1
  C  C343  1  0.81111000  0.17790000  0.92042000  1
  C  C344  1  0.71426000  0.65880000  0.81912000  1
  C  C345  1  0.94983000  0.64240000  0.05006000  1
  C  C346  1  0.98561000  0.42650000  0.08062000  1
  C  C347  1  0.71726000  0.51300000  0.80872000  1
  C  C348  1  0.12489000  0.38130000  0.21498000  1
  C  C349  1  0.08469000  0.89060000  0.17078000  1
  C  C350  1  0.54520000  0.81620000  0.63040000  1
  C  C351  1  0.08609000  0.39060000  0.17078000  1
  C  C352  1  0.36103000  0.42584000  0.44266000  1
  C  C353  1  0.71040000  0.58770000  0.78680000  1
  C  C354  1  0.16434000  0.84610000  0.24008000  1
  C  C355  1  0.61906000  0.04560000  0.69252000  1
  C  C356  1  0.18382000  0.05970000  0.24124000  1
  C  C357  1  0.77226000  0.16820000  0.82272000  1
  C  C358  1  0.89977000  0.85760000  0.94994000  1
  C  C359  1  0.85406000  0.12720000  0.89612000  1
  C  C360  1  0.65242000  0.35610000  0.69364000  1
  C  C361  1  0.55117000  0.79360000  0.58814000  1
  C  C362  1  0.88226000  0.79060000  0.91392000  1
  C  C363  1  0.17057000  0.10400000  0.20074000  1
  C  C364  1  0.29461000  0.70030000  0.32122000  1
  C  C365  1  0.34974000  0.44190000  0.36988000  1
  C  C366  1  0.90499000  0.07350000  0.91938000  1
  C  C367  1  0.42744000  0.14690000  0.44048000  1
  C  C368  1  0.76817000  0.17810000  0.77914000  1
  C  C369  1  0.73272000  0.96890000  0.74224000  1
  C  C370  1  0.28795000  0.98980000  0.29550000  1
  C  C371  1  0.84676000  0.13440000  0.84852000  1
  N  N372  1  0.60457000  0.58436000  0.59258000  1
  N  N373  1  0.78595000  0.59380000  0.76410000  1
  N  N374  1  0.08587000  0.92882000  0.03694000  1
  N  N375  1  0.04893000  0.57118000  0.96306000  1
  N  N376  1  0.72752000  0.52222000  0.63424000  1
  N  N377  1  0.18222000  0.82543000  0.03644000  1
  N  N378  1  0.14578000  0.67457000  0.96356000  1
  N  N379  1  0.97815000  0.09380000  0.76410000  1
  N  N380  1  0.64315000  0.46796000  0.39904000  1
  N  N381  1  0.90672000  0.02222000  0.63424000  1
  N  N382  1  0.75589000  0.96796000  0.39904000  1
  N  N383  1  0.98801000  0.08436000  0.59258000  1
  N  N384  1  0.01199000  0.91564000  0.40742000  1
  N  N385  1  0.24411000  0.03204000  0.60096000  1
  N  N386  1  0.09328000  0.97778000  0.36576000  1
  N  N387  1  0.35685000  0.53204000  0.60096000  1
  N  N388  1  0.02185000  0.90620000  0.23590000  1
  N  N389  1  0.85422000  0.32543000  0.03644000  1
  N  N390  1  0.81778000  0.17457000  0.96356000  1
  N  N391  1  0.27248000  0.47778000  0.36576000  1
  N  N392  1  0.95107000  0.42882000  0.03694000  1
  N  N393  1  0.91413000  0.07118000  0.96306000  1
  N  N394  1  0.21405000  0.40620000  0.23590000  1
  N  N395  1  0.39543000  0.41564000  0.40742000  1
  O  O396  1  0.95751000  0.90460000  0.94772000  1
  O  O397  1  0.45871000  0.27277000  0.43210000  1
  O  O398  1  0.33658000  0.57360000  0.30312000  1
  O  O399  1  0.99021000  0.40460000  0.94772000  1
  O  O400  1  0.76743000  0.58033000  0.72154000  1
  O  O401  1  0.75924000  0.02231000  0.67926000  1
  O  O402  1  0.12200000  0.46981000  0.02746000  1
  O  O403  1  0.85843000  0.44512000  0.74594000  1
  O  O404  1  0.09454000  0.03019000  0.97254000  1
  O  O405  1  0.47689000  0.30593000  0.34648000  1
  O  O406  1  0.88751000  0.94512000  0.74594000  1
  O  O407  1  0.81144000  0.38082000  0.65906000  1
  O  O408  1  0.56215000  0.46014000  0.40312000  1
  O  O409  1  0.84762000  0.88082000  0.65906000  1
  O  O410  1  0.95411000  0.08033000  0.72154000  1
  O  O411  1  0.28291000  0.68914000  0.04942000  1
  O  O412  1  0.92002000  0.52231000  0.67926000  1
  O  O413  1  0.23349000  0.81086000  0.95058000  1
  O  O414  1  0.03346000  0.92640000  0.69688000  1
  O  O415  1  0.37683000  0.81960000  0.02746000  1
  O  O416  1  0.34937000  0.68040000  0.97254000  1
  O  O417  1  0.84097000  0.96014000  0.40312000  1
  O  O418  1  0.02661000  0.22723000  0.56790000  1
  O  O419  1  0.13041000  0.19407000  0.65352000  1
  O  O420  1  0.86959000  0.80593000  0.34648000  1
  O  O421  1  0.97339000  0.77277000  0.43210000  1
  O  O422  1  0.15903000  0.03986000  0.59688000  1
  O  O423  1  0.65063000  0.31960000  0.02746000  1
  O  O424  1  0.62317000  0.18040000  0.97254000  1
  O  O425  1  0.96654000  0.07360000  0.30312000  1
  O  O426  1  0.76651000  0.18914000  0.04942000  1
  O  O427  1  0.07998000  0.47769000  0.32074000  1
  O  O428  1  0.71709000  0.31086000  0.95058000  1
  O  O429  1  0.04589000  0.91967000  0.27846000  1
  O  O430  1  0.15238000  0.11918000  0.34094000  1
  O  O431  1  0.43785000  0.53986000  0.59688000  1
  O  O432  1  0.18856000  0.61918000  0.34094000  1
  O  O433  1  0.11249000  0.05488000  0.25406000  1
  O  O434  1  0.52311000  0.69407000  0.65352000  1
  O  O435  1  0.90546000  0.96981000  0.02746000  1
  O  O436  1  0.14157000  0.55488000  0.25406000  1
  O  O437  1  0.87800000  0.53019000  0.97254000  1
  O  O438  1  0.24076000  0.97769000  0.32074000  1
  O  O439  1  0.23257000  0.41967000  0.27846000  1
  O  O440  1  0.00979000  0.59540000  0.05228000  1
  O  O441  1  0.66342000  0.42640000  0.69688000  1
  O  O442  1  0.54129000  0.72723000  0.56790000  1
  O  O443  1  0.04249000  0.09540000  0.05228000  1
  F  F444  1  0.43128000  0.07350000  0.42296000  1
  F  F445  1  0.49382000  0.15040000  0.48044000  1
  F  F446  1  0.82883000  0.82780000  0.79186000  1
  F  F447  1  0.12066000  0.27680000  0.07312000  1
  F  F448  1  0.93726000  0.29310000  0.88932000  1
  F  F449  1  0.22634000  0.08990000  0.17568000  1
  F  F450  1  0.37516000  0.88240000  0.32092000  1
  F  F451  1  0.95206000  0.79310000  0.88932000  1
  F  F452  1  0.18925000  0.20050000  0.11670000  1
  F  F453  1  0.91426000  0.91700000  0.82932000  1
  F  F454  1  0.91506000  0.41700000  0.82932000  1
  F  F455  1  0.74827000  0.75070000  0.65834000  1
  F  F456  1  0.43564000  0.99310000  0.33868000  1
  F  F457  1  0.65174000  0.84180000  0.54928000  1
  F  F458  1  0.04754000  0.22320000  0.92688000  1
  F  F459  1  0.42833000  0.74030000  0.28166000  1
  F  F460  1  0.80048000  0.18240000  0.64976000  1
  F  F461  1  0.42725000  0.96400000  0.27490000  1
  F  F462  1  0.25454000  0.42300000  0.08928000  1
  F  F463  1  0.50209000  0.67170000  0.33318000  1
  F  F464  1  0.96303000  0.32780000  0.79186000  1
  F  F465  1  0.29057000  0.60160000  0.11554000  1
  F  F466  1  0.46692000  0.12370000  0.29044000  1
  F  F467  1  0.07255000  0.29950000  0.88330000  1
  F  F468  1  0.78852000  0.75220000  0.59804000  1
  F  F469  1  0.45779000  0.62070000  0.26558000  1
  F  F470  1  0.84928000  0.68240000  0.64976000  1
  F  F471  1  0.80952000  0.25220000  0.59804000  1
  F  F472  1  0.05066000  0.41010000  0.82432000  1
  F  F473  1  0.28573000  0.33100000  0.04246000  1
  F  F474  1  0.52360000  0.23750000  0.27640000  1
  F  F475  1  0.38518000  0.69290000  0.13576000  1
  F  F476  1  0.91007000  0.25070000  0.65834000  1
  F  F477  1  0.16526000  0.07700000  0.91072000  1
  F  F478  1  0.31151000  0.44920000  0.03962000  1
  F  F479  1  0.24327000  0.16900000  0.95754000  1
  F  F480  1  0.17503000  0.89840000  0.88446000  1
  F  F481  1  0.41496000  0.56640000  0.11772000  1
  F  F482  1  0.27189000  0.05080000  0.96038000  1
  F  F483  1  0.89754000  0.34180000  0.54928000  1
  F  F484  1  0.05424000  0.61760000  0.67908000  1
  F  F485  1  0.24942000  0.80710000  0.86424000  1
  F  F486  1  0.29724000  0.93360000  0.88228000  1
  F  F487  1  0.15235000  0.53600000  0.72510000  1
  F  F488  1  0.14667000  0.75970000  0.71834000  1
  F  F489  1  0.00832000  0.42650000  0.57704000  1
  F  F490  1  0.44123000  0.11370000  0.00926000  1
  F  F491  1  0.09696000  0.50690000  0.66132000  1
  F  F492  1  0.43197000  0.38630000  0.99074000  1
  F  F493  1  0.50660000  0.34750000  0.05600000  1
  F  F494  1  0.50870000  0.95060000  0.05140000  1
  F  F495  1  0.19221000  0.87930000  0.73442000  1
  F  F496  1  0.17648000  0.37630000  0.70956000  1
  F  F497  1  0.75280000  0.73750000  0.27640000  1
  F  F498  1  0.54270000  0.45060000  0.05140000  1
  F  F499  1  0.54940000  0.84750000  0.05600000  1
  F  F500  1  0.01338000  0.34960000  0.51956000  1
  F  F501  1  0.83109000  0.17170000  0.33318000  1
  F  F502  1  0.16891000  0.82830000  0.66682000  1
  F  F503  1  0.98662000  0.65040000  0.48044000  1
  F  F504  1  0.45060000  0.15250000  0.94400000  1
  F  F505  1  0.45730000  0.54940000  0.94860000  1
  F  F506  1  0.24720000  0.26250000  0.72360000  1
  F  F507  1  0.82352000  0.62370000  0.29044000  1
  F  F508  1  0.80779000  0.12070000  0.26558000  1
  F  F509  1  0.49130000  0.04940000  0.94860000  1
  F  F510  1  0.49340000  0.65250000  0.94400000  1
  F  F511  1  0.56803000  0.61370000  0.00926000  1
  F  F512  1  0.90304000  0.49310000  0.33868000  1
  F  F513  1  0.55877000  0.88630000  0.99074000  1
  F  F514  1  0.99168000  0.57350000  0.42296000  1
  F  F515  1  0.85333000  0.24030000  0.28166000  1
  F  F516  1  0.84765000  0.46400000  0.27490000  1
  F  F517  1  0.70276000  0.06640000  0.11772000  1
  F  F518  1  0.75058000  0.19290000  0.13576000  1
  F  F519  1  0.94576000  0.38240000  0.32092000  1
  F  F520  1  0.10246000  0.65820000  0.45072000  1
  F  F521  1  0.72811000  0.94920000  0.03962000  1
  F  F522  1  0.58504000  0.43360000  0.88228000  1
  F  F523  1  0.82497000  0.10160000  0.11554000  1
  F  F524  1  0.75673000  0.83100000  0.04246000  1
  F  F525  1  0.68849000  0.55080000  0.96038000  1
  F  F526  1  0.83474000  0.92300000  0.08928000  1
  F  F527  1  0.08993000  0.74930000  0.34166000  1
  F  F528  1  0.61482000  0.30710000  0.86424000  1
  F  F529  1  0.47640000  0.76250000  0.72360000  1
  F  F530  1  0.71427000  0.66900000  0.95754000  1
  F  F531  1  0.94934000  0.58990000  0.17568000  1
  F  F532  1  0.19048000  0.74780000  0.40196000  1
  F  F533  1  0.15072000  0.31760000  0.35024000  1
  F  F534  1  0.54221000  0.37930000  0.73442000  1
  F  F535  1  0.21148000  0.24780000  0.40196000  1
  F  F536  1  0.92745000  0.70050000  0.11670000  1
  F  F537  1  0.53308000  0.87630000  0.70956000  1
  F  F538  1  0.70943000  0.39840000  0.88446000  1
  F  F539  1  0.03697000  0.67220000  0.20814000  1
  F  F540  1  0.49791000  0.32830000  0.66682000  1
  F  F541  1  0.74546000  0.57700000  0.91072000  1
  F  F542  1  0.57275000  0.03600000  0.72510000  1
  F  F543  1  0.19952000  0.81760000  0.35024000  1
  F  F544  1  0.57167000  0.25970000  0.71834000  1
  F  F545  1  0.95246000  0.77680000  0.07312000  1
  F  F546  1  0.34826000  0.15820000  0.45072000  1
  F  F547  1  0.56436000  0.00690000  0.66132000  1
  F  F548  1  0.25173000  0.24930000  0.34166000  1
  F  F549  1  0.08494000  0.58300000  0.17068000  1
  F  F550  1  0.08574000  0.08300000  0.17068000  1
  F  F551  1  0.81075000  0.79950000  0.88330000  1
  F  F552  1  0.04794000  0.20690000  0.11068000  1
  F  F553  1  0.62484000  0.11760000  0.67908000  1
  F  F554  1  0.77366000  0.91010000  0.82432000  1
  F  F555  1  0.06274000  0.70690000  0.11068000  1
  F  F556  1  0.87934000  0.72320000  0.92688000  1
  F  F557  1  0.17117000  0.17220000  0.20814000  1
  F  F558  1  0.50618000  0.84960000  0.51956000  1
  F  F559  1  0.56872000  0.92650000  0.57704000  1
