# generated using pymatgen
data_AgH3(CN)3
_symmetry_space_group_name_H-M   'P 1'
_cell_length_a   8.22210000
_cell_length_b   9.44100000
_cell_length_c   11.93200000
_cell_angle_alpha   90.00000000
_cell_angle_beta   90.00000000
_cell_angle_gamma   90.00000000
_symmetry_Int_Tables_number   1
_chemical_formula_structural   AgH3(CN)3
_chemical_formula_sum   'Ag4 H12 C12 N12'
_cell_volume   926.21966367
_cell_formula_units_Z   4
loop_
 _symmetry_equiv_pos_site_id
 _symmetry_equiv_pos_as_xyz
  1  'x, y, z'
loop_
 _atom_site_type_symbol
 _atom_site_label
 _atom_site_symmetry_multiplicity
 _atom_site_fract_x
 _atom_site_fract_y
 _atom_site_fract_z
 _atom_site_occupancy
  Ag  Ag0  1  0.29460000  0.11060000  0.18180000  1
  Ag  Ag1  1  0.29460000  0.38940000  0.68180000  1
  Ag  Ag2  1  0.79460000  0.61060000  0.31820000  1
  Ag  Ag3  1  0.79460000  0.88940000  0.81820000  1
  H  H4  1  0.04090000  0.03510000  0.98310000  1
  H  H5  1  0.04090000  0.46490000  0.48310000  1
  H  H6  1  0.06150000  0.67900000  0.79310000  1
  H  H7  1  0.06150000  0.82100000  0.29310000  1
  H  H8  1  0.26720000  0.20930000  0.44470000  1
  H  H9  1  0.26720000  0.29070000  0.94470000  1
  H  H10  1  0.54090000  0.53510000  0.51690000  1
  H  H11  1  0.54090000  0.96490000  0.01690000  1
  H  H12  1  0.56150000  0.17900000  0.70690000  1
  H  H13  1  0.56150000  0.32100000  0.20690000  1
  H  H14  1  0.76720000  0.70930000  0.05530000  1
  H  H15  1  0.76720000  0.79070000  0.55530000  1
  C  C16  1  0.02390000  0.55470000  0.53900000  1
  C  C17  1  0.02390000  0.94530000  0.03900000  1
  C  C18  1  0.02610000  0.64950000  0.71290000  1
  C  C19  1  0.02610000  0.85050000  0.21290000  1
  C  C20  1  0.35030000  0.22900000  0.91800000  1
  C  C21  1  0.35030000  0.27100000  0.41800000  1
  C  C22  1  0.52390000  0.05470000  0.96100000  1
  C  C23  1  0.52390000  0.44530000  0.46100000  1
  C  C24  1  0.52610000  0.14950000  0.78710000  1
  C  C25  1  0.52610000  0.35050000  0.28710000  1
  C  C26  1  0.85030000  0.72900000  0.58200000  1
  C  C27  1  0.85030000  0.77100000  0.08200000  1
  N  N28  1  0.09060000  0.55450000  0.64030000  1
  N  N29  1  0.09060000  0.94550000  0.14030000  1
  N  N30  1  0.40430000  0.23680000  0.81310000  1
  N  N31  1  0.40430000  0.26320000  0.31310000  1
  N  N32  1  0.40690000  0.13980000  0.99480000  1
  N  N33  1  0.40690000  0.36020000  0.49480000  1
  N  N34  1  0.59060000  0.05450000  0.85970000  1
  N  N35  1  0.59060000  0.44550000  0.35970000  1
  N  N36  1  0.90430000  0.73680000  0.68690000  1
  N  N37  1  0.90430000  0.76320000  0.18690000  1
  N  N38  1  0.90690000  0.63980000  0.50520000  1
  N  N39  1  0.90690000  0.86020000  0.00520000  1
