# generated using pymatgen
data_LaH8(C2O)8
_symmetry_space_group_name_H-M   'P 1'
_cell_length_a   10.15800000
_cell_length_b   13.26900000
_cell_length_c   14.47000000
_cell_angle_alpha   90.00000000
_cell_angle_beta   90.00000000
_cell_angle_gamma   90.00000000
_symmetry_Int_Tables_number   1
_chemical_formula_structural   LaH8(C2O)8
_chemical_formula_sum   'La4 H32 C64 O32'
_cell_volume   1950.36068394
_cell_formula_units_Z   4
loop_
 _symmetry_equiv_pos_site_id
 _symmetry_equiv_pos_as_xyz
  1  'x, y, z'
loop_
 _atom_site_type_symbol
 _atom_site_label
 _atom_site_symmetry_multiplicity
 _atom_site_fract_x
 _atom_site_fract_y
 _atom_site_fract_z
 _atom_site_occupancy
  La  La0  1  0.00135000  0.84236000  0.69621000  1
  La  La1  1  0.49865000  0.34236000  0.19621000  1
  La  La2  1  0.50135000  0.65764000  0.69621000  1
  La  La3  1  0.99865000  0.15764000  0.19621000  1
  H  H4  1  0.02850000  0.77390000  0.43950000  1
  H  H5  1  0.02970000  0.27480000  0.79200000  1
  H  H6  1  0.05720000  0.22430000  0.63770000  1
  H  H7  1  0.08480000  0.17800000  0.48400000  1
  H  H8  1  0.09920000  0.61350000  0.21100000  1
  H  H9  1  0.13970000  0.89280000  0.95590000  1
  H  H10  1  0.14740000  0.10250000  0.92430000  1
  H  H11  1  0.18020000  0.35280000  0.69950000  1
  H  H12  1  0.31980000  0.85280000  0.19950000  1
  H  H13  1  0.35260000  0.60250000  0.42430000  1
  H  H14  1  0.36030000  0.39280000  0.45590000  1
  H  H15  1  0.40080000  0.11350000  0.71100000  1
  H  H16  1  0.41520000  0.67800000  0.98400000  1
  H  H17  1  0.44280000  0.72430000  0.13770000  1
  H  H18  1  0.47030000  0.77480000  0.29200000  1
  H  H19  1  0.47150000  0.27390000  0.93950000  1
  H  H20  1  0.52850000  0.72610000  0.43950000  1
  H  H21  1  0.52970000  0.22520000  0.79200000  1
  H  H22  1  0.55720000  0.27570000  0.63770000  1
  H  H23  1  0.58480000  0.32200000  0.48400000  1
  H  H24  1  0.59920000  0.88650000  0.21100000  1
  H  H25  1  0.63970000  0.60720000  0.95590000  1
  H  H26  1  0.64740000  0.39750000  0.92430000  1
  H  H27  1  0.68020000  0.14720000  0.69950000  1
  H  H28  1  0.81980000  0.64720000  0.19950000  1
  H  H29  1  0.85260000  0.89750000  0.42430000  1
  H  H30  1  0.86030000  0.10720000  0.45590000  1
  H  H31  1  0.90080000  0.38650000  0.71100000  1
  H  H32  1  0.91520000  0.82200000  0.98400000  1
  H  H33  1  0.94280000  0.77570000  0.13770000  1
  H  H34  1  0.97030000  0.72520000  0.29200000  1
  H  H35  1  0.97150000  0.22610000  0.93950000  1
  C  C36  1  0.04680000  0.69990000  0.31860000  1
  C  C37  1  0.08220000  0.72990000  0.40670000  1
  C  C38  1  0.11760000  0.25840000  0.60090000  1
  C  C39  1  0.12360000  0.63320000  0.27030000  1
  C  C40  1  0.13380000  0.23080000  0.50860000  1
  C  C41  1  0.14420000  0.97500000  0.12590000  1
  C  C42  1  0.17840000  0.01760000  0.76130000  1
  C  C43  1  0.19070000  0.33570000  0.63760000  1
  C  C44  1  0.19770000  0.69450000  0.44620000  1
  C  C45  1  0.20210000  0.85990000  0.99180000  1
  C  C46  1  0.21960000  0.88900000  0.08340000  1
  C  C47  1  0.22400000  0.28260000  0.45310000  1
  C  C48  1  0.22460000  0.12670000  0.89780000  1
  C  C49  1  0.23790000  0.73150000  0.54180000  1
  C  C50  1  0.23850000  0.59470000  0.30990000  1
  C  C51  1  0.24200000  0.25360000  0.35410000  1
  C  C52  1  0.25800000  0.75360000  0.85410000  1
  C  C53  1  0.26150000  0.09470000  0.80990000  1
  C  C54  1  0.26210000  0.23150000  0.04180000  1
  C  C55  1  0.27540000  0.62670000  0.39780000  1
  C  C56  1  0.27600000  0.78260000  0.95310000  1
  C  C57  1  0.28040000  0.38900000  0.58340000  1
  C  C58  1  0.29790000  0.35990000  0.49180000  1
  C  C59  1  0.30230000  0.19450000  0.94620000  1
  C  C60  1  0.30930000  0.83570000  0.13760000  1
  C  C61  1  0.32160000  0.51760000  0.26130000  1
  C  C62  1  0.35580000  0.47500000  0.62590000  1
  C  C63  1  0.36620000  0.73080000  0.00860000  1
  C  C64  1  0.37640000  0.13320000  0.77030000  1
  C  C65  1  0.38240000  0.75840000  0.10090000  1
  C  C66  1  0.41780000  0.22990000  0.90670000  1
  C  C67  1  0.45320000  0.19990000  0.81860000  1
  C  C68  1  0.54680000  0.80010000  0.31860000  1
  C  C69  1  0.58220000  0.77010000  0.40670000  1
  C  C70  1  0.61760000  0.24160000  0.60090000  1
  C  C71  1  0.62360000  0.86680000  0.27030000  1
  C  C72  1  0.63380000  0.26920000  0.50860000  1
  C  C73  1  0.64420000  0.52500000  0.12590000  1
  C  C74  1  0.67840000  0.48240000  0.76130000  1
  C  C75  1  0.69070000  0.16430000  0.63760000  1
  C  C76  1  0.69770000  0.80550000  0.44620000  1
  C  C77  1  0.70210000  0.64010000  0.99180000  1
  C  C78  1  0.71960000  0.61100000  0.08340000  1
  C  C79  1  0.72400000  0.21740000  0.45310000  1
  C  C80  1  0.72460000  0.37330000  0.89780000  1
  C  C81  1  0.73790000  0.76850000  0.54180000  1
  C  C82  1  0.73850000  0.90530000  0.30990000  1
  C  C83  1  0.74200000  0.24640000  0.35410000  1
  C  C84  1  0.75800000  0.74640000  0.85410000  1
  C  C85  1  0.76150000  0.40530000  0.80990000  1
  C  C86  1  0.76210000  0.26850000  0.04180000  1
  C  C87  1  0.77540000  0.87330000  0.39780000  1
  C  C88  1  0.77600000  0.71740000  0.95310000  1
  C  C89  1  0.78040000  0.11100000  0.58340000  1
  C  C90  1  0.79790000  0.14010000  0.49180000  1
  C  C91  1  0.80230000  0.30550000  0.94620000  1
  C  C92  1  0.80930000  0.66430000  0.13760000  1
  C  C93  1  0.82160000  0.98240000  0.26130000  1
  C  C94  1  0.85580000  0.02500000  0.62590000  1
  C  C95  1  0.86620000  0.76920000  0.00860000  1
  C  C96  1  0.87640000  0.36680000  0.77030000  1
  C  C97  1  0.88240000  0.74160000  0.10090000  1
  C  C98  1  0.91780000  0.27010000  0.90670000  1
  C  C99  1  0.95320000  0.30010000  0.81860000  1
  O  O100  1  0.03790000  0.00230000  0.08770000  1
  O  O101  1  0.06630000  0.99710000  0.79230000  1
  O  O102  1  0.15350000  0.20450000  0.07200000  1
  O  O103  1  0.15490000  0.19640000  0.31950000  1
  O  O104  1  0.15930000  0.78430000  0.81170000  1
  O  O105  1  0.15930000  0.78760000  0.58290000  1
  O  O106  1  0.18770000  0.01790000  0.19660000  1
  O  O107  1  0.22520000  0.97400000  0.68860000  1
  O  O108  1  0.27480000  0.47400000  0.18860000  1
  O  O109  1  0.31230000  0.51790000  0.69660000  1
  O  O110  1  0.34070000  0.28430000  0.31170000  1
  O  O111  1  0.34070000  0.28760000  0.08290000  1
  O  O112  1  0.34510000  0.69640000  0.81950000  1
  O  O113  1  0.34650000  0.70450000  0.57200000  1
  O  O114  1  0.43370000  0.49710000  0.29230000  1
  O  O115  1  0.46210000  0.50230000  0.58770000  1
  O  O116  1  0.53790000  0.49770000  0.08770000  1
  O  O117  1  0.56630000  0.50290000  0.79230000  1
  O  O118  1  0.65350000  0.29550000  0.07200000  1
  O  O119  1  0.65490000  0.30360000  0.31950000  1
  O  O120  1  0.65930000  0.71240000  0.58290000  1
  O  O121  1  0.65930000  0.71570000  0.81170000  1
  O  O122  1  0.68770000  0.48210000  0.19660000  1
  O  O123  1  0.72520000  0.52600000  0.68860000  1
  O  O124  1  0.77480000  0.02600000  0.18860000  1
  O  O125  1  0.81230000  0.98210000  0.69660000  1
  O  O126  1  0.84070000  0.21240000  0.08290000  1
  O  O127  1  0.84070000  0.21570000  0.31170000  1
  O  O128  1  0.84510000  0.80360000  0.81950000  1
  O  O129  1  0.84650000  0.79550000  0.57200000  1
  O  O130  1  0.93370000  0.00290000  0.29230000  1
  O  O131  1  0.96210000  0.99770000  0.58770000  1
