# generated using pymatgen
data_Zn4Si3H54(C39O7)2
_symmetry_space_group_name_H-M   'P 1'
_cell_length_a   9.67880000
_cell_length_b   17.40580000
_cell_length_c   31.41140000
_cell_angle_alpha   77.00110000
_cell_angle_beta   81.13740000
_cell_angle_gamma   73.85710000
_symmetry_Int_Tables_number   1
_chemical_formula_structural   Zn4Si3H54(C39O7)2
_chemical_formula_sum   'Zn8 Si6 H108 C156 O28'
_cell_volume   4929.14637379
_cell_formula_units_Z   2
loop_
 _symmetry_equiv_pos_site_id
 _symmetry_equiv_pos_as_xyz
  1  'x, y, z'
loop_
 _atom_site_type_symbol
 _atom_site_label
 _atom_site_symmetry_multiplicity
 _atom_site_fract_x
 _atom_site_fract_y
 _atom_site_fract_z
 _atom_site_occupancy
  Zn  Zn0  1  0.32896000  0.65972000  0.46234000  1
  Zn  Zn1  1  0.34100000  0.05259000  0.01179000  1
  Zn  Zn2  1  0.40538000  0.44741000  0.48821000  1
  Zn  Zn3  1  0.45102000  0.84028000  0.03766000  1
  Zn  Zn4  1  0.54898000  0.15972000  0.96234000  1
  Zn  Zn5  1  0.59462000  0.55259000  0.51179000  1
  Zn  Zn6  1  0.65900000  0.94741000  0.98821000  1
  Zn  Zn7  1  0.67104000  0.34028000  0.53766000  1
  Si  Si8  1  0.00120000  0.75000000  0.25000000  1
  Si  Si9  1  0.07666000  0.49085000  0.89215000  1
  Si  Si10  1  0.45966000  0.00915000  0.60785000  1
  Si  Si11  1  0.54034000  0.99085000  0.39215000  1
  Si  Si12  1  0.92334000  0.50915000  0.10785000  1
  Si  Si13  1  0.99880000  0.25000000  0.75000000  1
  H  H14  1  0.00810000  0.12570000  0.83310000  1
  H  H15  1  0.01240000  0.79800000  0.37920000  1
  H  H16  1  0.01260000  0.06200000  0.55260000  1
  H  H17  1  0.02330000  0.23250000  0.98750000  1
  H  H18  1  0.02480000  0.97390000  0.73290000  1
  H  H19  1  0.03310000  0.62570000  0.33310000  1
  H  H20  1  0.03360000  0.66650000  0.87790000  1
  H  H21  1  0.03580000  0.06030000  0.45470000  1
  H  H22  1  0.05760000  0.35970000  0.25450000  1
  H  H23  1  0.07120000  0.57290000  0.25810000  1
  H  H24  1  0.08990000  0.39460000  0.18020000  1
  H  H25  1  0.09560000  0.58840000  0.14400000  1
  H  H26  1  0.09780000  0.07290000  0.75810000  1
  H  H27  1  0.10470000  0.35130000  0.96670000  1
  H  H28  1  0.10900000  0.22630000  0.08970000  1
  H  H29  1  0.11550000  0.40640000  0.60460000  1
  H  H30  1  0.12650000  0.09360000  0.89540000  1
  H  H31  1  0.12970000  0.56110000  0.70670000  1
  H  H32  1  0.17020000  0.84000000  0.42000000  1
  H  H33  1  0.17200000  0.08840000  0.64400000  1
  H  H34  1  0.17870000  0.98650000  0.30590000  1
  H  H35  1  0.18090000  0.48790000  0.04290000  1
  H  H36  1  0.18960000  0.70200000  0.12080000  1
  H  H37  1  0.22110000  0.57920000  0.93480000  1
  H  H38  1  0.22830000  0.29530000  0.78010000  1
  H  H39  1  0.24040000  0.75970000  0.29130000  1
  H  H40  1  0.24330000  0.26750000  0.51250000  1
  H  H41  1  0.26490000  0.07920000  0.43480000  1
  H  H42  1  0.26840000  0.47390000  0.23290000  1
  H  H43  1  0.26920000  0.42570000  0.82150000  1
  H  H44  1  0.27310000  0.88040000  0.51260000  1
  H  H45  1  0.27620000  0.44370000  0.74610000  1
  H  H46  1  0.28830000  0.98790000  0.54290000  1
  H  H47  1  0.29140000  0.74030000  0.20870000  1
  H  H48  1  0.30370000  0.20470000  0.71990000  1
  H  H49  1  0.31300000  0.85490000  0.31650000  1
  H  H50  1  0.32820000  0.85970000  0.75450000  1
  H  H51  1  0.33390000  0.38040000  0.01260000  1
  H  H52  1  0.33530000  0.89460000  0.68020000  1
  H  H53  1  0.34330000  0.36010000  0.89870000  1
  H  H54  1  0.35050000  0.26100000  0.84240000  1
  H  H55  1  0.37280000  0.56200000  0.05260000  1
  H  H56  1  0.39750000  0.93890000  0.79330000  1
  H  H57  1  0.39790000  0.86010000  0.39870000  1
  H  H58  1  0.42200000  0.16650000  0.37790000  1
  H  H59  1  0.42270000  0.14870000  0.53330000  1
  H  H60  1  0.42500000  0.27370000  0.41030000  1
  H  H61  1  0.43020000  0.66000000  0.08000000  1
  H  H62  1  0.44920000  0.56030000  0.95470000  1
  H  H63  1  0.45390000  0.23900000  0.65760000  1
  H  H64  1  0.46600000  0.05630000  0.75390000  1
  H  H65  1  0.47110000  0.51350000  0.19410000  1
  H  H66  1  0.48360000  0.92570000  0.32150000  1
  H  H67  1  0.48440000  0.64510000  0.18350000  1
  H  H68  1  0.51560000  0.35490000  0.81650000  1
  H  H69  1  0.51640000  0.07430000  0.67850000  1
  H  H70  1  0.52890000  0.48650000  0.80590000  1
  H  H71  1  0.53400000  0.94370000  0.24610000  1
  H  H72  1  0.54610000  0.76100000  0.34240000  1
  H  H73  1  0.55080000  0.43970000  0.04530000  1
  H  H74  1  0.56980000  0.34000000  0.92000000  1
  H  H75  1  0.57500000  0.72630000  0.58970000  1
  H  H76  1  0.57730000  0.85130000  0.46670000  1
  H  H77  1  0.57800000  0.83350000  0.62210000  1
  H  H78  1  0.60210000  0.13990000  0.60130000  1
  H  H79  1  0.60250000  0.06110000  0.20670000  1
  H  H80  1  0.62720000  0.43800000  0.94740000  1
  H  H81  1  0.64950000  0.73900000  0.15760000  1
  H  H82  1  0.65670000  0.63990000  0.10130000  1
  H  H83  1  0.66470000  0.10540000  0.31980000  1
  H  H84  1  0.66610000  0.61960000  0.98740000  1
  H  H85  1  0.67180000  0.14030000  0.24550000  1
  H  H86  1  0.68700000  0.14510000  0.68350000  1
  H  H87  1  0.69630000  0.79530000  0.28010000  1
  H  H88  1  0.70860000  0.25970000  0.79130000  1
  H  H89  1  0.71170000  0.01210000  0.45710000  1
  H  H90  1  0.72380000  0.55630000  0.25390000  1
  H  H91  1  0.72690000  0.11960000  0.48740000  1
  H  H92  1  0.73080000  0.57430000  0.17850000  1
  H  H93  1  0.73160000  0.52610000  0.76710000  1
  H  H94  1  0.73510000  0.92080000  0.56520000  1
  H  H95  1  0.75670000  0.73250000  0.48750000  1
  H  H96  1  0.75960000  0.24030000  0.70870000  1
  H  H97  1  0.77170000  0.70470000  0.21990000  1
  H  H98  1  0.77890000  0.42080000  0.06520000  1
  H  H99  1  0.81040000  0.29800000  0.87920000  1
  H  H100  1  0.81910000  0.51210000  0.95710000  1
  H  H101  1  0.82130000  0.01350000  0.69410000  1
  H  H102  1  0.82800000  0.91160000  0.35600000  1
  H  H103  1  0.82980000  0.16000000  0.58000000  1
  H  H104  1  0.87030000  0.43890000  0.29330000  1
  H  H105  1  0.87350000  0.90640000  0.10460000  1
  H  H106  1  0.88450000  0.59360000  0.39540000  1
  H  H107  1  0.89100000  0.77370000  0.91030000  1
  H  H108  1  0.89530000  0.64870000  0.03330000  1
  H  H109  1  0.90220000  0.92710000  0.24190000  1
  H  H110  1  0.90440000  0.41160000  0.85600000  1
  H  H111  1  0.91010000  0.60540000  0.81980000  1
  H  H112  1  0.92880000  0.42710000  0.74190000  1
  H  H113  1  0.94240000  0.64030000  0.74550000  1
  H  H114  1  0.96420000  0.93970000  0.54530000  1
  H  H115  1  0.96640000  0.33350000  0.12210000  1
  H  H116  1  0.96690000  0.37430000  0.66690000  1
  H  H117  1  0.97520000  0.02610000  0.26710000  1
  H  H118  1  0.97670000  0.76750000  0.01250000  1
  H  H119  1  0.98740000  0.93800000  0.44740000  1
  H  H120  1  0.98760000  0.20200000  0.62080000  1
  H  H121  1  0.99190000  0.87430000  0.16690000  1
  C  C122  1  0.00426000  0.72998000  0.03870000  1
  C  C123  1  0.00570000  0.42390000  0.19510000  1
  C  C124  1  0.00830000  0.59480000  0.76060000  1
  C  C125  1  0.01350000  0.08830000  0.74310000  1
  C  C126  1  0.01361000  0.39452000  0.90906000  1
  C  C127  1  0.02604000  0.68437000  0.45075000  1
  C  C128  1  0.02910000  0.97080000  0.27220000  1
  C  C129  1  0.03900000  0.34370000  0.09910000  1
  C  C130  1  0.04627000  0.34016000  0.94830000  1
  C  C131  1  0.05543000  0.42334000  0.08540000  1
  C  C132  1  0.06380000  0.83300000  0.26340000  1
  C  C133  1  0.06643000  0.34624000  0.66550000  1
  C  C134  1  0.07335000  0.62339000  0.11671000  1
  C  C135  1  0.07716000  0.19156000  0.60312000  1
  C  C136  1  0.07817000  0.15376000  0.83450000  1
  C  C137  1  0.08130000  0.94660000  0.43900000  1
  C  C138  1  0.09310000  0.51760000  0.83040000  1
  C  C139  1  0.09416000  0.74440000  0.06408000  1
  C  C140  1  0.09736000  0.24440000  0.56408000  1
  C  C141  1  0.10570000  0.21350000  0.79870000  1
  C  C142  1  0.11010000  0.01950000  0.44330000  1
  C  C143  1  0.11640000  0.54830000  0.73790000  1
  C  C144  1  0.11790000  0.28650000  0.70130000  1
  C  C145  1  0.12504000  0.27922000  0.08030000  1
  C  C146  1  0.12816000  0.69156000  0.10312000  1
  C  C147  1  0.14911000  0.13435000  0.87163000  1
  C  C148  1  0.15070000  0.94710000  0.29490000  1
  C  C149  1  0.15509000  0.36565000  0.62837000  1
  C  C150  1  0.15510000  0.58830000  0.24310000  1
  C  C151  1  0.16020000  0.66700000  0.23660000  1
  C  C152  1  0.16116000  0.81563000  0.04925000  1
  C  C153  1  0.16639000  0.43482000  0.05280000  1
  C  C154  1  0.18470000  0.81470000  0.28610000  1
  C  C155  1  0.18655000  0.12339000  0.61671000  1
  C  C156  1  0.18890000  0.88930000  0.42270000  1
  C  C157  1  0.19950000  0.46890000  0.80650000  1
  C  C158  1  0.20740000  0.48150000  0.76130000  1
  C  C159  1  0.20790000  0.25310000  0.80330000  1
  C  C160  1  0.22706000  0.22998000  0.53870000  1
  C  C161  1  0.22860000  0.87060000  0.30140000  1
  C  C162  1  0.23529000  0.29302000  0.04740000  1
  C  C163  1  0.24600000  0.03060000  0.43100000  1
  C  C164  1  0.25186000  0.17235000  0.87513000  1
  C  C165  1  0.25605000  0.47380000  0.91330000  1
  C  C166  1  0.25717000  0.37086000  0.03420000  1
  C  C167  1  0.26430000  0.24690000  0.69670000  1
  C  C168  1  0.27210000  0.52920000  0.22780000  1
  C  C169  1  0.28080000  0.23310000  0.84050000  1
  C  C170  1  0.28550000  0.68530000  0.21390000  1
  C  C171  1  0.29240000  0.53060000  0.93100000  1
  C  C172  1  0.29934000  0.32765000  0.62487000  1
  C  C173  1  0.31719000  0.10548000  0.59094000  1
  C  C174  1  0.32298000  0.22460000  0.02524000  1
  C  C175  1  0.32426000  0.90148000  0.41000000  1
  C  C176  1  0.33043000  0.15222000  0.91492000  1
  C  C177  1  0.33473000  0.15984000  0.55170000  1
  C  C178  1  0.33777000  0.87086000  0.53420000  1
  C  C179  1  0.34599000  0.93482000  0.55280000  1
  C  C180  1  0.35440000  0.26690000  0.65950000  1
  C  C181  1  0.35685000  0.97380000  0.41330000  1
  C  C182  1  0.36370000  0.90520000  0.73940000  1
  C  C183  1  0.36426000  0.40148000  0.91000000  1
  C  C184  1  0.37530000  0.92390000  0.69510000  1
  C  C185  1  0.39270000  0.55290000  0.20510000  1
  C  C186  1  0.39757000  0.34778000  0.58508000  1
  C  C187  1  0.40060000  0.62940000  0.19860000  1
  C  C188  1  0.40260000  0.95170000  0.76210000  1
  C  C189  1  0.42429000  0.79302000  0.54740000  1
  C  C190  1  0.42710000  0.51950000  0.94330000  1
  C  C191  1  0.42718000  0.72460000  0.52524000  1
  C  C192  1  0.43583000  0.92334000  0.58540000  1
  C  C193  1  0.44110000  0.98240000  0.66960000  1
  C  C194  1  0.45020000  0.01850000  0.73870000  1
  C  C195  1  0.46690000  0.55340000  0.06100000  1
  C  C196  1  0.47490000  0.03110000  0.69350000  1
  C  C197  1  0.48180000  0.15630000  0.40090000  1
  C  C198  1  0.48456000  0.22078000  0.41970000  1
  C  C199  1  0.49910000  0.38930000  0.92270000  1
  C  C200  1  0.50090000  0.61070000  0.07730000  1
  C  C201  1  0.51544000  0.77922000  0.58030000  1
  C  C202  1  0.51820000  0.84370000  0.59910000  1
  C  C203  1  0.52510000  0.96890000  0.30650000  1
  C  C204  1  0.53310000  0.44660000  0.93900000  1
  C  C205  1  0.54980000  0.98150000  0.26130000  1
  C  C206  1  0.55890000  0.01760000  0.33040000  1
  C  C207  1  0.56417000  0.07666000  0.41460000  1
  C  C208  1  0.57282000  0.27540000  0.47476000  1
  C  C209  1  0.57290000  0.48050000  0.05670000  1
  C  C210  1  0.57571000  0.20698000  0.45260000  1
  C  C211  1  0.59740000  0.04830000  0.23790000  1
  C  C212  1  0.59940000  0.37060000  0.80140000  1
  C  C213  1  0.60243000  0.65222000  0.41492000  1
  C  C214  1  0.60730000  0.44710000  0.79490000  1
  C  C215  1  0.62470000  0.07610000  0.30490000  1
  C  C216  1  0.63574000  0.59852000  0.09000000  1
  C  C217  1  0.63630000  0.09480000  0.26060000  1
  C  C218  1  0.64315000  0.02620000  0.58670000  1
  C  C219  1  0.64560000  0.73310000  0.34050000  1
  C  C220  1  0.65401000  0.06518000  0.44720000  1
  C  C221  1  0.66223000  0.12914000  0.46580000  1
  C  C222  1  0.66527000  0.84016000  0.44830000  1
  C  C223  1  0.66957000  0.84778000  0.08508000  1
  C  C224  1  0.67574000  0.09852000  0.59000000  1
  C  C225  1  0.67702000  0.77540000  0.97476000  1
  C  C226  1  0.68281000  0.89452000  0.40906000  1
  C  C227  1  0.70066000  0.67235000  0.37513000  1
  C  C228  1  0.70760000  0.46940000  0.06900000  1
  C  C229  1  0.71450000  0.31470000  0.78610000  1
  C  C230  1  0.71920000  0.76690000  0.15950000  1
  C  C231  1  0.72790000  0.47080000  0.77220000  1
  C  C232  1  0.73570000  0.75310000  0.30330000  1
  C  C233  1  0.74283000  0.62914000  0.96580000  1
  C  C234  1  0.74395000  0.52620000  0.08670000  1
  C  C235  1  0.74814000  0.82765000  0.12487000  1
  C  C236  1  0.75400000  0.96940000  0.56900000  1
  C  C237  1  0.76471000  0.70698000  0.95260000  1
  C  C238  1  0.77140000  0.12940000  0.69860000  1
  C  C239  1  0.77294000  0.77002000  0.46130000  1
  C  C240  1  0.79210000  0.74690000  0.19670000  1
  C  C241  1  0.79260000  0.51850000  0.23870000  1
  C  C242  1  0.80050000  0.53110000  0.19350000  1
  C  C243  1  0.81110000  0.11070000  0.57730000  1
  C  C244  1  0.81345000  0.87661000  0.38329000  1
  C  C245  1  0.81530000  0.18530000  0.71390000  1
  C  C246  1  0.83361000  0.56518000  0.94720000  1
  C  C247  1  0.83884000  0.18437000  0.95075000  1
  C  C248  1  0.83980000  0.33300000  0.76340000  1
  C  C249  1  0.84490000  0.41170000  0.75690000  1
  C  C250  1  0.84491000  0.63435000  0.37163000  1
  C  C251  1  0.84930000  0.05290000  0.70510000  1
  C  C252  1  0.85089000  0.86565000  0.12837000  1
  C  C253  1  0.87184000  0.30844000  0.89688000  1
  C  C254  1  0.87496000  0.72078000  0.91970000  1
  C  C255  1  0.88210000  0.71350000  0.29870000  1
  C  C256  1  0.88360000  0.45170000  0.26210000  1
  C  C257  1  0.88990000  0.98050000  0.55670000  1
  C  C258  1  0.89430000  0.78650000  0.20130000  1
  C  C259  1  0.90264000  0.75560000  0.43592000  1
  C  C260  1  0.90584000  0.25560000  0.93592000  1
  C  C261  1  0.90690000  0.48240000  0.16960000  1
  C  C262  1  0.91870000  0.05340000  0.56100000  1
  C  C263  1  0.92183000  0.84624000  0.16550000  1
  C  C264  1  0.92284000  0.80844000  0.39688000  1
  C  C265  1  0.92665000  0.37661000  0.88329000  1
  C  C266  1  0.93357000  0.65376000  0.33450000  1
  C  C267  1  0.93620000  0.16700000  0.73660000  1
  C  C268  1  0.94457000  0.57666000  0.91460000  1
  C  C269  1  0.95373000  0.65984000  0.05170000  1
  C  C270  1  0.96100000  0.65630000  0.90090000  1
  C  C271  1  0.97090000  0.02920000  0.72780000  1
  C  C272  1  0.97396000  0.31563000  0.54925000  1
  C  C273  1  0.98639000  0.60548000  0.09094000  1
  C  C274  1  0.98650000  0.91170000  0.25690000  1
  C  C275  1  0.99170000  0.40520000  0.23940000  1
  C  C276  1  0.99430000  0.57610000  0.80490000  1
  C  C277  1  0.99574000  0.27002000  0.96130000  1
  O  O278  1  0.00388000  0.62303000  0.47661000  1
  O  O279  1  0.10352000  0.87697000  0.02339000  1
  O  O280  1  0.15165000  0.69416000  0.43494000  1
  O  O281  1  0.27380000  0.16254000  0.03126000  1
  O  O282  1  0.28075000  0.80584000  0.06506000  1
  O  O283  1  0.29699000  0.10012000  0.94690000  1
  O  O284  1  0.32738000  0.73580000  0.50144000  1
  O  O285  1  0.34401000  0.39988000  0.55310000  1
  O  O286  1  0.37452000  0.55910000  0.50446000  1
  O  O287  1  0.42953000  0.18798000  0.91396000  1
  O  O288  1  0.43538000  0.23580000  0.00144000  1
  O  O289  1  0.43808000  0.94090000  0.99554000  1
  O  O290  1  0.46760000  0.33746000  0.46874000  1
  O  O291  1  0.46853000  0.68798000  0.41396000  1
  O  O292  1  0.53147000  0.31202000  0.58604000  1
  O  O293  1  0.53240000  0.66254000  0.53126000  1
  O  O294  1  0.56192000  0.05910000  0.00446000  1
  O  O295  1  0.56462000  0.76420000  0.99856000  1
  O  O296  1  0.57047000  0.81202000  0.08604000  1
  O  O297  1  0.62548000  0.44090000  0.49554000  1
  O  O298  1  0.65599000  0.60012000  0.44690000  1
  O  O299  1  0.67262000  0.26420000  0.49856000  1
  O  O300  1  0.70301000  0.89988000  0.05310000  1
  O  O301  1  0.71925000  0.19416000  0.93494000  1
  O  O302  1  0.72620000  0.83746000  0.96874000  1
  O  O303  1  0.84835000  0.30584000  0.56506000  1
  O  O304  1  0.89648000  0.12303000  0.97661000  1
  O  O305  1  0.99612000  0.37697000  0.52339000  1
