# generated using pymatgen
data_TbH2C7(NO3)2
_symmetry_space_group_name_H-M   'P 1'
_cell_length_a   7.95900000
_cell_length_b   9.66400000
_cell_length_c   15.84400000
_cell_angle_alpha   90.00000000
_cell_angle_beta   90.00000000
_cell_angle_gamma   96.48900000
_symmetry_Int_Tables_number   1
_chemical_formula_structural   TbH2C7(NO3)2
_chemical_formula_sum   'Tb4 H8 C28 N8 O24'
_cell_volume   1210.84633725
_cell_formula_units_Z   4
loop_
 _symmetry_equiv_pos_site_id
 _symmetry_equiv_pos_as_xyz
  1  'x, y, z'
loop_
 _atom_site_type_symbol
 _atom_site_label
 _atom_site_symmetry_multiplicity
 _atom_site_fract_x
 _atom_site_fract_y
 _atom_site_fract_z
 _atom_site_occupancy
  Tb  Tb0  1  0.07706000  0.86668000  0.67293000  1
  Tb  Tb1  1  0.42294000  0.63332000  0.17293000  1
  Tb  Tb2  1  0.57706000  0.36668000  0.82707000  1
  Tb  Tb3  1  0.92294000  0.13332000  0.32707000  1
  H  H4  1  0.03140000  0.31504000  0.61209000  1
  H  H5  1  0.11737000  0.84707000  0.24853000  1
  H  H6  1  0.38263000  0.65293000  0.74853000  1
  H  H7  1  0.46860000  0.18496000  0.11209000  1
  H  H8  1  0.53140000  0.81504000  0.88791000  1
  H  H9  1  0.61737000  0.34707000  0.25147000  1
  H  H10  1  0.88263000  0.15293000  0.75147000  1
  H  H11  1  0.96860000  0.68496000  0.38791000  1
  C  C12  1  0.05840000  0.42290000  0.41857000  1
  C  C13  1  0.08500000  0.52640000  0.63222000  1
  C  C14  1  0.09030000  0.99040000  0.48474000  1
  C  C15  1  0.10330000  0.38560000  0.64137000  1
  C  C16  1  0.19160000  0.91770000  0.22056000  1
  C  C17  1  0.22960000  0.35270000  0.69439000  1
  C  C18  1  0.24500000  0.29590000  0.21622000  1
  C  C19  1  0.25500000  0.20410000  0.71622000  1
  C  C20  1  0.27040000  0.14730000  0.19439000  1
  C  C21  1  0.30840000  0.58230000  0.72056000  1
  C  C22  1  0.39670000  0.11440000  0.14137000  1
  C  C23  1  0.40970000  0.50960000  0.98474000  1
  C  C24  1  0.41500000  0.97360000  0.13222000  1
  C  C25  1  0.44160000  0.07710000  0.91857000  1
  C  C26  1  0.55840000  0.92290000  0.08143000  1
  C  C27  1  0.58500000  0.02640000  0.86778000  1
  C  C28  1  0.59030000  0.49040000  0.01526000  1
  C  C29  1  0.60330000  0.88560000  0.85863000  1
  C  C30  1  0.69160000  0.41770000  0.27944000  1
  C  C31  1  0.72960000  0.85270000  0.80561000  1
  C  C32  1  0.74500000  0.79590000  0.28378000  1
  C  C33  1  0.75500000  0.70410000  0.78378000  1
  C  C34  1  0.77040000  0.64730000  0.30561000  1
  C  C35  1  0.80840000  0.08230000  0.77944000  1
  C  C36  1  0.89670000  0.61440000  0.35863000  1
  C  C37  1  0.90970000  0.00960000  0.51526000  1
  C  C38  1  0.91500000  0.47360000  0.36778000  1
  C  C39  1  0.94160000  0.57710000  0.58143000  1
  N  N40  1  0.16530000  0.04910000  0.23339000  1
  N  N41  1  0.18690000  0.62430000  0.67181000  1
  N  N42  1  0.31310000  0.87570000  0.17181000  1
  N  N43  1  0.33470000  0.45090000  0.73339000  1
  N  N44  1  0.66530000  0.54910000  0.26661000  1
  N  N45  1  0.68690000  0.12430000  0.82819000  1
  N  N46  1  0.81310000  0.37570000  0.32819000  1
  N  N47  1  0.83470000  0.95090000  0.76661000  1
  O  O48  1  0.04990000  0.29287000  0.42919000  1
  O  O49  1  0.11980000  0.31260000  0.26121000  1
  O  O50  1  0.12550000  0.02308000  0.40965000  1
  O  O51  1  0.14820000  0.11009000  0.68929000  1
  O  O52  1  0.17270000  0.51140000  0.44318000  1
  O  O53  1  0.18750000  0.94310000  0.53632000  1
  O  O54  1  0.31250000  0.55690000  0.03632000  1
  O  O55  1  0.32730000  0.98860000  0.94318000  1
  O  O56  1  0.35180000  0.38991000  0.18929000  1
  O  O57  1  0.37450000  0.47692000  0.90965000  1
  O  O58  1  0.38020000  0.18740000  0.76121000  1
  O  O59  1  0.45010000  0.20713000  0.92919000  1
  O  O60  1  0.54990000  0.79287000  0.07081000  1
  O  O61  1  0.61980000  0.81260000  0.23879000  1
  O  O62  1  0.62550000  0.52308000  0.09035000  1
  O  O63  1  0.64820000  0.61009000  0.81071000  1
  O  O64  1  0.67270000  0.01140000  0.05682000  1
  O  O65  1  0.68750000  0.44310000  0.96368000  1
  O  O66  1  0.81250000  0.05690000  0.46368000  1
  O  O67  1  0.82730000  0.48860000  0.55682000  1
  O  O68  1  0.85180000  0.88991000  0.31071000  1
  O  O69  1  0.87450000  0.97692000  0.59035000  1
  O  O70  1  0.88020000  0.68740000  0.73879000  1
  O  O71  1  0.95010000  0.70713000  0.57081000  1
