# generated using pymatgen
data_DyH2C7(NO3)2
_symmetry_space_group_name_H-M   'P 1'
_cell_length_a   6.05350000
_cell_length_b   9.91590000
_cell_length_c   13.29030000
_cell_angle_alpha   68.83200000
_cell_angle_beta   81.27300000
_cell_angle_gamma   76.87500000
_symmetry_Int_Tables_number   1
_chemical_formula_structural   DyH2C7(NO3)2
_chemical_formula_sum   'Dy2 H4 C14 N4 O12'
_cell_volume   722.36126779
_cell_formula_units_Z   2
loop_
 _symmetry_equiv_pos_site_id
 _symmetry_equiv_pos_as_xyz
  1  'x, y, z'
loop_
 _atom_site_type_symbol
 _atom_site_label
 _atom_site_symmetry_multiplicity
 _atom_site_fract_x
 _atom_site_fract_y
 _atom_site_fract_z
 _atom_site_occupancy
  Dy  Dy0  1  0.16536000  0.38618000  0.80489000  1
  Dy  Dy1  1  0.83464000  0.61382000  0.19511000  1
  H  H2  1  0.29450000  0.67860000  0.37140000  1
  H  H3  1  0.32660000  0.04760000  0.02920000  1
  H  H4  1  0.67340000  0.95240000  0.97080000  1
  H  H5  1  0.70550000  0.32140000  0.62860000  1
  C  C6  1  0.04920000  0.61830000  0.56130000  1
  C  C7  1  0.08920000  0.43900000  0.03430000  1
  C  C8  1  0.13660000  0.89290000  0.06960000  1
  C  C9  1  0.19160000  0.02960000  0.01580000  1
  C  C10  1  0.28920000  0.55520000  0.52810000  1
  C  C11  1  0.28940000  0.76470000  0.14170000  1
  C  C12  1  0.38180000  0.60400000  0.42310000  1
  C  C13  1  0.61820000  0.39600000  0.57690000  1
  C  C14  1  0.71060000  0.23530000  0.85830000  1
  C  C15  1  0.71080000  0.44480000  0.47190000  1
  C  C16  1  0.80840000  0.97040000  0.98420000  1
  C  C17  1  0.86340000  0.10710000  0.93040000  1
  C  C18  1  0.91080000  0.56100000  0.96570000  1
  C  C19  1  0.95080000  0.38170000  0.43870000  1
  N  N20  1  0.06110000  0.13610000  0.94610000  1
  N  N21  1  0.40700000  0.45210000  0.60700000  1
  N  N22  1  0.59300000  0.54790000  0.39300000  1
  N  N23  1  0.93890000  0.86390000  0.05390000  1
  O  O24  1  0.01560000  0.43250000  0.34060000  1
  O  O25  1  0.07180000  0.28940000  0.50930000  1
  O  O26  1  0.08430000  0.42930000  0.13080000  1
  O  O27  1  0.21620000  0.64690000  0.18400000  1
  O  O28  1  0.22570000  0.36120000  0.98680000  1
  O  O29  1  0.48340000  0.78110000  0.15250000  1
  O  O30  1  0.51660000  0.21890000  0.84750000  1
  O  O31  1  0.77430000  0.63880000  0.01320000  1
  O  O32  1  0.78380000  0.35310000  0.81600000  1
  O  O33  1  0.91570000  0.57070000  0.86920000  1
  O  O34  1  0.92820000  0.71060000  0.49070000  1
  O  O35  1  0.98440000  0.56750000  0.65940000  1
