# generated using pymatgen
data_CdH26C32(NO)4
_symmetry_space_group_name_H-M   'P 1'
_cell_length_a   10.31200000
_cell_length_b   13.91900000
_cell_length_c   14.17400000
_cell_angle_alpha   88.35000000
_cell_angle_beta   69.28700000
_cell_angle_gamma   74.72700000
_symmetry_Int_Tables_number   1
_chemical_formula_structural   CdH26C32(NO)4
_chemical_formula_sum   'Cd2 H52 C64 N8 O8'
_cell_volume   1831.04881431
_cell_formula_units_Z   2
loop_
 _symmetry_equiv_pos_site_id
 _symmetry_equiv_pos_as_xyz
  1  'x, y, z'
loop_
 _atom_site_type_symbol
 _atom_site_label
 _atom_site_symmetry_multiplicity
 _atom_site_fract_x
 _atom_site_fract_y
 _atom_site_fract_z
 _atom_site_occupancy
  Cd  Cd0  1  0.43904000  0.55318000  0.63386000  1
  Cd  Cd1  1  0.56096000  0.44682000  0.36614000  1
  H  H2  1  0.04340000  0.13950000  0.67890000  1
  H  H3  1  0.06090000  0.22530000  0.95510000  1
  H  H4  1  0.07090000  0.52040000  0.33650000  1
  H  H5  1  0.07460000  0.85330000  0.56720000  1
  H  H6  1  0.09760000  0.63940000  0.61440000  1
  H  H7  1  0.10040000  0.75630000  0.03460000  1
  H  H8  1  0.11330000  0.06930000  0.85520000  1
  H  H9  1  0.13060000  0.90130000  0.85190000  1
  H  H10  1  0.14110000  0.45570000  0.50070000  1
  H  H11  1  0.14320000  0.28710000  0.35600000  1
  H  H12  1  0.15780000  0.04720000  0.35960000  1
  H  H13  1  0.17800000  0.76500000  0.21790000  1
  H  H14  1  0.20560000  0.21130000  0.56670000  1
  H  H15  1  0.20790000  0.17710000  0.07860000  1
  H  H16  1  0.25910000  0.35340000  0.47610000  1
  H  H17  1  0.27670000  0.51260000  0.16510000  1
  H  H18  1  0.28780000  0.66340000  0.87180000  1
  H  H19  1  0.28970000  0.82230000  0.35730000  1
  H  H20  1  0.29350000  0.19630000  0.20590000  1
  H  H21  1  0.31560000  0.02220000  0.54170000  1
  H  H22  1  0.33990000  0.60500000  0.14810000  1
  H  H23  1  0.35110000  0.91330000  0.36140000  1
  H  H24  1  0.37210000  0.05790000  0.67850000  1
  H  H25  1  0.38300000  0.67820000  0.44470000  1
  H  H26  1  0.46690000  0.93360000  0.76380000  1
  H  H27  1  0.49880000  0.23280000  0.27880000  1
  H  H28  1  0.50120000  0.76720000  0.72120000  1
  H  H29  1  0.53310000  0.06640000  0.23620000  1
  H  H30  1  0.61700000  0.32180000  0.55530000  1
  H  H31  1  0.62790000  0.94210000  0.32150000  1
  H  H32  1  0.64890000  0.08670000  0.63860000  1
  H  H33  1  0.66010000  0.39500000  0.85190000  1
  H  H34  1  0.68440000  0.97780000  0.45830000  1
  H  H35  1  0.70650000  0.80370000  0.79410000  1
  H  H36  1  0.71030000  0.17770000  0.64270000  1
  H  H37  1  0.71220000  0.33660000  0.12820000  1
  H  H38  1  0.72330000  0.48740000  0.83490000  1
  H  H39  1  0.74090000  0.64660000  0.52390000  1
  H  H40  1  0.79210000  0.82290000  0.92140000  1
  H  H41  1  0.79440000  0.78870000  0.43330000  1
  H  H42  1  0.82200000  0.23500000  0.78210000  1
  H  H43  1  0.84220000  0.95280000  0.64040000  1
  H  H44  1  0.85680000  0.71290000  0.64400000  1
  H  H45  1  0.85890000  0.54430000  0.49930000  1
  H  H46  1  0.86940000  0.09870000  0.14810000  1
  H  H47  1  0.88670000  0.93070000  0.14480000  1
  H  H48  1  0.89960000  0.24370000  0.96540000  1
  H  H49  1  0.90240000  0.36060000  0.38560000  1
  H  H50  1  0.92540000  0.14670000  0.43280000  1
  H  H51  1  0.92910000  0.47960000  0.66350000  1
  H  H52  1  0.93910000  0.77470000  0.04490000  1
  H  H53  1  0.95660000  0.86050000  0.32110000  1
  C  C54  1  0.00490000  0.26050000  0.15690000  1
  C  C55  1  0.01510000  0.89760000  0.99890000  1
  C  C56  1  0.01960000  0.20840000  0.67560000  1
  C  C57  1  0.03080000  0.78540000  0.00300000  1
  C  C58  1  0.03700000  0.67460000  0.67570000  1
  C  C59  1  0.04500000  0.91240000  0.53900000  1
  C  C60  1  0.04780000  0.58940000  0.33350000  1
  C  C61  1  0.06630000  0.04170000  0.91370000  1
  C  C62  1  0.07870000  0.94070000  0.91210000  1
  C  C63  1  0.08550000  0.35400000  0.60240000  1
  C  C64  1  0.08780000  0.68420000  0.75310000  1
  C  C65  1  0.09420000  0.02700000  0.41620000  1
  C  C66  1  0.10610000  0.28070000  0.30620000  1
  C  C67  1  0.11230000  0.73460000  0.26210000  1
  C  C68  1  0.11710000  0.25150000  0.60860000  1
  C  C69  1  0.13920000  0.93880000  0.45360000  1
  C  C70  1  0.14780000  0.63100000  0.26530000  1
  C  C71  1  0.14800000  0.21420000  0.13900000  1
  C  C72  1  0.19260000  0.40250000  0.53050000  1
  C  C73  1  0.19740000  0.22570000  0.21510000  1
  C  C74  1  0.21200000  0.67800000  0.84790000  1
  C  C75  1  0.27890000  0.44550000  0.57660000  1
  C  C76  1  0.29110000  0.87300000  0.40210000  1
  C  C77  1  0.29210000  0.56550000  0.19940000  1
  C  C78  1  0.35260000  0.97160000  0.57710000  1
  C  C79  1  0.37620000  0.87110000  0.55060000  1
  C  C80  1  0.38690000  0.99180000  0.65800000  1
  C  C81  1  0.38960000  0.72580000  0.48620000  1
  C  C82  1  0.39020000  0.51910000  0.25520000  1
  C  C83  1  0.42930000  0.79500000  0.60370000  1
  C  C84  1  0.44310000  0.91650000  0.71030000  1
  C  C85  1  0.46460000  0.81730000  0.68520000  1
  C  C86  1  0.53540000  0.18270000  0.31480000  1
  C  C87  1  0.55690000  0.08350000  0.28970000  1
  C  C88  1  0.57070000  0.20500000  0.39630000  1
  C  C89  1  0.60980000  0.48090000  0.74480000  1
  C  C90  1  0.61040000  0.27420000  0.51380000  1
  C  C91  1  0.61310000  0.00820000  0.34200000  1
  C  C92  1  0.62380000  0.12890000  0.44940000  1
  C  C93  1  0.64740000  0.02840000  0.42290000  1
  C  C94  1  0.70790000  0.43450000  0.80060000  1
  C  C95  1  0.70890000  0.12700000  0.59790000  1
  C  C96  1  0.72110000  0.55450000  0.42340000  1
  C  C97  1  0.78800000  0.32200000  0.15210000  1
  C  C98  1  0.80260000  0.77430000  0.78490000  1
  C  C99  1  0.80740000  0.59750000  0.46950000  1
  C  C100  1  0.85200000  0.78580000  0.86100000  1
  C  C101  1  0.85220000  0.36900000  0.73470000  1
  C  C102  1  0.86080000  0.06120000  0.54640000  1
  C  C103  1  0.88290000  0.74850000  0.39140000  1
  C  C104  1  0.88770000  0.26540000  0.73790000  1
  C  C105  1  0.89390000  0.71930000  0.69380000  1
  C  C106  1  0.90580000  0.97300000  0.58380000  1
  C  C107  1  0.91220000  0.31580000  0.24690000  1
  C  C108  1  0.91450000  0.64600000  0.39760000  1
  C  C109  1  0.92130000  0.05930000  0.08790000  1
  C  C110  1  0.93370000  0.95830000  0.08630000  1
  C  C111  1  0.95220000  0.41060000  0.66650000  1
  C  C112  1  0.95500000  0.08760000  0.46100000  1
  C  C113  1  0.96300000  0.32540000  0.32430000  1
  C  C114  1  0.96920000  0.21460000  0.99700000  1
  C  C115  1  0.98040000  0.79160000  0.32440000  1
  C  C116  1  0.98490000  0.10240000  0.00110000  1
  C  C117  1  0.99510000  0.73950000  0.84310000  1
  N  N118  1  0.07750000  0.73430000  0.90290000  1
  N  N119  1  0.22480000  0.64620000  0.75800000  1
  N  N120  1  0.35330000  0.82480000  0.47500000  1
  N  N121  1  0.43520000  0.70350000  0.56180000  1
  N  N122  1  0.56480000  0.29650000  0.43820000  1
  N  N123  1  0.64670000  0.17520000  0.52500000  1
  N  N124  1  0.77520000  0.35380000  0.24200000  1
  N  N125  1  0.92250000  0.26570000  0.09710000  1
  O  O126  1  0.28220000  0.42430000  0.66060000  1
  O  O127  1  0.34750000  0.50420000  0.52270000  1
  O  O128  1  0.41780000  0.57360000  0.30870000  1
  O  O129  1  0.44590000  0.42670000  0.24560000  1
  O  O130  1  0.55410000  0.57330000  0.75440000  1
  O  O131  1  0.58220000  0.42640000  0.69130000  1
  O  O132  1  0.65250000  0.49580000  0.47730000  1
  O  O133  1  0.71780000  0.57570000  0.33940000  1
