# generated using pymatgen
data_CoH5C10N5(ClO)2
_symmetry_space_group_name_H-M   'P 1'
_cell_length_a   19.64590000
_cell_length_b   26.11300000
_cell_length_c   26.11300000
_cell_angle_alpha   120.00000000
_cell_angle_beta   90.00000000
_cell_angle_gamma   90.00000000
_symmetry_Int_Tables_number   1
_chemical_formula_structural   CoH5C10N5(ClO)2
_chemical_formula_sum   'Co24 H120 C240 N120 Cl48 O48'
_cell_volume   11601.55219612
_cell_formula_units_Z   24
loop_
 _symmetry_equiv_pos_site_id
 _symmetry_equiv_pos_as_xyz
  1  'x, y, z'
loop_
 _atom_site_type_symbol
 _atom_site_label
 _atom_site_symmetry_multiplicity
 _atom_site_fract_x
 _atom_site_fract_y
 _atom_site_fract_z
 _atom_site_occupancy
  Co  Co0  1  0.40179000  0.89739000  0.33284000  1
  Co  Co1  1  0.09821000  0.89739000  0.33284000  1
  Co  Co2  1  0.40179000  0.89739000  0.56455000  1
  Co  Co3  1  0.09821000  0.89739000  0.56455000  1
  Co  Co4  1  0.40179000  0.66716000  0.10261000  1
  Co  Co5  1  0.09821000  0.66716000  0.10261000  1
  Co  Co6  1  0.40179000  0.66716000  0.56455000  1
  Co  Co7  1  0.09821000  0.66716000  0.56455000  1
  Co  Co8  1  0.90179000  0.56455000  0.66716000  1
  Co  Co9  1  0.59821000  0.56455000  0.66716000  1
  Co  Co10  1  0.90179000  0.56455000  0.89739000  1
  Co  Co11  1  0.59821000  0.56455000  0.89739000  1
  Co  Co12  1  0.40179000  0.43545000  0.10261000  1
  Co  Co13  1  0.09821000  0.43545000  0.10261000  1
  Co  Co14  1  0.40179000  0.43545000  0.33284000  1
  Co  Co15  1  0.09821000  0.43545000  0.33284000  1
  Co  Co16  1  0.90179000  0.33284000  0.43545000  1
  Co  Co17  1  0.59821000  0.33284000  0.43545000  1
  Co  Co18  1  0.90179000  0.33284000  0.89739000  1
  Co  Co19  1  0.59821000  0.33284000  0.89739000  1
  Co  Co20  1  0.90179000  0.10261000  0.43545000  1
  Co  Co21  1  0.59821000  0.10261000  0.43545000  1
  Co  Co22  1  0.90179000  0.10261000  0.66716000  1
  Co  Co23  1  0.59821000  0.10261000  0.66716000  1
  H  H24  1  0.00000000  1.00000000  0.42190000  1
  H  H25  1  0.50000000  1.00000000  0.42190000  1
  H  H26  1  0.00000000  1.00000000  0.57810000  1
  H  H27  1  0.50000000  1.00000000  0.57810000  1
  H  H28  1  0.31210000  0.99630000  0.31890000  1
  H  H29  1  0.18790000  0.99630000  0.31890000  1
  H  H30  1  0.31210000  0.99630000  0.67740000  1
  H  H31  1  0.18790000  0.99630000  0.67740000  1
  H  H32  1  0.41810000  0.92410000  0.22390000  1
  H  H33  1  0.08190000  0.92410000  0.22390000  1
  H  H34  1  0.41810000  0.92410000  0.70020000  1
  H  H35  1  0.08190000  0.92410000  0.70020000  1
  H  H36  1  0.93500000  0.87970000  0.30110000  1
  H  H37  1  0.56500000  0.87970000  0.30110000  1
  H  H38  1  0.93500000  0.87970000  0.57860000  1
  H  H39  1  0.56500000  0.87970000  0.57860000  1
  H  H40  1  0.99850000  0.81670000  0.36000000  1
  H  H41  1  0.50150000  0.81670000  0.36000000  1
  H  H42  1  0.99850000  0.81670000  0.45670000  1
  H  H43  1  0.50150000  0.81670000  0.45670000  1
  H  H44  1  0.35380000  0.78130000  0.21870000  1
  H  H45  1  0.14620000  0.78130000  0.21870000  1
  H  H46  1  0.35380000  0.78130000  0.56260000  1
  H  H47  1  0.14620000  0.78130000  0.56260000  1
  H  H48  1  0.41810000  0.77610000  0.07590000  1
  H  H49  1  0.08190000  0.77610000  0.07590000  1
  H  H50  1  0.41810000  0.77610000  0.70020000  1
  H  H51  1  0.08190000  0.77610000  0.70020000  1
  H  H52  1  0.91810000  0.70020000  0.77610000  1
  H  H53  1  0.58190000  0.70020000  0.77610000  1
  H  H54  1  0.91810000  0.70020000  0.92410000  1
  H  H55  1  0.58190000  0.70020000  0.92410000  1
  H  H56  1  0.93500000  0.69890000  0.12030000  1
  H  H57  1  0.56500000  0.69890000  0.12030000  1
  H  H58  1  0.93500000  0.69890000  0.57860000  1
  H  H59  1  0.56500000  0.69890000  0.57860000  1
  H  H60  1  0.31210000  0.68110000  0.00370000  1
  H  H61  1  0.18790000  0.68110000  0.00370000  1
  H  H62  1  0.31210000  0.68110000  0.67740000  1
  H  H63  1  0.18790000  0.68110000  0.67740000  1
  H  H64  1  0.81210000  0.67740000  0.68110000  1
  H  H65  1  0.68790000  0.67740000  0.68110000  1
  H  H66  1  0.81210000  0.67740000  0.99630000  1
  H  H67  1  0.68790000  0.67740000  0.99630000  1
  H  H68  1  0.99850000  0.64000000  0.18330000  1
  H  H69  1  0.50150000  0.64000000  0.18330000  1
  H  H70  1  0.99850000  0.64000000  0.45670000  1
  H  H71  1  0.50150000  0.64000000  0.45670000  1
  H  H72  1  0.43500000  0.57860000  0.69890000  1
  H  H73  1  0.06500000  0.57860000  0.69890000  1
  H  H74  1  0.43500000  0.57860000  0.87970000  1
  H  H75  1  0.06500000  0.57860000  0.87970000  1
  H  H76  1  1.00000000  0.57810000  0.57810000  1
  H  H77  1  0.50000000  0.57810000  0.57810000  1
  H  H78  1  1.00000000  0.57810000  0.00000000  1
  H  H79  1  0.50000000  0.57810000  0.00000000  1
  H  H80  1  0.85380000  0.56260000  0.78130000  1
  H  H81  1  0.64620000  0.56260000  0.78130000  1
  H  H82  1  0.99850000  0.54330000  0.18330000  1
  H  H83  1  0.50150000  0.54330000  0.18330000  1
  H  H84  1  0.99850000  0.54330000  0.36000000  1
  H  H85  1  0.50150000  0.54330000  0.36000000  1
  H  H86  1  0.49850000  0.45670000  0.64000000  1
  H  H87  1  0.00150000  0.45670000  0.64000000  1
  H  H88  1  0.49850000  0.45670000  0.81670000  1
  H  H89  1  0.00150000  0.45670000  0.81670000  1
  H  H90  1  0.35380000  0.43740000  0.21870000  1
  H  H91  1  0.14620000  0.43740000  0.21870000  1
  H  H92  1  1.00000000  0.42190000  0.42190000  1
  H  H93  1  0.50000000  0.42190000  0.42190000  1
  H  H94  1  1.00000000  0.42190000  0.00000000  1
  H  H95  1  0.50000000  0.42190000  0.00000000  1
  H  H96  1  0.93500000  0.42140000  0.12030000  1
  H  H97  1  0.56500000  0.42140000  0.12030000  1
  H  H98  1  0.93500000  0.42140000  0.30110000  1
  H  H99  1  0.56500000  0.42140000  0.30110000  1
  H  H100  1  0.49850000  0.36000000  0.54330000  1
  H  H101  1  0.00150000  0.36000000  0.54330000  1
  H  H102  1  0.49850000  0.36000000  0.81670000  1
  H  H103  1  0.00150000  0.36000000  0.81670000  1
  H  H104  1  0.31210000  0.32260000  0.00370000  1
  H  H105  1  0.18790000  0.32260000  0.00370000  1
  H  H106  1  0.31210000  0.32260000  0.31890000  1
  H  H107  1  0.18790000  0.32260000  0.31890000  1
  H  H108  1  0.81210000  0.31890000  0.32260000  1
  H  H109  1  0.68790000  0.31890000  0.32260000  1
  H  H110  1  0.81210000  0.31890000  0.99630000  1
  H  H111  1  0.68790000  0.31890000  0.99630000  1
  H  H112  1  0.43500000  0.30110000  0.42140000  1
  H  H113  1  0.06500000  0.30110000  0.42140000  1
  H  H114  1  0.43500000  0.30110000  0.87970000  1
  H  H115  1  0.06500000  0.30110000  0.87970000  1
  H  H116  1  0.41810000  0.29980000  0.07590000  1
  H  H117  1  0.08190000  0.29980000  0.07590000  1
  H  H118  1  0.41810000  0.29980000  0.22390000  1
  H  H119  1  0.08190000  0.29980000  0.22390000  1
  H  H120  1  0.91810000  0.22390000  0.29980000  1
  H  H121  1  0.58190000  0.22390000  0.29980000  1
  H  H122  1  0.91810000  0.22390000  0.92410000  1
  H  H123  1  0.58190000  0.22390000  0.92410000  1
  H  H124  1  0.85380000  0.21870000  0.43740000  1
  H  H125  1  0.64620000  0.21870000  0.43740000  1
  H  H126  1  0.85380000  0.21870000  0.78130000  1
  H  H127  1  0.64620000  0.21870000  0.78130000  1
  H  H128  1  0.49850000  0.18330000  0.54330000  1
  H  H129  1  0.00150000  0.18330000  0.54330000  1
  H  H130  1  0.49850000  0.18330000  0.64000000  1
  H  H131  1  0.00150000  0.18330000  0.64000000  1
  H  H132  1  0.43500000  0.12030000  0.42140000  1
  H  H133  1  0.06500000  0.12030000  0.42140000  1
  H  H134  1  0.43500000  0.12030000  0.69890000  1
  H  H135  1  0.06500000  0.12030000  0.69890000  1
  H  H136  1  0.91810000  0.07590000  0.29980000  1
  H  H137  1  0.58190000  0.07590000  0.29980000  1
  H  H138  1  0.91810000  0.07590000  0.77610000  1
  H  H139  1  0.58190000  0.07590000  0.77610000  1
  H  H140  1  0.81210000  0.00370000  0.32260000  1
  H  H141  1  0.68790000  0.00370000  0.32260000  1
  H  H142  1  0.81210000  0.00370000  0.68110000  1
  H  H143  1  0.68790000  0.00370000  0.68110000  1
  C  C144  1  0.00000000  1.00000000  0.38630000  1
  C  C145  1  0.50000000  1.00000000  0.38630000  1
  C  C146  1  0.00000000  1.00000000  0.61370000  1
  C  C147  1  0.50000000  1.00000000  0.61370000  1
  C  C148  1  0.47400000  0.97900000  0.20640000  1
  C  C149  1  0.02600000  0.97900000  0.20640000  1
  C  C150  1  0.47400000  0.97900000  0.77260000  1
  C  C151  1  0.02600000  0.97900000  0.77260000  1
  C  C152  1  0.47480000  0.97690000  0.29680000  1
  C  C153  1  0.02520000  0.97690000  0.29680000  1
  C  C154  1  0.47480000  0.97690000  0.68010000  1
  C  C155  1  0.02520000  0.97690000  0.68010000  1
  C  C156  1  0.28500000  0.96740000  0.31930000  1
  C  C157  1  0.21500000  0.96740000  0.31930000  1
  C  C158  1  0.28500000  0.96740000  0.64810000  1
  C  C159  1  0.21500000  0.96740000  0.64810000  1
  C  C160  1  0.44990000  0.95450000  0.23950000  1
  C  C161  1  0.05010000  0.95450000  0.23950000  1
  C  C162  1  0.44990000  0.95450000  0.71500000  1
  C  C163  1  0.05010000  0.95450000  0.71500000  1
  C  C164  1  0.41100000  0.90390000  0.45195000  1
  C  C165  1  0.08900000  0.90390000  0.45195000  1
  C  C166  1  0.25000000  0.89370000  0.32260000  1
  C  C167  1  0.25000000  0.89370000  0.57110000  1
  C  C168  1  0.93510000  0.84380000  0.26570000  1
  C  C169  1  0.56490000  0.84380000  0.26570000  1
  C  C170  1  0.93510000  0.84380000  0.57810000  1
  C  C171  1  0.56490000  0.84380000  0.57810000  1
  C  C172  1  0.47470000  0.84050000  0.39280000  1
  C  C173  1  0.02530000  0.84050000  0.39280000  1
  C  C174  1  0.47470000  0.84050000  0.44770000  1
  C  C175  1  0.02530000  0.84050000  0.44770000  1
  C  C176  1  0.87710000  0.82030000  0.23740000  1
  C  C177  1  0.62290000  0.82030000  0.23740000  1
  C  C178  1  0.87710000  0.82030000  0.58290000  1
  C  C179  1  0.62290000  0.82030000  0.58290000  1
  C  C180  1  0.99660000  0.81370000  0.24180000  1
  C  C181  1  0.50340000  0.81370000  0.24180000  1
  C  C182  1  0.99660000  0.81370000  0.57190000  1
  C  C183  1  0.50340000  0.81370000  0.57190000  1
  C  C184  1  0.47400000  0.79360000  0.02100000  1
  C  C185  1  0.02600000  0.79360000  0.02100000  1
  C  C186  1  0.47400000  0.79360000  0.77260000  1
  C  C187  1  0.02600000  0.79360000  0.77260000  1
  C  C188  1  0.40100000  0.78285000  0.21715000  1
  C  C189  1  0.09900000  0.78285000  0.21715000  1
  C  C190  1  0.40100000  0.78285000  0.56570000  1
  C  C191  1  0.09900000  0.78285000  0.56570000  1
  C  C192  1  0.97400000  0.77260000  0.79360000  1
  C  C193  1  0.52600000  0.77260000  0.79360000  1
  C  C194  1  0.97400000  0.77260000  0.97900000  1
  C  C195  1  0.52600000  0.77260000  0.97900000  1
  C  C196  1  0.87710000  0.76260000  0.17970000  1
  C  C197  1  0.62290000  0.76260000  0.17970000  1
  C  C198  1  0.87710000  0.76260000  0.58290000  1
  C  C199  1  0.62290000  0.76260000  0.58290000  1
  C  C200  1  0.44990000  0.76050000  0.04550000  1
  C  C201  1  0.05010000  0.76050000  0.04550000  1
  C  C202  1  0.44990000  0.76050000  0.71500000  1
  C  C203  1  0.05010000  0.76050000  0.71500000  1
  C  C204  1  0.99660000  0.75820000  0.18630000  1
  C  C205  1  0.50340000  0.75820000  0.18630000  1
  C  C206  1  0.99660000  0.75820000  0.57190000  1
  C  C207  1  0.50340000  0.75820000  0.57190000  1
  C  C208  1  0.93510000  0.73430000  0.15620000  1
  C  C209  1  0.56490000  0.73430000  0.15620000  1
  C  C210  1  0.93510000  0.73430000  0.57810000  1
  C  C211  1  0.56490000  0.73430000  0.57810000  1
  C  C212  1  0.94990000  0.71500000  0.76050000  1
  C  C213  1  0.55010000  0.71500000  0.76050000  1
  C  C214  1  0.94990000  0.71500000  0.95450000  1
  C  C215  1  0.55010000  0.71500000  0.95450000  1
  C  C216  1  0.47480000  0.70320000  0.02310000  1
  C  C217  1  0.02520000  0.70320000  0.02310000  1
  C  C218  1  0.47480000  0.70320000  0.68010000  1
  C  C219  1  0.02520000  0.70320000  0.68010000  1
  C  C220  1  0.28500000  0.68070000  0.03260000  1
  C  C221  1  0.21500000  0.68070000  0.03260000  1
  C  C222  1  0.28500000  0.68070000  0.64810000  1
  C  C223  1  0.21500000  0.68070000  0.64810000  1
  C  C224  1  0.97480000  0.68010000  0.70320000  1
  C  C225  1  0.52520000  0.68010000  0.70320000  1
  C  C226  1  0.97480000  0.68010000  0.97690000  1
  C  C227  1  0.52520000  0.68010000  0.97690000  1
  C  C228  1  0.25000000  0.67740000  0.10630000  1
  C  C229  1  0.25000000  0.67740000  0.57110000  1
  C  C230  1  0.78500000  0.64810000  0.68070000  1
  C  C231  1  0.71500000  0.64810000  0.68070000  1
  C  C232  1  0.78500000  0.64810000  0.96740000  1
  C  C233  1  0.71500000  0.64810000  0.96740000  1
  C  C234  1  1.00000000  0.61370000  0.61370000  1
  C  C235  1  0.50000000  0.61370000  0.61370000  1
  C  C236  1  0.00000000  0.61370000  0.00000000  1
  C  C237  1  0.50000000  0.61370000  0.00000000  1
  C  C238  1  0.47470000  0.60720000  0.15950000  1
  C  C239  1  0.02530000  0.60720000  0.15950000  1
  C  C240  1  0.47470000  0.60720000  0.44770000  1
  C  C241  1  0.02530000  0.60720000  0.44770000  1
  C  C242  1  0.37710000  0.58290000  0.76260000  1
  C  C243  1  0.12290000  0.58290000  0.76260000  1
  C  C244  1  0.37710000  0.58290000  0.82030000  1
  C  C245  1  0.12290000  0.58290000  0.82030000  1
  C  C246  1  0.43510000  0.57810000  0.73430000  1
  C  C247  1  0.06490000  0.57810000  0.73430000  1
  C  C248  1  0.43510000  0.57810000  0.84380000  1
  C  C249  1  0.06490000  0.57810000  0.84380000  1
  C  C250  1  0.49660000  0.57190000  0.75820000  1
  C  C251  1  0.00340000  0.57190000  0.75820000  1
  C  C252  1  0.49660000  0.57190000  0.81370000  1
  C  C253  1  0.00340000  0.57190000  0.81370000  1
  C  C254  1  0.75000000  0.57110000  0.67740000  1
  C  C255  1  0.75000000  0.57110000  0.89370000  1
  C  C256  1  0.90100000  0.56570000  0.78285000  1
  C  C257  1  0.59900000  0.56570000  0.78285000  1
  C  C258  1  0.47470000  0.55230000  0.15950000  1
  C  C259  1  0.02530000  0.55230000  0.15950000  1
  C  C260  1  0.47470000  0.55230000  0.39280000  1
  C  C261  1  0.02530000  0.55230000  0.39280000  1
  C  C262  1  0.41100000  0.54805000  0.09610000  1
  C  C263  1  0.08900000  0.54805000  0.09610000  1
  C  C264  1  0.41100000  0.54805000  0.45195000  1
  C  C265  1  0.08900000  0.54805000  0.45195000  1
  C  C266  1  0.91100000  0.45195000  0.54805000  1
  C  C267  1  0.58900000  0.45195000  0.54805000  1
  C  C268  1  0.91100000  0.45195000  0.90390000  1
  C  C269  1  0.58900000  0.45195000  0.90390000  1
  C  C270  1  0.97470000  0.44770000  0.60720000  1
  C  C271  1  0.52530000  0.44770000  0.60720000  1
  C  C272  1  0.97470000  0.44770000  0.84050000  1
  C  C273  1  0.52530000  0.44770000  0.84050000  1
  C  C274  1  0.40100000  0.43430000  0.21715000  1
  C  C275  1  0.09900000  0.43430000  0.21715000  1
  C  C276  1  0.25000000  0.42890000  0.10630000  1
  C  C277  1  0.25000000  0.42890000  0.32260000  1
  C  C278  1  0.99660000  0.42810000  0.18630000  1
  C  C279  1  0.50340000  0.42810000  0.18630000  1
  C  C280  1  0.99660000  0.42810000  0.24180000  1
  C  C281  1  0.50340000  0.42810000  0.24180000  1
  C  C282  1  0.93510000  0.42190000  0.15620000  1
  C  C283  1  0.56490000  0.42190000  0.15620000  1
  C  C284  1  0.93510000  0.42190000  0.26570000  1
  C  C285  1  0.56490000  0.42190000  0.26570000  1
  C  C286  1  0.87710000  0.41710000  0.17970000  1
  C  C287  1  0.62290000  0.41710000  0.17970000  1
  C  C288  1  0.87710000  0.41710000  0.23740000  1
  C  C289  1  0.62290000  0.41710000  0.23740000  1
  C  C290  1  0.97470000  0.39280000  0.55230000  1
  C  C291  1  0.52530000  0.39280000  0.55230000  1
  C  C292  1  0.97470000  0.39280000  0.84050000  1
  C  C293  1  0.52530000  0.39280000  0.84050000  1
  C  C294  1  1.00000000  0.38630000  0.38630000  1
  C  C295  1  0.50000000  0.38630000  0.38630000  1
  C  C296  1  0.00000000  0.38630000  1.00000000  1
  C  C297  1  0.50000000  0.38630000  1.00000000  1
  C  C298  1  0.28500000  0.35190000  0.03260000  1
  C  C299  1  0.21500000  0.35190000  0.03260000  1
  C  C300  1  0.28500000  0.35190000  0.31930000  1
  C  C301  1  0.21500000  0.35190000  0.31930000  1
  C  C302  1  0.75000000  0.32260000  0.42890000  1
  C  C303  1  0.75000000  0.32260000  0.89370000  1
  C  C304  1  0.47480000  0.31990000  0.02310000  1
  C  C305  1  0.02520000  0.31990000  0.02310000  1
  C  C306  1  0.47480000  0.31990000  0.29680000  1
  C  C307  1  0.02520000  0.31990000  0.29680000  1
  C  C308  1  0.78500000  0.31930000  0.35190000  1
  C  C309  1  0.71500000  0.31930000  0.35190000  1
  C  C310  1  0.78500000  0.31930000  0.96740000  1
  C  C311  1  0.71500000  0.31930000  0.96740000  1
  C  C312  1  0.97480000  0.29680000  0.31990000  1
  C  C313  1  0.52520000  0.29680000  0.31990000  1
  C  C314  1  0.97480000  0.29680000  0.97690000  1
  C  C315  1  0.52520000  0.29680000  0.97690000  1
  C  C316  1  0.44990000  0.28500000  0.04550000  1
  C  C317  1  0.05010000  0.28500000  0.04550000  1
  C  C318  1  0.44990000  0.28500000  0.23950000  1
  C  C319  1  0.05010000  0.28500000  0.23950000  1
  C  C320  1  0.43510000  0.26570000  0.42190000  1
  C  C321  1  0.06490000  0.26570000  0.42190000  1
  C  C322  1  0.43510000  0.26570000  0.84380000  1
  C  C323  1  0.06490000  0.26570000  0.84380000  1
  C  C324  1  0.49660000  0.24180000  0.42810000  1
  C  C325  1  0.00340000  0.24180000  0.42810000  1
  C  C326  1  0.49660000  0.24180000  0.81370000  1
  C  C327  1  0.00340000  0.24180000  0.81370000  1
  C  C328  1  0.94990000  0.23950000  0.28500000  1
  C  C329  1  0.55010000  0.23950000  0.28500000  1
  C  C330  1  0.94990000  0.23950000  0.95450000  1
  C  C331  1  0.55010000  0.23950000  0.95450000  1
  C  C332  1  0.37710000  0.23740000  0.41710000  1
  C  C333  1  0.12290000  0.23740000  0.41710000  1
  C  C334  1  0.37710000  0.23740000  0.82030000  1
  C  C335  1  0.12290000  0.23740000  0.82030000  1
  C  C336  1  0.47400000  0.22740000  0.02100000  1
  C  C337  1  0.02600000  0.22740000  0.02100000  1
  C  C338  1  0.47400000  0.22740000  0.20640000  1
  C  C339  1  0.02600000  0.22740000  0.20640000  1
  C  C340  1  0.90100000  0.21715000  0.43430000  1
  C  C341  1  0.59900000  0.21715000  0.43430000  1
  C  C342  1  0.90100000  0.21715000  0.78285000  1
  C  C343  1  0.59900000  0.21715000  0.78285000  1
  C  C344  1  0.97400000  0.20640000  0.22740000  1
  C  C345  1  0.52600000  0.20640000  0.22740000  1
  C  C346  1  0.97400000  0.20640000  0.97900000  1
  C  C347  1  0.52600000  0.20640000  0.97900000  1
  C  C348  1  0.49660000  0.18630000  0.42810000  1
  C  C349  1  0.00340000  0.18630000  0.42810000  1
  C  C350  1  0.49660000  0.18630000  0.75820000  1
  C  C351  1  0.00340000  0.18630000  0.75820000  1
  C  C352  1  0.37710000  0.17970000  0.41710000  1
  C  C353  1  0.12290000  0.17970000  0.41710000  1
  C  C354  1  0.37710000  0.17970000  0.76260000  1
  C  C355  1  0.12290000  0.17970000  0.76260000  1
  C  C356  1  0.97470000  0.15950000  0.55230000  1
  C  C357  1  0.52530000  0.15950000  0.55230000  1
  C  C358  1  0.97470000  0.15950000  0.60720000  1
  C  C359  1  0.52530000  0.15950000  0.60720000  1
  C  C360  1  0.43510000  0.15620000  0.42190000  1
  C  C361  1  0.06490000  0.15620000  0.42190000  1
  C  C362  1  0.43510000  0.15620000  0.73430000  1
  C  C363  1  0.06490000  0.15620000  0.73430000  1
  C  C364  1  0.75000000  0.10630000  0.42890000  1
  C  C365  1  0.75000000  0.10630000  0.67740000  1
  C  C366  1  0.91100000  0.09610000  0.54805000  1
  C  C367  1  0.58900000  0.09610000  0.54805000  1
  C  C368  1  0.94990000  0.04550000  0.28500000  1
  C  C369  1  0.55010000  0.04550000  0.28500000  1
  C  C370  1  0.94990000  0.04550000  0.76050000  1
  C  C371  1  0.55010000  0.04550000  0.76050000  1
  C  C372  1  0.78500000  0.03260000  0.35190000  1
  C  C373  1  0.71500000  0.03260000  0.35190000  1
  C  C374  1  0.78500000  0.03260000  0.68070000  1
  C  C375  1  0.71500000  0.03260000  0.68070000  1
  C  C376  1  0.97480000  0.02310000  0.31990000  1
  C  C377  1  0.52520000  0.02310000  0.31990000  1
  C  C378  1  0.97480000  0.02310000  0.70320000  1
  C  C379  1  0.52520000  0.02310000  0.70320000  1
  C  C380  1  0.97400000  0.02100000  0.22740000  1
  C  C381  1  0.52600000  0.02100000  0.22740000  1
  C  C382  1  0.97400000  0.02100000  0.79360000  1
  C  C383  1  0.52600000  0.02100000  0.79360000  1
  N  N384  1  0.46160000  0.96280000  0.34046000  1
  N  N385  1  0.03840000  0.96280000  0.34046000  1
  N  N386  1  0.46160000  0.96280000  0.62234000  1
  N  N387  1  0.03840000  0.96280000  0.62234000  1
  N  N388  1  0.37420000  0.95670000  0.47835000  1
  N  N389  1  0.12580000  0.95670000  0.47835000  1
  N  N390  1  0.30810000  0.92020000  0.32000000  1
  N  N391  1  0.19190000  0.92020000  0.32000000  1
  N  N392  1  0.30810000  0.92020000  0.60020000  1
  N  N393  1  0.19190000  0.92020000  0.60020000  1
  N  N394  1  0.43240000  0.87810000  0.39660000  1
  N  N395  1  0.06760000  0.87810000  0.39660000  1
  N  N396  1  0.43240000  0.87810000  0.48150000  1
  N  N397  1  0.06760000  0.87810000  0.48150000  1
  N  N398  1  0.25000000  0.84080000  0.32380000  1
  N  N399  1  0.25000000  0.84080000  0.51700000  1
  N  N400  1  0.43630000  0.82691000  0.25885000  1
  N  N401  1  0.06370000  0.82691000  0.25885000  1
  N  N402  1  0.43630000  0.82691000  0.56806000  1
  N  N403  1  0.06370000  0.82691000  0.56806000  1
  N  N404  1  0.43630000  0.74115000  0.17309000  1
  N  N405  1  0.06370000  0.74115000  0.17309000  1
  N  N406  1  0.43630000  0.74115000  0.56806000  1
  N  N407  1  0.06370000  0.74115000  0.56806000  1
  N  N408  1  0.30810000  0.68000000  0.07980000  1
  N  N409  1  0.19190000  0.68000000  0.07980000  1
  N  N410  1  0.30810000  0.68000000  0.60020000  1
  N  N411  1  0.19190000  0.68000000  0.60020000  1
  N  N412  1  0.25000000  0.67620000  0.15920000  1
  N  N413  1  0.25000000  0.67620000  0.51700000  1
  N  N414  1  0.46160000  0.65954000  0.03720000  1
  N  N415  1  0.03840000  0.65954000  0.03720000  1
  N  N416  1  0.46160000  0.65954000  0.62234000  1
  N  N417  1  0.03840000  0.65954000  0.62234000  1
  N  N418  1  0.96160000  0.62234000  0.65954000  1
  N  N419  1  0.53840000  0.62234000  0.65954000  1
  N  N420  1  0.96160000  0.62234000  0.96280000  1
  N  N421  1  0.53840000  0.62234000  0.96280000  1
  N  N422  1  0.43240000  0.60340000  0.12190000  1
  N  N423  1  0.06760000  0.60340000  0.12190000  1
  N  N424  1  0.43240000  0.60340000  0.48150000  1
  N  N425  1  0.06760000  0.60340000  0.48150000  1
  N  N426  1  0.80810000  0.60020000  0.68000000  1
  N  N427  1  0.69190000  0.60020000  0.68000000  1
  N  N428  1  0.80810000  0.60020000  0.92020000  1
  N  N429  1  0.69190000  0.60020000  0.92020000  1
  N  N430  1  0.93630000  0.56806000  0.74115000  1
  N  N431  1  0.56370000  0.56806000  0.74115000  1
  N  N432  1  0.93630000  0.56806000  0.82691000  1
  N  N433  1  0.56370000  0.56806000  0.82691000  1
  N  N434  1  0.37420000  0.52165000  0.04330000  1
  N  N435  1  0.12580000  0.52165000  0.04330000  1
  N  N436  1  0.37420000  0.52165000  0.47835000  1
  N  N437  1  0.12580000  0.52165000  0.47835000  1
  N  N438  1  0.43240000  0.51850000  0.12190000  1
  N  N439  1  0.06760000  0.51850000  0.12190000  1
  N  N440  1  0.43240000  0.51850000  0.39660000  1
  N  N441  1  0.06760000  0.51850000  0.39660000  1
  N  N442  1  0.75000000  0.51700000  0.67620000  1
  N  N443  1  0.75000000  0.51700000  0.84080000  1
  N  N444  1  0.25000000  0.48300000  0.15920000  1
  N  N445  1  0.25000000  0.48300000  0.32380000  1
  N  N446  1  0.93240000  0.48150000  0.60340000  1
  N  N447  1  0.56760000  0.48150000  0.60340000  1
  N  N448  1  0.93240000  0.48150000  0.87810000  1
  N  N449  1  0.56760000  0.48150000  0.87810000  1
  N  N450  1  0.87420000  0.47835000  0.52165000  1
  N  N451  1  0.62580000  0.47835000  0.52165000  1
  N  N452  1  0.87420000  0.47835000  0.95670000  1
  N  N453  1  0.62580000  0.47835000  0.95670000  1
  N  N454  1  0.43630000  0.43194000  0.17309000  1
  N  N455  1  0.06370000  0.43194000  0.17309000  1
  N  N456  1  0.43630000  0.43194000  0.25885000  1
  N  N457  1  0.06370000  0.43194000  0.25885000  1
  N  N458  1  0.30810000  0.39980000  0.07980000  1
  N  N459  1  0.19190000  0.39980000  0.07980000  1
  N  N460  1  0.30810000  0.39980000  0.32000000  1
  N  N461  1  0.19190000  0.39980000  0.32000000  1
  N  N462  1  0.93240000  0.39660000  0.51850000  1
  N  N463  1  0.56760000  0.39660000  0.51850000  1
  N  N464  1  0.93240000  0.39660000  0.87810000  1
  N  N465  1  0.56760000  0.39660000  0.87810000  1
  N  N466  1  0.46160000  0.37766000  0.03720000  1
  N  N467  1  0.03840000  0.37766000  0.03720000  1
  N  N468  1  0.46160000  0.37766000  0.34046000  1
  N  N469  1  0.03840000  0.37766000  0.34046000  1
  N  N470  1  0.96160000  0.34046000  0.37766000  1
  N  N471  1  0.53840000  0.34046000  0.37766000  1
  N  N472  1  0.96160000  0.34046000  0.96280000  1
  N  N473  1  0.53840000  0.34046000  0.96280000  1
  N  N474  1  0.75000000  0.32380000  0.48300000  1
  N  N475  1  0.75000000  0.32380000  0.84080000  1
  N  N476  1  0.80810000  0.32000000  0.39980000  1
  N  N477  1  0.69190000  0.32000000  0.39980000  1
  N  N478  1  0.80810000  0.32000000  0.92020000  1
  N  N479  1  0.69190000  0.32000000  0.92020000  1
  N  N480  1  0.93630000  0.25885000  0.43194000  1
  N  N481  1  0.56370000  0.25885000  0.43194000  1
  N  N482  1  0.93630000  0.25885000  0.82691000  1
  N  N483  1  0.56370000  0.25885000  0.82691000  1
  N  N484  1  0.93630000  0.17309000  0.43194000  1
  N  N485  1  0.56370000  0.17309000  0.43194000  1
  N  N486  1  0.93630000  0.17309000  0.74115000  1
  N  N487  1  0.56370000  0.17309000  0.74115000  1
  N  N488  1  0.75000000  0.15920000  0.48300000  1
  N  N489  1  0.75000000  0.15920000  0.67620000  1
  N  N490  1  0.93240000  0.12190000  0.51850000  1
  N  N491  1  0.56760000  0.12190000  0.51850000  1
  N  N492  1  0.93240000  0.12190000  0.60340000  1
  N  N493  1  0.56760000  0.12190000  0.60340000  1
  N  N494  1  0.80810000  0.07980000  0.39980000  1
  N  N495  1  0.69190000  0.07980000  0.39980000  1
  N  N496  1  0.80810000  0.07980000  0.68000000  1
  N  N497  1  0.69190000  0.07980000  0.68000000  1
  N  N498  1  0.87420000  0.04330000  0.52165000  1
  N  N499  1  0.62580000  0.04330000  0.52165000  1
  N  N500  1  0.96160000  0.03720000  0.37766000  1
  N  N501  1  0.53840000  0.03720000  0.37766000  1
  N  N502  1  0.96160000  0.03720000  0.65954000  1
  N  N503  1  0.53840000  0.03720000  0.65954000  1
  Cl  Cl504  1  0.43990000  0.96980000  0.14380000  1
  Cl  Cl505  1  0.06010000  0.96980000  0.14380000  1
  Cl  Cl506  1  0.43990000  0.96980000  0.82600000  1
  Cl  Cl507  1  0.06010000  0.96980000  0.82600000  1
  Cl  Cl508  1  0.80500000  0.86520000  0.28030000  1
  Cl  Cl509  1  0.69500000  0.86520000  0.28030000  1
  Cl  Cl510  1  0.80500000  0.86520000  0.58490000  1
  Cl  Cl511  1  0.69500000  0.86520000  0.58490000  1
  Cl  Cl512  1  0.43990000  0.85620000  0.03020000  1
  Cl  Cl513  1  0.06010000  0.85620000  0.03020000  1
  Cl  Cl514  1  0.43990000  0.85620000  0.82600000  1
  Cl  Cl515  1  0.06010000  0.85620000  0.82600000  1
  Cl  Cl516  1  0.93990000  0.82600000  0.85620000  1
  Cl  Cl517  1  0.56010000  0.82600000  0.85620000  1
  Cl  Cl518  1  0.93990000  0.82600000  0.96980000  1
  Cl  Cl519  1  0.56010000  0.82600000  0.96980000  1
  Cl  Cl520  1  0.80500000  0.71970000  0.13480000  1
  Cl  Cl521  1  0.69500000  0.71970000  0.13480000  1
  Cl  Cl522  1  0.80500000  0.71970000  0.58490000  1
  Cl  Cl523  1  0.69500000  0.71970000  0.58490000  1
  Cl  Cl524  1  0.30500000  0.58490000  0.71970000  1
  Cl  Cl525  1  0.19500000  0.58490000  0.71970000  1
  Cl  Cl526  1  0.30500000  0.58490000  0.86520000  1
  Cl  Cl527  1  0.19500000  0.58490000  0.86520000  1
  Cl  Cl528  1  0.80500000  0.41510000  0.13480000  1
  Cl  Cl529  1  0.69500000  0.41510000  0.13480000  1
  Cl  Cl530  1  0.80500000  0.41510000  0.28030000  1
  Cl  Cl531  1  0.69500000  0.41510000  0.28030000  1
  Cl  Cl532  1  0.30500000  0.28030000  0.41510000  1
  Cl  Cl533  1  0.19500000  0.28030000  0.41510000  1
  Cl  Cl534  1  0.30500000  0.28030000  0.86520000  1
  Cl  Cl535  1  0.19500000  0.28030000  0.86520000  1
  Cl  Cl536  1  0.43990000  0.17400000  0.03020000  1
  Cl  Cl537  1  0.06010000  0.17400000  0.03020000  1
  Cl  Cl538  1  0.43990000  0.17400000  0.14380000  1
  Cl  Cl539  1  0.06010000  0.17400000  0.14380000  1
  Cl  Cl540  1  0.93990000  0.14380000  0.17400000  1
  Cl  Cl541  1  0.56010000  0.14380000  0.17400000  1
  Cl  Cl542  1  0.93990000  0.14380000  0.96980000  1
  Cl  Cl543  1  0.56010000  0.14380000  0.96980000  1
  Cl  Cl544  1  0.30500000  0.13480000  0.41510000  1
  Cl  Cl545  1  0.19500000  0.13480000  0.41510000  1
  Cl  Cl546  1  0.30500000  0.13480000  0.71970000  1
  Cl  Cl547  1  0.19500000  0.13480000  0.71970000  1
  Cl  Cl548  1  0.93990000  0.03020000  0.17400000  1
  Cl  Cl549  1  0.56010000  0.03020000  0.17400000  1
  Cl  Cl550  1  0.93990000  0.03020000  0.85620000  1
  Cl  Cl551  1  0.56010000  0.03020000  0.85620000  1
  O  O552  1  0.35520000  0.97460000  0.44650000  1
  O  O553  1  0.14480000  0.97460000  0.44650000  1
  O  O554  1  0.35520000  0.97460000  0.52810000  1
  O  O555  1  0.14480000  0.97460000  0.52810000  1
  O  O556  1  0.30582000  0.82048000  0.32671000  1
  O  O557  1  0.19418000  0.82048000  0.32671000  1
  O  O558  1  0.30582000  0.82048000  0.49377000  1
  O  O559  1  0.19418000  0.82048000  0.49377000  1
  O  O560  1  0.30582000  0.67329000  0.17952000  1
  O  O561  1  0.19418000  0.67329000  0.17952000  1
  O  O562  1  0.30582000  0.67329000  0.49377000  1
  O  O563  1  0.19418000  0.67329000  0.49377000  1
  O  O564  1  0.35520000  0.55350000  0.02540000  1
  O  O565  1  0.14480000  0.55350000  0.02540000  1
  O  O566  1  0.35520000  0.55350000  0.52810000  1
  O  O567  1  0.14480000  0.55350000  0.52810000  1
  O  O568  1  0.85520000  0.52810000  0.55350000  1
  O  O569  1  0.64480000  0.52810000  0.55350000  1
  O  O570  1  0.85520000  0.52810000  0.97460000  1
  O  O571  1  0.64480000  0.52810000  0.97460000  1
  O  O572  1  0.30582000  0.50623000  0.17952000  1
  O  O573  1  0.19418000  0.50623000  0.17952000  1
  O  O574  1  0.30582000  0.50623000  0.32671000  1
  O  O575  1  0.19418000  0.50623000  0.32671000  1
  O  O576  1  0.80582000  0.49377000  0.67329000  1
  O  O577  1  0.69418000  0.49377000  0.67329000  1
  O  O578  1  0.80582000  0.49377000  0.82048000  1
  O  O579  1  0.69418000  0.49377000  0.82048000  1
  O  O580  1  0.35520000  0.47190000  0.02540000  1
  O  O581  1  0.14480000  0.47190000  0.02540000  1
  O  O582  1  0.35520000  0.47190000  0.44650000  1
  O  O583  1  0.14480000  0.47190000  0.44650000  1
  O  O584  1  0.85520000  0.44650000  0.47190000  1
  O  O585  1  0.64480000  0.44650000  0.47190000  1
  O  O586  1  0.85520000  0.44650000  0.97460000  1
  O  O587  1  0.64480000  0.44650000  0.97460000  1
  O  O588  1  0.80582000  0.32671000  0.50623000  1
  O  O589  1  0.69418000  0.32671000  0.50623000  1
  O  O590  1  0.80582000  0.32671000  0.82048000  1
  O  O591  1  0.69418000  0.32671000  0.82048000  1
  O  O592  1  0.80582000  0.17952000  0.50623000  1
  O  O593  1  0.69418000  0.17952000  0.50623000  1
  O  O594  1  0.80582000  0.17952000  0.67329000  1
  O  O595  1  0.69418000  0.17952000  0.67329000  1
  O  O596  1  0.85520000  0.02540000  0.47190000  1
  O  O597  1  0.64480000  0.02540000  0.47190000  1
  O  O598  1  0.85520000  0.02540000  0.55350000  1
  O  O599  1  0.64480000  0.02540000  0.55350000  1
