# generated using pymatgen
data_MnP2H22(C3O)8
_symmetry_space_group_name_H-M   'P 1'
_cell_length_a   7.91370000
_cell_length_b   12.73040000
_cell_length_c   27.35700000
_cell_angle_alpha   90.00000000
_cell_angle_beta   90.00000000
_cell_angle_gamma   90.00000000
_symmetry_Int_Tables_number   1
_chemical_formula_structural   MnP2H22(C3O)8
_chemical_formula_sum   'Mn4 P8 H88 C96 O32'
_cell_volume   2756.06910519
_cell_formula_units_Z   4
loop_
 _symmetry_equiv_pos_site_id
 _symmetry_equiv_pos_as_xyz
  1  'x, y, z'
loop_
 _atom_site_type_symbol
 _atom_site_label
 _atom_site_symmetry_multiplicity
 _atom_site_fract_x
 _atom_site_fract_y
 _atom_site_fract_z
 _atom_site_occupancy
  Mn  Mn0  1  0.15555000  0.74247000  0.52287000  1
  Mn  Mn1  1  0.34445000  0.25753000  0.02287000  1
  Mn  Mn2  1  0.65555000  0.75753000  0.47713000  1
  Mn  Mn3  1  0.84445000  0.24247000  0.97713000  1
  P  P4  1  0.01730000  0.87191000  0.43897000  1
  P  P5  1  0.09360000  0.05152000  0.03237000  1
  P  P6  1  0.40640000  0.94848000  0.53237000  1
  P  P7  1  0.48270000  0.12809000  0.93897000  1
  P  P8  1  0.51730000  0.62809000  0.56103000  1
  P  P9  1  0.59360000  0.44848000  0.96763000  1
  P  P10  1  0.90640000  0.55152000  0.46763000  1
  P  P11  1  0.98270000  0.37191000  0.06103000  1
  H  H12  1  0.00800000  0.46200000  0.88300000  1
  H  H13  1  0.00900000  0.81400000  0.16860000  1
  H  H14  1  0.03000000  0.69300000  0.37500000  1
  H  H15  1  0.03100000  0.07900000  0.19400000  1
  H  H16  1  0.03300000  0.53000000  0.05100000  1
  H  H17  1  0.03500000  0.40370000  0.62150000  1
  H  H18  1  0.04190000  0.01200000  0.89810000  1
  H  H19  1  0.10300000  0.03700000  0.26600000  1
  H  H20  1  0.11970000  0.33740000  0.74690000  1
  H  H21  1  0.12200000  0.97300000  0.81100000  1
  H  H22  1  0.12640000  0.28830000  0.69300000  1
  H  H23  1  0.13060000  0.90310000  0.91200000  1
  H  H24  1  0.13600000  0.50000000  0.14000000  1
  H  H25  1  0.16100000  0.89000000  0.10600000  1
  H  H26  1  0.17700000  0.01000000  0.68700000  1
  H  H27  1  0.20260000  0.67710000  0.21980000  1
  H  H28  1  0.20800000  0.86400000  0.22400000  1
  H  H29  1  0.21500000  0.02900000  0.35400000  1
  H  H30  1  0.22600000  0.20000000  0.78800000  1
  H  H31  1  0.22600000  0.46300000  0.21760000  1
  H  H32  1  0.23900000  0.97000000  0.98700000  1
  H  H33  1  0.24400000  0.56500000  0.43000000  1
  H  H34  1  0.25600000  0.43500000  0.93000000  1
  H  H35  1  0.26100000  0.03000000  0.48700000  1
  H  H36  1  0.27400000  0.53700000  0.71760000  1
  H  H37  1  0.27400000  0.80000000  0.28800000  1
  H  H38  1  0.28500000  0.97100000  0.85400000  1
  H  H39  1  0.29200000  0.13600000  0.72400000  1
  H  H40  1  0.29740000  0.32290000  0.71980000  1
  H  H41  1  0.32300000  0.99000000  0.18700000  1
  H  H42  1  0.33900000  0.11000000  0.60600000  1
  H  H43  1  0.36400000  0.50000000  0.64000000  1
  H  H44  1  0.36940000  0.09690000  0.41200000  1
  H  H45  1  0.37360000  0.71170000  0.19300000  1
  H  H46  1  0.37800000  0.02700000  0.31100000  1
  H  H47  1  0.38030000  0.66260000  0.24690000  1
  H  H48  1  0.39700000  0.96300000  0.76600000  1
  H  H49  1  0.45810000  0.98800000  0.39810000  1
  H  H50  1  0.46500000  0.59630000  0.12150000  1
  H  H51  1  0.46700000  0.47000000  0.55100000  1
  H  H52  1  0.46900000  0.92100000  0.69400000  1
  H  H53  1  0.47000000  0.30700000  0.87500000  1
  H  H54  1  0.49100000  0.18600000  0.66860000  1
  H  H55  1  0.49200000  0.53800000  0.38300000  1
  H  H56  1  0.50800000  0.03800000  0.11700000  1
  H  H57  1  0.50900000  0.68600000  0.83140000  1
  H  H58  1  0.53000000  0.80700000  0.62500000  1
  H  H59  1  0.53100000  0.42100000  0.80600000  1
  H  H60  1  0.53300000  0.97000000  0.94900000  1
  H  H61  1  0.53500000  0.09630000  0.37850000  1
  H  H62  1  0.54190000  0.48800000  0.10190000  1
  H  H63  1  0.60300000  0.46300000  0.73400000  1
  H  H64  1  0.61970000  0.16260000  0.25310000  1
  H  H65  1  0.62200000  0.52700000  0.18900000  1
  H  H66  1  0.62640000  0.21170000  0.30700000  1
  H  H67  1  0.63060000  0.59690000  0.08800000  1
  H  H68  1  0.63600000  0.00000000  0.86000000  1
  H  H69  1  0.66100000  0.61000000  0.89400000  1
  H  H70  1  0.67700000  0.49000000  0.31300000  1
  H  H71  1  0.70260000  0.82290000  0.78020000  1
  H  H72  1  0.70800000  0.63600000  0.77600000  1
  H  H73  1  0.71500000  0.47100000  0.64600000  1
  H  H74  1  0.72600000  0.03700000  0.78240000  1
  H  H75  1  0.72600000  0.30000000  0.21200000  1
  H  H76  1  0.73900000  0.53000000  0.01300000  1
  H  H77  1  0.74400000  0.93500000  0.57000000  1
  H  H78  1  0.75600000  0.06500000  0.07000000  1
  H  H79  1  0.76100000  0.47000000  0.51300000  1
  H  H80  1  0.77400000  0.70000000  0.71200000  1
  H  H81  1  0.77400000  0.96300000  0.28240000  1
  H  H82  1  0.78500000  0.52900000  0.14600000  1
  H  H83  1  0.79200000  0.36400000  0.27600000  1
  H  H84  1  0.79740000  0.17710000  0.28020000  1
  H  H85  1  0.82300000  0.51000000  0.81300000  1
  H  H86  1  0.83900000  0.39000000  0.39400000  1
  H  H87  1  0.86400000  0.00000000  0.36000000  1
  H  H88  1  0.86940000  0.40310000  0.58800000  1
  H  H89  1  0.87360000  0.78830000  0.80700000  1
  H  H90  1  0.87800000  0.47300000  0.68900000  1
  H  H91  1  0.88030000  0.83740000  0.75310000  1
  H  H92  1  0.89700000  0.53700000  0.23400000  1
  H  H93  1  0.95810000  0.51200000  0.60190000  1
  H  H94  1  0.96500000  0.90370000  0.87850000  1
  H  H95  1  0.96700000  0.03000000  0.44900000  1
  H  H96  1  0.96900000  0.57900000  0.30600000  1
  H  H97  1  0.97000000  0.19300000  0.12500000  1
  H  H98  1  0.99100000  0.31400000  0.33140000  1
  H  H99  1  0.99200000  0.96200000  0.61700000  1
  C  C100  1  0.02080000  0.25120000  0.14320000  1
  C  C101  1  0.02450000  0.48880000  0.42000000  1
  C  C102  1  0.03770000  0.36970000  0.35130000  1
  C  C103  1  0.04010000  0.34970000  0.12350000  1
  C  C104  1  0.04010000  0.60360000  0.79190000  1
  C  C105  1  0.04210000  0.03610000  0.67470000  1
  C  C106  1  0.04400000  0.50230000  0.86540000  1
  C  C107  1  0.04990000  0.91160000  0.11110000  1
  C  C108  1  0.06860000  0.12570000  0.20900000  1
  C  C109  1  0.06950000  0.94130000  0.88650000  1
  C  C110  1  0.07880000  0.22670000  0.19020000  1
  C  C111  1  0.11710000  0.43070000  0.15240000  1
  C  C112  1  0.13600000  0.09790000  0.25390000  1
  C  C113  1  0.15710000  0.30680000  0.21900000  1
  C  C114  1  0.17140000  0.40980000  0.19910000  1
  C  C115  1  0.18050000  0.94920000  0.84060000  1
  C  C116  1  0.18480000  0.29270000  0.72460000  1
  C  C117  1  0.19090000  0.51390000  0.41250000  1
  C  C118  1  0.20140000  0.18370000  0.74630000  1
  C  C119  1  0.20380000  0.63900000  0.80000000  1
  C  C120  1  0.20640000  0.39920000  0.34080000  1
  C  C121  1  0.21170000  0.17880000  0.28240000  1
  C  C122  1  0.21370000  0.52970000  0.87380000  1
  C  C123  1  0.21860000  0.28100000  0.26690000  1
  C  C124  1  0.28140000  0.71900000  0.76690000  1
  C  C125  1  0.28630000  0.47030000  0.37380000  1
  C  C126  1  0.28830000  0.82120000  0.78240000  1
  C  C127  1  0.29360000  0.60080000  0.84080000  1
  C  C128  1  0.29620000  0.36100000  0.30000000  1
  C  C129  1  0.29860000  0.81630000  0.24630000  1
  C  C130  1  0.30910000  0.48610000  0.91250000  1
  C  C131  1  0.31520000  0.70730000  0.22460000  1
  C  C132  1  0.31950000  0.05080000  0.34060000  1
  C  C133  1  0.32860000  0.59020000  0.69910000  1
  C  C134  1  0.34290000  0.69320000  0.71900000  1
  C  C135  1  0.36400000  0.90210000  0.75390000  1
  C  C136  1  0.38290000  0.56930000  0.65240000  1
  C  C137  1  0.42120000  0.77330000  0.69020000  1
  C  C138  1  0.43050000  0.05870000  0.38650000  1
  C  C139  1  0.43140000  0.87430000  0.70900000  1
  C  C140  1  0.45010000  0.08840000  0.61110000  1
  C  C141  1  0.45600000  0.49770000  0.36540000  1
  C  C142  1  0.45790000  0.96390000  0.17470000  1
  C  C143  1  0.45990000  0.39640000  0.29190000  1
  C  C144  1  0.45990000  0.65030000  0.62350000  1
  C  C145  1  0.46230000  0.63030000  0.85130000  1
  C  C146  1  0.47550000  0.51120000  0.92000000  1
  C  C147  1  0.47920000  0.74880000  0.64320000  1
  C  C148  1  0.52080000  0.24880000  0.85680000  1
  C  C149  1  0.52450000  0.01120000  0.58000000  1
  C  C150  1  0.53770000  0.13030000  0.64870000  1
  C  C151  1  0.54010000  0.15030000  0.87650000  1
  C  C152  1  0.54010000  0.89640000  0.20810000  1
  C  C153  1  0.54210000  0.46390000  0.32530000  1
  C  C154  1  0.54400000  0.99770000  0.13460000  1
  C  C155  1  0.54990000  0.58840000  0.88890000  1
  C  C156  1  0.56860000  0.37430000  0.79100000  1
  C  C157  1  0.56950000  0.55870000  0.11350000  1
  C  C158  1  0.57880000  0.27330000  0.80980000  1
  C  C159  1  0.61710000  0.06930000  0.84760000  1
  C  C160  1  0.63600000  0.40210000  0.74610000  1
  C  C161  1  0.65710000  0.19320000  0.78100000  1
  C  C162  1  0.67140000  0.09020000  0.80090000  1
  C  C163  1  0.68050000  0.55080000  0.15940000  1
  C  C164  1  0.68480000  0.20730000  0.27540000  1
  C  C165  1  0.69090000  0.98610000  0.58750000  1
  C  C166  1  0.70140000  0.31630000  0.25370000  1
  C  C167  1  0.70380000  0.86100000  0.20000000  1
  C  C168  1  0.70640000  0.10080000  0.65920000  1
  C  C169  1  0.71170000  0.32120000  0.71760000  1
  C  C170  1  0.71370000  0.97030000  0.12620000  1
  C  C171  1  0.71860000  0.21900000  0.73310000  1
  C  C172  1  0.78140000  0.78100000  0.23310000  1
  C  C173  1  0.78630000  0.02970000  0.62620000  1
  C  C174  1  0.78830000  0.67880000  0.21760000  1
  C  C175  1  0.79360000  0.89920000  0.15920000  1
  C  C176  1  0.79620000  0.13900000  0.70000000  1
  C  C177  1  0.79860000  0.68370000  0.75370000  1
  C  C178  1  0.80910000  0.01390000  0.08750000  1
  C  C179  1  0.81520000  0.79270000  0.77540000  1
  C  C180  1  0.81950000  0.44920000  0.65940000  1
  C  C181  1  0.82860000  0.90980000  0.30090000  1
  C  C182  1  0.84290000  0.80680000  0.28100000  1
  C  C183  1  0.86400000  0.59790000  0.24610000  1
  C  C184  1  0.88290000  0.93070000  0.34760000  1
  C  C185  1  0.92120000  0.72670000  0.30980000  1
  C  C186  1  0.93050000  0.44130000  0.61350000  1
  C  C187  1  0.93140000  0.62570000  0.29100000  1
  C  C188  1  0.95010000  0.41160000  0.38890000  1
  C  C189  1  0.95600000  0.00230000  0.63460000  1
  C  C190  1  0.95790000  0.53610000  0.82530000  1
  C  C191  1  0.95990000  0.10360000  0.70810000  1
  C  C192  1  0.95990000  0.84970000  0.37650000  1
  C  C193  1  0.96230000  0.86970000  0.14870000  1
  C  C194  1  0.97550000  0.98880000  0.08000000  1
  C  C195  1  0.97920000  0.75120000  0.35680000  1
  O  O196  1  0.03170000  0.60180000  0.50218000  1
  O  O197  1  0.03860000  0.13410000  0.75124000  1
  O  O198  1  0.05260000  0.99320000  0.44408000  1
  O  O199  1  0.12360000  0.34430000  0.02703000  1
  O  O200  1  0.17730000  0.81320000  0.45058000  1
  O  O201  1  0.17940000  0.95380000  0.00706000  1
  O  O202  1  0.21840000  0.84100000  0.82701000  1
  O  O203  1  0.22620000  0.12270000  0.05344000  1
  O  O204  1  0.27380000  0.87730000  0.55344000  1
  O  O205  1  0.28160000  0.15900000  0.32701000  1
  O  O206  1  0.32060000  0.04620000  0.50706000  1
  O  O207  1  0.32270000  0.18680000  0.95058000  1
  O  O208  1  0.37640000  0.65570000  0.52703000  1
  O  O209  1  0.44740000  0.00680000  0.94408000  1
  O  O210  1  0.46140000  0.86590000  0.25124000  1
  O  O211  1  0.46830000  0.39820000  0.00218000  1
  O  O212  1  0.53170000  0.89820000  0.49782000  1
  O  O213  1  0.53860000  0.36590000  0.24876000  1
  O  O214  1  0.55260000  0.50680000  0.55592000  1
  O  O215  1  0.62360000  0.15570000  0.97297000  1
  O  O216  1  0.67730000  0.68680000  0.54942000  1
  O  O217  1  0.67940000  0.54620000  0.99294000  1
  O  O218  1  0.71840000  0.65900000  0.17299000  1
  O  O219  1  0.72620000  0.37730000  0.94656000  1
  O  O220  1  0.77380000  0.62270000  0.44656000  1
  O  O221  1  0.78160000  0.34100000  0.67299000  1
  O  O222  1  0.82060000  0.45380000  0.49294000  1
  O  O223  1  0.82270000  0.31320000  0.04942000  1
  O  O224  1  0.87640000  0.84430000  0.47297000  1
  O  O225  1  0.94740000  0.49320000  0.05592000  1
  O  O226  1  0.96140000  0.63410000  0.74876000  1
  O  O227  1  0.96830000  0.10180000  0.99782000  1
