# generated using pymatgen
data_Cd2H14C24Br4N4O9
_symmetry_space_group_name_H-M   'P 1'
_cell_length_a   11.70890000
_cell_length_b   11.70890000
_cell_length_c   14.73320000
_cell_angle_alpha   109.16400000
_cell_angle_beta   109.16400000
_cell_angle_gamma   98.41530000
_symmetry_Int_Tables_number   1
_chemical_formula_structural   Cd2H14C24Br4N4O9
_chemical_formula_sum   'Cd4 H28 C48 Br8 N8 O18'
_cell_volume   1727.58988633
_cell_formula_units_Z   2
loop_
 _symmetry_equiv_pos_site_id
 _symmetry_equiv_pos_as_xyz
  1  'x, y, z'
loop_
 _atom_site_type_symbol
 _atom_site_label
 _atom_site_symmetry_multiplicity
 _atom_site_fract_x
 _atom_site_fract_y
 _atom_site_fract_z
 _atom_site_occupancy
  Cd  Cd0  1  0.21966000  0.97592000  0.71250000  1
  Cd  Cd1  1  0.02408000  0.78034000  0.78750000  1
  Cd  Cd2  1  0.97592000  0.21966000  0.21250000  1
  Cd  Cd3  1  0.78034000  0.02408000  0.28750000  1
  H  H4  1  0.87910000  0.95550000  0.48070000  1
  H  H5  1  0.43980000  0.95460000  0.61590000  1
  H  H6  1  0.51980000  0.90900000  0.09170000  1
  H  H7  1  0.21360000  0.90880000  0.15560000  1
  H  H8  1  0.95550000  0.87910000  0.98070000  1
  H  H9  1  0.25790000  0.80810000  0.80670000  1
  H  H10  1  0.58590000  0.80670000  0.91220000  1
  H  H11  1  0.09120000  0.78640000  0.34440000  1
  H  H12  1  0.19190000  0.74210000  0.69330000  1
  H  H13  1  0.70490000  0.71730000  0.18790000  1
  H  H14  1  0.71730000  0.70490000  0.68790000  1
  H  H15  1  0.80670000  0.58590000  0.41220000  1
  H  H16  1  0.04540000  0.56020000  0.88410000  1
  H  H17  1  0.90900000  0.51980000  0.59170000  1
  H  H18  1  0.09100000  0.48020000  0.40830000  1
  H  H19  1  0.95460000  0.43980000  0.11590000  1
  H  H20  1  0.19330000  0.41410000  0.58780000  1
  H  H21  1  0.28270000  0.29510000  0.31210000  1
  H  H22  1  0.29510000  0.28270000  0.81210000  1
  H  H23  1  0.80810000  0.25790000  0.30670000  1
  H  H24  1  0.90880000  0.21360000  0.65560000  1
  H  H25  1  0.41410000  0.19330000  0.08780000  1
  H  H26  1  0.74210000  0.19190000  0.19330000  1
  H  H27  1  0.04450000  0.12090000  0.01930000  1
  H  H28  1  0.78640000  0.09120000  0.84440000  1
  H  H29  1  0.48020000  0.09100000  0.90830000  1
  H  H30  1  0.56020000  0.04540000  0.38410000  1
  H  H31  1  0.12090000  0.04450000  0.51930000  1
  C  C32  1  0.49140000  0.99200000  0.68720000  1
  C  C33  1  0.38030000  0.98110000  0.28130000  1
  C  C34  1  0.48420000  0.92720000  0.14070000  1
  C  C35  1  0.30060000  0.92580000  0.17690000  1
  C  C36  1  0.81070000  0.92550000  0.08110000  1
  C  C37  1  0.35390000  0.89670000  0.10490000  1
  C  C38  1  0.84470000  0.87270000  0.43110000  1
  C  C39  1  0.77660000  0.85380000  0.96540000  1
  C  C40  1  0.87270000  0.84470000  0.93110000  1
  C  C41  1  0.27720000  0.83720000  0.98790000  1
  C  C42  1  0.92550000  0.81070000  0.58110000  1
  C  C43  1  0.65300000  0.80400000  0.89180000  1
  C  C44  1  0.85380000  0.77660000  0.46540000  1
  C  C45  1  0.63230000  0.74990000  0.78680000  1
  C  C46  1  0.73280000  0.74280000  0.75860000  1
  C  C47  1  0.74280000  0.73280000  0.25860000  1
  C  C48  1  0.16280000  0.72280000  0.51210000  1
  C  C49  1  0.07420000  0.69940000  0.32310000  1
  C  C50  1  0.80400000  0.65300000  0.39180000  1
  C  C51  1  0.10330000  0.64610000  0.39510000  1
  C  C52  1  0.74990000  0.63230000  0.28680000  1
  C  C53  1  0.01890000  0.61970000  0.21870000  1
  C  C54  1  0.07280000  0.51580000  0.35930000  1
  C  C55  1  0.00800000  0.50860000  0.81280000  1
  C  C56  1  0.99200000  0.49140000  0.18720000  1
  C  C57  1  0.92720000  0.48420000  0.64070000  1
  C  C58  1  0.98110000  0.38030000  0.78130000  1
  C  C59  1  0.25010000  0.36770000  0.71320000  1
  C  C60  1  0.89670000  0.35390000  0.60490000  1
  C  C61  1  0.19600000  0.34700000  0.60820000  1
  C  C62  1  0.92580000  0.30060000  0.67690000  1
  C  C63  1  0.83720000  0.27720000  0.48790000  1
  C  C64  1  0.25720000  0.26720000  0.74140000  1
  C  C65  1  0.26720000  0.25720000  0.24140000  1
  C  C66  1  0.36770000  0.25010000  0.21320000  1
  C  C67  1  0.14620000  0.22340000  0.53460000  1
  C  C68  1  0.34700000  0.19600000  0.10820000  1
  C  C69  1  0.07450000  0.18930000  0.41890000  1
  C  C70  1  0.72280000  0.16280000  0.01210000  1
  C  C71  1  0.12730000  0.15530000  0.06890000  1
  C  C72  1  0.22340000  0.14620000  0.03460000  1
  C  C73  1  0.15530000  0.12730000  0.56890000  1
  C  C74  1  0.64610000  0.10330000  0.89510000  1
  C  C75  1  0.18930000  0.07450000  0.91890000  1
  C  C76  1  0.69940000  0.07420000  0.82310000  1
  C  C77  1  0.51580000  0.07280000  0.85930000  1
  C  C78  1  0.61970000  0.01890000  0.71870000  1
  C  C79  1  0.50860000  0.00800000  0.31280000  1
  Br  Br80  1  0.68646000  0.97612000  0.61467000  1
  Br  Br81  1  0.46737000  0.68795000  0.68143000  1
  Br  Br82  1  0.97612000  0.68646000  0.11467000  1
  Br  Br83  1  0.31205000  0.53263000  0.81857000  1
  Br  Br84  1  0.68795000  0.46737000  0.18143000  1
  Br  Br85  1  0.02388000  0.31354000  0.88533000  1
  Br  Br86  1  0.53263000  0.31205000  0.31857000  1
  Br  Br87  1  0.31354000  0.02388000  0.38533000  1
  N  N88  1  0.56100000  0.98160000  0.24270000  1
  N  N89  1  0.78880000  0.85240000  0.32990000  1
  N  N90  1  0.85240000  0.78880000  0.82990000  1
  N  N91  1  0.98160000  0.56100000  0.74270000  1
  N  N92  1  0.01840000  0.43900000  0.25730000  1
  N  N93  1  0.14760000  0.21120000  0.17010000  1
  N  N94  1  0.21120000  0.14760000  0.67010000  1
  N  N95  1  0.43900000  0.01840000  0.75730000  1
  O  O96  1  0.08209000  0.99771000  0.86710000  1
  O  O97  1  0.00229000  0.91791000  0.63290000  1
  O  O98  1  0.72932000  0.90228000  0.11540000  1
  O  O99  1  0.18855000  0.84065000  0.54340000  1
  O  O100  1  0.33850000  0.81990000  0.93160000  1
  O  O101  1  0.15935000  0.81145000  0.95660000  1
  O  O102  1  0.20000000  0.80000000  0.75000000  1
  O  O103  1  0.90228000  0.72932000  0.61540000  1
  O  O104  1  0.18010000  0.66150000  0.56840000  1
  O  O105  1  0.81990000  0.33850000  0.43160000  1
  O  O106  1  0.09772000  0.27068000  0.38460000  1
  O  O107  1  0.80000000  0.20000000  0.25000000  1
  O  O108  1  0.84065000  0.18855000  0.04340000  1
  O  O109  1  0.66150000  0.18010000  0.06840000  1
  O  O110  1  0.81145000  0.15935000  0.45660000  1
  O  O111  1  0.27068000  0.09772000  0.88460000  1
  O  O112  1  0.99771000  0.08209000  0.36710000  1
  O  O113  1  0.91791000  0.00229000  0.13290000  1
