# generated using pymatgen
data_CdH3(C5O4)2
_symmetry_space_group_name_H-M   'P 1'
_cell_length_a   7.91050000
_cell_length_b   11.12800000
_cell_length_c   19.44100000
_cell_angle_alpha   90.00000000
_cell_angle_beta   101.06100000
_cell_angle_gamma   90.00000000
_symmetry_Int_Tables_number   1
_chemical_formula_structural   CdH3(C5O4)2
_chemical_formula_sum   'Cd4 H12 C40 O32'
_cell_volume   1679.56222016
_cell_formula_units_Z   4
loop_
 _symmetry_equiv_pos_site_id
 _symmetry_equiv_pos_as_xyz
  1  'x, y, z'
loop_
 _atom_site_type_symbol
 _atom_site_label
 _atom_site_symmetry_multiplicity
 _atom_site_fract_x
 _atom_site_fract_y
 _atom_site_fract_z
 _atom_site_occupancy
  Cd  Cd0  1  0.14755000  0.00372000  0.92303000  1
  Cd  Cd1  1  0.35245000  0.50372000  0.57697000  1
  Cd  Cd2  1  0.64755000  0.49628000  0.42303000  1
  Cd  Cd3  1  0.85245000  0.99628000  0.07697000  1
  H  H4  1  0.04790000  0.74710000  0.13520000  1
  H  H5  1  0.06070000  0.57050000  0.33100000  1
  H  H6  1  0.13110000  0.75760000  0.72670000  1
  H  H7  1  0.36890000  0.25760000  0.77330000  1
  H  H8  1  0.43930000  0.07050000  0.16900000  1
  H  H9  1  0.45210000  0.24710000  0.36480000  1
  H  H10  1  0.54790000  0.75290000  0.63520000  1
  H  H11  1  0.56070000  0.92950000  0.83100000  1
  H  H12  1  0.63110000  0.74240000  0.22670000  1
  H  H13  1  0.86890000  0.24240000  0.27330000  1
  H  H14  1  0.93930000  0.42950000  0.66900000  1
  H  H15  1  0.95210000  0.25290000  0.86480000  1
  C  C16  1  0.01350000  0.75590000  0.70861000  1
  C  C17  1  0.01930000  0.11160000  0.19232000  1
  C  C18  1  0.04690000  0.30840000  0.35220000  1
  C  C19  1  0.08460000  0.61920000  0.61855000  1
  C  C20  1  0.09140000  0.62160000  0.24847000  1
  C  C21  1  0.09850000  0.18180000  0.25680000  1
  C  C22  1  0.16530000  0.74640000  0.15392000  1
  C  C23  1  0.20450000  0.87320000  0.05246000  1
  C  C24  1  0.22350000  0.30880000  0.38044000  1
  C  C25  1  0.22390000  0.68320000  0.21526000  1
  C  C26  1  0.27610000  0.18320000  0.28474000  1
  C  C27  1  0.27650000  0.80880000  0.11956000  1
  C  C28  1  0.29550000  0.37320000  0.44754000  1
  C  C29  1  0.33470000  0.24640000  0.34608000  1
  C  C30  1  0.40150000  0.68180000  0.24320000  1
  C  C31  1  0.40860000  0.12160000  0.25153000  1
  C  C32  1  0.41540000  0.11920000  0.88145000  1
  C  C33  1  0.45310000  0.80840000  0.14780000  1
  C  C34  1  0.48070000  0.61160000  0.30768000  1
  C  C35  1  0.48650000  0.25590000  0.79139000  1
  C  C36  1  0.51350000  0.74410000  0.20861000  1
  C  C37  1  0.51930000  0.38840000  0.69232000  1
  C  C38  1  0.54690000  0.19160000  0.85220000  1
  C  C39  1  0.58460000  0.88080000  0.11855000  1
  C  C40  1  0.59140000  0.87840000  0.74847000  1
  C  C41  1  0.59850000  0.31820000  0.75680000  1
  C  C42  1  0.66530000  0.75360000  0.65392000  1
  C  C43  1  0.70450000  0.62680000  0.55246000  1
  C  C44  1  0.72350000  0.19120000  0.88044000  1
  C  C45  1  0.72390000  0.81680000  0.71526000  1
  C  C46  1  0.77610000  0.31680000  0.78474000  1
  C  C47  1  0.77650000  0.69120000  0.61956000  1
  C  C48  1  0.79550000  0.12680000  0.94754000  1
  C  C49  1  0.83470000  0.25360000  0.84608000  1
  C  C50  1  0.90150000  0.81820000  0.74320000  1
  C  C51  1  0.90860000  0.37840000  0.75153000  1
  C  C52  1  0.91540000  0.38080000  0.38145000  1
  C  C53  1  0.95310000  0.69160000  0.64780000  1
  C  C54  1  0.98070000  0.88840000  0.80768000  1
  C  C55  1  0.98650000  0.24410000  0.29139000  1
  O  O56  1  0.02370000  0.00053000  0.19297000  1
  O  O57  1  0.04430000  0.88465000  0.03370000  1
  O  O58  1  0.04640000  0.40820000  0.78457000  1
  O  O59  1  0.05660000  0.82876000  0.86038000  1
  O  O60  1  0.09410000  0.50751000  0.63010000  1
  O  O61  1  0.13670000  0.60710000  0.31636000  1
  O  O62  1  0.18880000  0.67278000  0.58830000  1
  O  O63  1  0.19150000  0.41011000  0.48444000  1
  O  O64  1  0.30850000  0.91011000  0.01556000  1
  O  O65  1  0.31120000  0.17278000  0.91170000  1
  O  O66  1  0.36330000  0.10710000  0.18364000  1
  O  O67  1  0.40590000  0.00751000  0.86990000  1
  O  O68  1  0.44340000  0.32876000  0.63962000  1
  O  O69  1  0.45360000  0.90820000  0.71543000  1
  O  O70  1  0.45570000  0.38465000  0.46630000  1
  O  O71  1  0.47630000  0.50053000  0.30703000  1
  O  O72  1  0.52370000  0.49947000  0.69297000  1
  O  O73  1  0.54430000  0.61535000  0.53370000  1
  O  O74  1  0.54640000  0.09180000  0.28457000  1
  O  O75  1  0.55660000  0.67124000  0.36038000  1
  O  O76  1  0.59410000  0.99249000  0.13010000  1
  O  O77  1  0.63670000  0.89290000  0.81636000  1
  O  O78  1  0.68880000  0.82722000  0.08830000  1
  O  O79  1  0.69150000  0.08989000  0.98444000  1
  O  O80  1  0.80850000  0.58989000  0.51556000  1
  O  O81  1  0.81120000  0.32722000  0.41170000  1
  O  O82  1  0.86330000  0.39290000  0.68364000  1
  O  O83  1  0.90590000  0.49249000  0.36990000  1
  O  O84  1  0.94340000  0.17124000  0.13962000  1
  O  O85  1  0.95360000  0.59180000  0.21543000  1
  O  O86  1  0.95570000  0.11535000  0.96630000  1
  O  O87  1  0.97630000  0.99947000  0.80703000  1
