# generated using pymatgen
data_CdH18C26N4O5
_symmetry_space_group_name_H-M   'P 1'
_cell_length_a   18.90310000
_cell_length_b   18.90310000
_cell_length_c   33.89346605
_cell_angle_alpha   73.80789763
_cell_angle_beta   73.80779949
_cell_angle_gamma   90.00020000
_symmetry_Int_Tables_number   1
_chemical_formula_structural   CdH18C26N4O5
_chemical_formula_sum   'Cd16 H288 C416 N64 O80'
_cell_volume   11129.48906047
_cell_formula_units_Z   16
loop_
 _symmetry_equiv_pos_site_id
 _symmetry_equiv_pos_as_xyz
  1  'x, y, z'
loop_
 _atom_site_type_symbol
 _atom_site_label
 _atom_site_symmetry_multiplicity
 _atom_site_fract_x
 _atom_site_fract_y
 _atom_site_fract_z
 _atom_site_occupancy
  Cd  Cd0  1  0.92847000  0.40849000  0.36940000  1
  Cd  Cd1  1  0.90849000  0.70213000  0.86940000  1
  Cd  Cd2  1  0.79787000  0.77789000  0.63060000  1
  Cd  Cd3  1  0.77789000  0.79787000  0.13060000  1
  Cd  Cd4  1  0.72211000  0.42847000  0.86940000  1
  Cd  Cd5  1  0.70213000  0.90849000  0.36940000  1
  Cd  Cd6  1  0.59151000  0.07153000  0.13060000  1
  Cd  Cd7  1  0.57153000  0.27789000  0.63060000  1
  Cd  Cd8  1  0.42847000  0.72211000  0.36940000  1
  Cd  Cd9  1  0.40849000  0.92847000  0.86940000  1
  Cd  Cd10  1  0.29787000  0.09151000  0.63060000  1
  Cd  Cd11  1  0.27789000  0.57153000  0.13060000  1
  Cd  Cd12  1  0.22211000  0.20213000  0.86940000  1
  Cd  Cd13  1  0.20213000  0.22211000  0.36940000  1
  Cd  Cd14  1  0.09151000  0.29787000  0.13060000  1
  Cd  Cd15  1  0.07153000  0.59151000  0.63060000  1
  H  H16  1  0.99990000  0.02690000  0.42340000  1
  H  H17  1  0.99650000  0.30210000  0.23640000  1
  H  H18  1  0.99210000  0.24890000  0.82800000  1
  H  H19  1  0.98790000  0.65450000  0.46540000  1
  H  H20  1  0.98530000  0.83130000  0.69100000  1
  H  H21  1  0.97770000  0.48530000  0.19100000  1
  H  H22  1  0.97310000  0.00010000  0.07660000  1
  H  H23  1  0.97250000  0.31750000  0.60880000  1
  H  H24  1  0.97080000  0.60110000  0.28640000  1
  H  H25  1  0.96730000  0.67940000  0.70440000  1
  H  H26  1  0.96730000  0.89490000  0.92180000  1
  H  H27  1  0.96150000  0.49650000  0.73640000  1
  H  H28  1  0.95920000  0.92340000  0.24720000  1
  H  H29  1  0.95480000  0.22500000  0.39240000  1
  H  H30  1  0.95330000  0.11990000  0.53460000  1
  H  H31  1  0.95030000  0.50010000  0.07660000  1
  H  H32  1  0.93710000  0.13990000  0.46360000  1
  H  H33  1  0.92630000  0.08130000  0.89120000  1
  H  H34  1  0.92340000  0.95920000  0.74720000  1
  H  H35  1  0.92330000  0.45030000  0.57660000  1
  H  H36  1  0.92310000  0.67990000  0.32800000  1
  H  H37  1  0.92170000  0.07930000  0.79680000  1
  H  H38  1  0.92070000  0.07830000  0.70320000  1
  H  H39  1  0.91870000  0.07370000  0.60880000  1
  H  H40  1  0.91320000  0.58890000  0.19320000  1
  H  H41  1  0.91110000  0.10640000  0.30680000  1
  H  H42  1  0.90070000  0.60350000  0.53640000  1
  H  H43  1  0.89890000  0.25720000  0.21360000  1
  H  H44  1  0.89700000  0.84670000  0.38280000  1
  H  H45  1  0.89650000  0.43710000  0.96360000  1
  H  H46  1  0.89490000  0.96730000  0.42180000  1
  H  H47  1  0.89360000  0.08890000  0.19320000  1
  H  H48  1  0.88910000  0.60510000  0.07820000  1
  H  H49  1  0.88750000  0.75720000  0.21360000  1
  H  H50  1  0.88390000  0.85940000  0.80640000  1
  H  H51  1  0.88380000  0.53270000  0.79560000  1
  H  H52  1  0.88260000  0.45480000  0.89240000  1
  H  H53  1  0.88010000  0.04670000  0.96540000  1
  H  H54  1  0.87890000  0.33310000  0.47480000  1
  H  H55  1  0.87610000  0.21850000  0.70320000  1
  H  H56  1  0.86010000  0.06290000  0.03640000  1
  H  H57  1  0.85940000  0.88390000  0.30640000  1
  H  H58  1  0.85490000  0.81810000  0.45600000  1
  H  H59  1  0.85370000  0.80790000  0.52520000  1
  H  H60  1  0.84720000  0.61740000  0.60760000  1
  H  H61  1  0.84670000  0.89700000  0.88280000  1
  H  H62  1  0.84550000  0.45330000  0.03460000  1
  H  H63  1  0.83420000  0.38390000  0.30640000  1
  H  H64  1  0.83310000  0.64630000  0.97480000  1
  H  H65  1  0.83130000  0.98530000  0.19100000  1
  H  H66  1  0.82940000  0.29360000  0.74720000  1
  H  H67  1  0.82830000  0.61620000  0.70440000  1
  H  H68  1  0.82370000  0.47770000  0.69100000  1
  H  H69  1  0.82060000  0.67170000  0.79560000  1
  H  H70  1  0.82010000  0.25110000  0.17200000  1
  H  H71  1  0.81810000  0.85490000  0.95600000  1
  H  H72  1  0.81750000  0.41870000  0.10880000  1
  H  H73  1  0.81670000  0.38910000  0.57820000  1
  H  H74  1  0.81090000  0.27410000  0.54400000  1
  H  H75  1  0.80970000  0.33420000  0.80640000  1
  H  H76  1  0.80790000  0.85370000  0.02520000  1
  H  H77  1  0.80210000  0.76710000  0.73640000  1
  H  H78  1  0.79360000  0.42340000  0.24720000  1
  H  H79  1  0.78210000  0.60640000  0.30680000  1
  H  H80  1  0.78150000  0.12390000  0.79680000  1
  H  H81  1  0.77980000  0.22950000  0.61720000  1
  H  H82  1  0.77500000  0.04520000  0.10760000  1
  H  H83  1  0.77410000  0.64510000  0.04400000  1
  H  H84  1  0.77050000  0.22020000  0.88280000  1
  H  H85  1  0.76710000  0.80210000  0.23640000  1
  H  H86  1  0.75720000  0.88750000  0.71360000  1
  H  H87  1  0.75110000  0.00790000  0.67200000  1
  H  H88  1  0.74890000  0.17990000  0.32800000  1
  H  H89  1  0.74280000  0.10110000  0.28640000  1
  H  H90  1  0.73290000  0.53850000  0.76360000  1
  H  H91  1  0.72950000  0.60300000  0.11720000  1
  H  H92  1  0.72590000  0.18910000  0.95600000  1
  H  H93  1  0.72500000  0.65280000  0.89240000  1
  H  H94  1  0.72020000  0.34670000  0.38280000  1
  H  H95  1  0.71850000  0.42070000  0.20320000  1
  H  H96  1  0.71790000  0.41320000  0.69320000  1
  H  H97  1  0.70640000  0.17060000  0.75280000  1
  H  H98  1  0.69790000  0.00350000  0.26360000  1
  H  H99  1  0.69210000  0.37890000  0.97480000  1
  H  H100  1  0.69030000  0.64060000  0.19360000  1
  H  H101  1  0.68910000  0.31810000  0.45600000  1
  H  H102  1  0.68330000  0.46730000  0.42180000  1
  H  H103  1  0.68250000  0.02750000  0.89120000  1
  H  H104  1  0.68190000  0.31090000  0.04400000  1
  H  H105  1  0.67990000  0.92310000  0.82800000  1
  H  H106  1  0.67940000  0.96730000  0.20440000  1
  H  H107  1  0.67630000  0.66870000  0.30900000  1
  H  H108  1  0.67170000  0.82060000  0.29560000  1
  H  H109  1  0.67060000  0.54080000  0.25280000  1
  H  H110  1  0.66870000  0.67630000  0.80900000  1
  H  H111  1  0.66690000  0.12110000  0.02520000  1
  H  H112  1  0.66580000  0.19030000  0.69360000  1
  H  H113  1  0.65450000  0.98790000  0.96540000  1
  H  H114  1  0.65330000  0.27980000  0.11720000  1
  H  H115  1  0.65280000  0.72500000  0.39240000  1
  H  H116  1  0.64630000  0.83310000  0.47480000  1
  H  H117  1  0.64510000  0.77410000  0.54400000  1
  H  H118  1  0.64060000  0.69030000  0.69360000  1
  H  H119  1  0.63990000  0.59930000  0.96360000  1
  H  H120  1  0.62390000  0.42170000  0.29680000  1
  H  H121  1  0.62110000  0.30790000  0.52520000  1
  H  H122  1  0.61990000  0.51210000  0.03460000  1
  H  H123  1  0.61740000  0.84720000  0.10760000  1
  H  H124  1  0.61620000  0.82830000  0.20440000  1
  H  H125  1  0.61610000  0.16580000  0.19360000  1
  H  H126  1  0.61250000  0.47080000  0.78640000  1
  H  H127  1  0.61090000  0.18330000  0.92180000  1
  H  H128  1  0.60640000  0.78210000  0.80680000  1
  H  H129  1  0.60510000  0.88910000  0.57820000  1
  H  H130  1  0.60350000  0.90070000  0.03640000  1
  H  H131  1  0.60300000  0.72950000  0.61720000  1
  H  H132  1  0.60110000  0.97080000  0.78640000  1
  H  H133  1  0.59930000  0.63990000  0.46360000  1
  H  H134  1  0.58890000  0.91320000  0.69320000  1
  H  H135  1  0.58680000  0.28210000  0.80680000  1
  H  H136  1  0.58130000  0.18250000  0.39120000  1
  H  H137  1  0.57930000  0.28150000  0.29680000  1
  H  H138  1  0.57830000  0.37610000  0.20320000  1
  H  H139  1  0.57690000  0.50790000  0.67200000  1
  H  H140  1  0.57670000  0.52690000  0.42340000  1
  H  H141  1  0.57660000  0.20640000  0.25280000  1
  H  H142  1  0.57370000  0.47250000  0.10880000  1
  H  H143  1  0.56290000  0.10350000  0.53640000  1
  H  H144  1  0.54970000  0.07670000  0.92340000  1
  H  H145  1  0.54670000  0.15450000  0.46540000  1
  H  H146  1  0.54520000  0.11740000  0.60760000  1
  H  H147  1  0.54080000  0.67060000  0.75280000  1
  H  H148  1  0.53850000  0.73290000  0.26360000  1
  H  H149  1  0.53270000  0.88380000  0.29560000  1
  H  H150  1  0.53270000  0.31670000  0.07820000  1
  H  H151  1  0.52920000  0.38750000  0.71360000  1
  H  H152  1  0.52750000  0.42630000  0.39120000  1
  H  H153  1  0.52690000  0.57670000  0.92340000  1
  H  H154  1  0.52230000  0.17630000  0.80900000  1
  H  H155  1  0.51470000  0.02230000  0.30900000  1
  H  H156  1  0.51210000  0.61990000  0.53460000  1
  H  H157  1  0.50790000  0.57690000  0.17200000  1
  H  H158  1  0.50350000  0.03850000  0.76360000  1
  H  H159  1  0.50010000  0.95030000  0.57660000  1
  H  H160  1  0.49990000  0.04970000  0.42340000  1
  H  H161  1  0.49650000  0.96150000  0.23640000  1
  H  H162  1  0.49210000  0.42310000  0.82800000  1
  H  H163  1  0.48790000  0.38010000  0.46540000  1
  H  H164  1  0.48530000  0.97770000  0.69100000  1
  H  H165  1  0.47770000  0.82370000  0.19100000  1
  H  H166  1  0.47310000  0.42330000  0.07660000  1
  H  H167  1  0.47250000  0.57370000  0.60880000  1
  H  H168  1  0.47080000  0.61250000  0.28640000  1
  H  H169  1  0.46730000  0.68330000  0.92180000  1
  H  H170  1  0.46730000  0.11620000  0.70440000  1
  H  H171  1  0.46150000  0.26710000  0.73640000  1
  H  H172  1  0.45920000  0.32940000  0.24720000  1
  H  H173  1  0.45480000  0.88260000  0.39240000  1
  H  H174  1  0.45330000  0.84550000  0.53460000  1
  H  H175  1  0.45030000  0.92330000  0.07660000  1
  H  H176  1  0.43710000  0.89650000  0.46360000  1
  H  H177  1  0.42630000  0.52750000  0.89120000  1
  H  H178  1  0.42340000  0.79360000  0.74720000  1
  H  H179  1  0.42330000  0.47310000  0.57660000  1
  H  H180  1  0.42310000  0.49210000  0.32800000  1
  H  H181  1  0.42170000  0.62390000  0.79680000  1
  H  H182  1  0.42070000  0.71850000  0.70320000  1
  H  H183  1  0.41870000  0.81750000  0.60880000  1
  H  H184  1  0.41320000  0.71790000  0.19320000  1
  H  H185  1  0.41110000  0.08680000  0.30680000  1
  H  H186  1  0.40070000  0.36010000  0.53640000  1
  H  H187  1  0.39890000  0.02920000  0.21360000  1
  H  H188  1  0.39700000  0.27050000  0.38280000  1
  H  H189  1  0.39650000  0.09930000  0.96360000  1
  H  H190  1  0.39490000  0.11090000  0.42180000  1
  H  H191  1  0.39360000  0.21790000  0.19320000  1
  H  H192  1  0.38910000  0.81670000  0.07820000  1
  H  H193  1  0.38750000  0.52920000  0.21360000  1
  H  H194  1  0.38390000  0.83420000  0.80640000  1
  H  H195  1  0.38380000  0.17170000  0.79560000  1
  H  H196  1  0.38260000  0.15280000  0.89240000  1
  H  H197  1  0.38010000  0.48790000  0.96540000  1
  H  H198  1  0.37890000  0.69210000  0.47480000  1
  H  H199  1  0.37610000  0.57830000  0.70320000  1
  H  H200  1  0.36010000  0.40070000  0.03640000  1
  H  H201  1  0.35940000  0.30970000  0.30640000  1
  H  H202  1  0.35490000  0.22590000  0.45600000  1
  H  H203  1  0.35370000  0.16690000  0.52520000  1
  H  H204  1  0.34720000  0.27500000  0.60760000  1
  H  H205  1  0.34670000  0.72020000  0.88280000  1
  H  H206  1  0.34550000  0.01210000  0.03460000  1
  H  H207  1  0.33420000  0.80970000  0.30640000  1
  H  H208  1  0.33310000  0.87890000  0.97480000  1
  H  H209  1  0.33130000  0.32370000  0.19100000  1
  H  H210  1  0.32940000  0.45920000  0.74720000  1
  H  H211  1  0.32830000  0.17940000  0.70440000  1
  H  H212  1  0.32370000  0.33130000  0.69100000  1
  H  H213  1  0.32060000  0.03270000  0.79560000  1
  H  H214  1  0.32010000  0.07690000  0.17200000  1
  H  H215  1  0.31810000  0.68910000  0.95600000  1
  H  H216  1  0.31750000  0.97250000  0.10880000  1
  H  H217  1  0.31670000  0.53270000  0.57820000  1
  H  H218  1  0.31090000  0.68190000  0.54400000  1
  H  H219  1  0.30970000  0.35940000  0.80640000  1
  H  H220  1  0.30790000  0.62110000  0.02520000  1
  H  H221  1  0.30210000  0.99650000  0.73640000  1
  H  H222  1  0.29360000  0.82940000  0.24720000  1
  H  H223  1  0.28210000  0.58680000  0.30680000  1
  H  H224  1  0.28150000  0.57930000  0.79680000  1
  H  H225  1  0.27980000  0.65330000  0.61720000  1
  H  H226  1  0.27500000  0.34720000  0.10760000  1
  H  H227  1  0.27410000  0.81090000  0.04400000  1
  H  H228  1  0.27050000  0.39700000  0.88280000  1
  H  H229  1  0.26710000  0.46150000  0.23640000  1
  H  H230  1  0.25720000  0.89890000  0.71360000  1
  H  H231  1  0.25110000  0.82010000  0.67200000  1
  H  H232  1  0.24890000  0.99210000  0.32800000  1
  H  H233  1  0.24280000  0.11250000  0.28640000  1
  H  H234  1  0.23290000  0.19790000  0.76360000  1
  H  H235  1  0.22950000  0.77980000  0.11720000  1
  H  H236  1  0.22590000  0.35490000  0.95600000  1
  H  H237  1  0.22500000  0.95480000  0.89240000  1
  H  H238  1  0.22020000  0.77050000  0.38280000  1
  H  H239  1  0.21850000  0.87610000  0.20320000  1
  H  H240  1  0.21790000  0.39360000  0.69320000  1
  H  H241  1  0.20640000  0.57660000  0.75280000  1
  H  H242  1  0.19790000  0.23290000  0.26360000  1
  H  H243  1  0.19210000  0.14630000  0.97480000  1
  H  H244  1  0.19030000  0.66580000  0.19360000  1
  H  H245  1  0.18910000  0.72590000  0.45600000  1
  H  H246  1  0.18330000  0.61090000  0.42180000  1
  H  H247  1  0.18250000  0.58130000  0.89120000  1
  H  H248  1  0.18190000  0.14510000  0.04400000  1
  H  H249  1  0.17990000  0.74890000  0.82800000  1
  H  H250  1  0.17940000  0.32830000  0.20440000  1
  H  H251  1  0.17630000  0.52230000  0.30900000  1
  H  H252  1  0.17170000  0.38380000  0.29560000  1
  H  H253  1  0.17060000  0.70640000  0.25280000  1
  H  H254  1  0.16870000  0.01470000  0.80900000  1
  H  H255  1  0.16690000  0.35370000  0.02520000  1
  H  H256  1  0.16580000  0.61610000  0.69360000  1
  H  H257  1  0.15450000  0.54670000  0.96540000  1
  H  H258  1  0.15330000  0.10300000  0.11720000  1
  H  H259  1  0.15280000  0.38260000  0.39240000  1
  H  H260  1  0.14630000  0.19210000  0.47480000  1
  H  H261  1  0.14510000  0.18190000  0.54400000  1
  H  H262  1  0.14060000  0.11610000  0.69360000  1
  H  H263  1  0.13990000  0.93710000  0.96360000  1
  H  H264  1  0.12390000  0.78150000  0.29680000  1
  H  H265  1  0.12110000  0.66690000  0.52520000  1
  H  H266  1  0.11990000  0.95330000  0.03460000  1
  H  H267  1  0.11740000  0.54520000  0.10760000  1
  H  H268  1  0.11620000  0.46730000  0.20440000  1
  H  H269  1  0.11610000  0.14060000  0.19360000  1
  H  H270  1  0.11250000  0.24280000  0.78640000  1
  H  H271  1  0.11090000  0.39490000  0.92180000  1
  H  H272  1  0.10640000  0.91110000  0.80680000  1
  H  H273  1  0.10510000  0.03270000  0.57820000  1
  H  H274  1  0.10350000  0.56290000  0.03640000  1
  H  H275  1  0.10300000  0.15330000  0.61720000  1
  H  H276  1  0.10110000  0.74280000  0.78640000  1
  H  H277  1  0.09930000  0.39650000  0.46360000  1
  H  H278  1  0.08890000  0.89360000  0.69320000  1
  H  H279  1  0.08680000  0.41110000  0.80680000  1
  H  H280  1  0.08130000  0.92630000  0.39120000  1
  H  H281  1  0.07930000  0.92170000  0.29680000  1
  H  H282  1  0.07830000  0.92070000  0.20320000  1
  H  H283  1  0.07690000  0.32010000  0.67200000  1
  H  H284  1  0.07670000  0.54970000  0.42340000  1
  H  H285  1  0.07660000  0.04080000  0.25280000  1
  H  H286  1  0.07370000  0.91870000  0.10880000  1
  H  H287  1  0.06290000  0.86010000  0.53640000  1
  H  H288  1  0.04970000  0.49990000  0.92340000  1
  H  H289  1  0.04670000  0.88010000  0.46540000  1
  H  H290  1  0.04520000  0.77500000  0.60760000  1
  H  H291  1  0.04080000  0.07660000  0.75280000  1
  H  H292  1  0.03850000  0.50350000  0.26360000  1
  H  H293  1  0.03270000  0.10510000  0.07820000  1
  H  H294  1  0.03270000  0.32060000  0.29560000  1
  H  H295  1  0.02920000  0.39890000  0.71360000  1
  H  H296  1  0.02750000  0.68250000  0.39120000  1
  H  H297  1  0.02690000  0.99990000  0.92340000  1
  H  H298  1  0.02230000  0.51470000  0.80900000  1
  H  H299  1  0.01470000  0.16870000  0.30900000  1
  H  H300  1  0.01210000  0.34550000  0.53460000  1
  H  H301  1  0.00790000  0.75110000  0.17200000  1
  H  H302  1  0.00350000  0.69790000  0.76360000  1
  H  H303  1  0.00010000  0.97310000  0.57660000  1
  C  C304  1  0.99883000  0.36143000  0.71234000  1
  C  C305  1  0.99840000  0.78550000  0.18740000  1
  C  C306  1  0.99282000  0.71012000  0.40436000  1
  C  C307  1  0.99229000  0.08109000  0.10122000  1
  C  C308  1  0.99086000  0.12819000  0.33182000  1
  C  C309  1  0.99077000  0.82457000  0.86346000  1
  C  C310  1  0.98736000  0.33056000  0.29048000  1
  C  C311  1  0.98649000  0.58379000  0.86842000  1
  C  C312  1  0.98284000  0.89484000  0.63312000  1
  C  C313  1  0.98246000  0.26036000  0.68568000  1
  C  C314  1  0.98162000  0.04402000  0.39996000  1
  C  C315  1  0.97290000  0.68580000  0.31260000  1
  C  C316  1  0.97204000  0.48284000  0.13312000  1
  C  C317  1  0.96961000  0.10821000  0.13578000  1
  C  C318  1  0.96917000  0.88857000  0.23206000  1
  C  C319  1  0.96878000  0.69308000  0.44884000  1
  C  C320  1  0.96778000  0.32018000  0.25804000  1
  C  C321  1  0.96538000  0.76748000  0.38004000  1
  C  C322  1  0.96001000  0.50914000  0.16818000  1
  C  C323  1  0.95962000  0.11372000  0.79356000  1
  C  C324  1  0.95598000  0.01838000  0.10004000  1
  C  C325  1  0.95221000  0.51351000  0.63158000  1
  C  C326  1  0.94604000  0.16814000  0.81432000  1
  C  C327  1  0.94398000  0.51838000  0.10004000  1
  C  C328  1  0.93862000  0.23682000  0.41816000  1
  C  C329  1  0.92932000  0.18982000  0.45736000  1
  C  C330  1  0.92850000  0.09070000  0.33060000  1
  C  C331  1  0.92623000  0.78883000  0.21234000  1
  C  C332  1  0.92601000  0.35101000  0.73478000  1
  C  C333  1  0.92178000  0.46778000  0.75804000  1
  C  C334  1  0.92130000  0.57150000  0.16940000  1
  C  C335  1  0.91891000  0.00771000  0.39878000  1
  C  C336  1  0.91762000  0.14192000  0.55116000  1
  C  C337  1  0.91708000  0.73288000  0.46824000  1
  C  C338  1  0.91621000  0.85491000  0.63158000  1
  C  C339  1  0.91496000  0.80726000  0.39948000  1
  C  C340  1  0.91421000  0.83921000  0.23478000  1
  C  C341  1  0.90930000  0.07150000  0.16940000  1
  C  C342  1  0.90728000  0.25318000  0.70644000  1
  C  C343  1  0.90649000  0.58109000  0.10122000  1
  C  C344  1  0.89837000  0.29587000  0.46306000  1
  C  C345  1  0.89718000  0.11448000  0.59564000  1
  C  C346  1  0.89484000  0.98284000  0.13312000  1
  C  C347  1  0.89461000  0.60821000  0.13578000  1
  C  C348  1  0.89179000  0.03039000  0.36422000  1
  C  C349  1  0.88997000  0.79057000  0.44326000  1
  C  C350  1  0.88857000  0.96917000  0.73206000  1
  C  C351  1  0.88668000  0.64718000  0.54264000  1
  C  C352  1  0.88628000  0.04038000  0.70644000  1
  C  C353  1  0.88552000  0.10282000  0.90436000  1
  C  C354  1  0.88532000  0.20112000  0.53176000  1
  C  C355  1  0.88404000  0.47204000  0.63312000  1
  C  C356  1  0.88158000  0.44398000  0.60004000  1
  C  C357  1  0.87937000  0.29877000  0.73206000  1
  C  C358  1  0.87896000  0.48736000  0.79048000  1
  C  C359  1  0.87889000  0.36479000  0.29682000  1
  C  C360  1  0.87181000  0.00914000  0.16818000  1
  C  C361  1  0.86479000  0.82429000  0.79682000  1
  C  C362  1  0.86143000  0.75893000  0.53694000  1
  C  C363  1  0.86143000  0.28883000  0.21234000  1
  C  C364  1  0.85808000  0.08238000  0.94884000  1
  C  C365  1  0.85678000  0.65498000  0.58184000  1
  C  C366  1  0.85491000  0.91621000  0.13158000  1
  C  C367  1  0.85423000  0.67543000  0.13654000  1
  C  C368  1  0.85282000  0.42932000  0.95736000  1
  C  C369  1  0.85248000  0.15458000  0.88004000  1
  C  C370  1  0.85101000  0.33921000  0.23478000  1
  C  C371  1  0.84542000  0.14752000  0.61996000  1
  C  C372  1  0.84502000  0.43862000  0.91816000  1
  C  C373  1  0.83921000  0.91421000  0.73478000  1
  C  C374  1  0.83839000  0.37889000  0.79682000  1
  C  C375  1  0.83323000  0.23383000  0.55674000  1
  C  C376  1  0.83186000  0.05396000  0.68568000  1
  C  C377  1  0.83056000  0.72216000  0.79048000  1
  C  C378  1  0.82457000  0.99077000  0.36346000  1
  C  C379  1  0.82429000  0.86479000  0.29682000  1
  C  C380  1  0.82268000  0.46001000  0.66818000  1
  C  C381  1  0.82018000  0.77418000  0.75804000  1
  C  C382  1  0.81769000  0.40649000  0.60122000  1
  C  C383  1  0.81444000  0.20674000  0.60052000  1
  C  C384  1  0.81420000  0.28550000  0.18740000  1
  C  C385  1  0.81197000  0.49077000  0.36346000  1
  C  C386  1  0.81018000  0.07068000  0.04264000  1
  C  C387  1  0.80726000  0.91496000  0.89948000  1
  C  C388  1  0.80692000  0.41762000  0.05116000  1
  C  C389  1  0.79888000  0.11468000  0.96824000  1
  C  C390  1  0.79877000  0.38857000  0.23206000  1
  C  C391  1  0.79587000  0.63857000  0.96306000  1
  C  C392  1  0.79326000  0.18556000  0.89948000  1
  C  C393  1  0.79057000  0.88997000  0.94326000  1
  C  C394  1  0.78988000  0.39718000  0.09564000  1
  C  C395  1  0.78883000  0.92623000  0.71234000  1
  C  C396  1  0.78550000  0.99840000  0.68740000  1
  C  C397  1  0.77784000  0.62104000  0.70952000  1
  C  C398  1  0.77418000  0.82018000  0.25804000  1
  C  C399  1  0.76748000  0.96538000  0.88004000  1
  C  C400  1  0.76712000  0.38532000  0.03176000  1
  C  C401  1  0.76617000  0.16677000  0.94326000  1
  C  C402  1  0.76318000  0.06138000  0.08184000  1
  C  C403  1  0.76036000  0.33186000  0.18568000  1
  C  C404  1  0.75910000  0.42130000  0.66940000  1
  C  C405  1  0.75893000  0.86143000  0.03694000  1
  C  C406  1  0.75601000  0.39461000  0.63578000  1
  C  C407  1  0.75318000  0.38628000  0.20644000  1
  C  C408  1  0.74682000  0.09272000  0.79356000  1
  C  C409  1  0.74399000  0.53039000  0.36422000  1
  C  C410  1  0.74107000  0.39837000  0.96306000  1
  C  C411  1  0.74090000  0.59070000  0.33060000  1
  C  C412  1  0.73964000  0.01754000  0.81432000  1
  C  C413  1  0.73682000  0.64322000  0.91816000  1
  C  C414  1  0.73383000  0.61003000  0.05674000  1
  C  C415  1  0.73288000  0.91708000  0.96824000  1
  C  C416  1  0.73252000  0.34542000  0.11996000  1
  C  C417  1  0.72582000  0.57822000  0.74196000  1
  C  C418  1  0.72216000  0.83056000  0.29048000  1
  C  C419  1  0.71450000  0.18580000  0.31260000  1
  C  C420  1  0.71117000  0.13857000  0.28766000  1
  C  C421  1  0.71012000  0.99282000  0.90436000  1
  C  C422  1  0.70943000  0.33323000  0.05674000  1
  C  C423  1  0.70674000  0.58504000  0.10052000  1
  C  C424  1  0.70413000  0.10163000  0.03694000  1
  C  C425  1  0.70123000  0.12063000  0.76794000  1
  C  C426  1  0.70112000  0.58292000  0.03176000  1
  C  C427  1  0.69308000  0.96878000  0.94884000  1
  C  C428  1  0.69274000  0.31444000  0.10052000  1
  C  C429  1  0.68982000  0.61332000  0.95736000  1
  C  C430  1  0.68803000  0.35423000  0.63654000  1
  C  C431  1  0.68580000  0.97290000  0.81260000  1
  C  C432  1  0.68556000  0.30726000  0.39948000  1
  C  C433  1  0.68231000  0.50771000  0.39878000  1
  C  C434  1  0.67982000  0.03222000  0.24196000  1
  C  C435  1  0.67732000  0.62819000  0.33182000  1
  C  C436  1  0.67571000  0.66161000  0.70318000  1
  C  C437  1  0.67543000  0.85423000  0.63654000  1
  C  C438  1  0.66944000  0.01264000  0.20952000  1
  C  C439  1  0.66814000  0.23964000  0.31432000  1
  C  C440  1  0.66677000  0.29057000  0.44326000  1
  C  C441  1  0.66161000  0.67571000  0.20318000  1
  C  C442  1  0.66079000  0.14899000  0.26522000  1
  C  C443  1  0.65498000  0.85678000  0.08184000  1
  C  C444  1  0.65458000  0.26748000  0.38004000  1
  C  C445  1  0.64899000  0.07399000  0.76522000  1
  C  C446  1  0.64752000  0.53462000  0.11996000  1
  C  C447  1  0.64718000  0.88668000  0.04264000  1
  C  C448  1  0.64577000  0.31197000  0.86346000  1
  C  C449  1  0.64509000  0.54779000  0.86842000  1
  C  C450  1  0.64322000  0.73682000  0.41816000  1
  C  C451  1  0.64192000  0.53122000  0.05116000  1
  C  C452  1  0.63857000  0.79587000  0.46306000  1
  C  C453  1  0.63857000  0.00117000  0.78766000  1
  C  C454  1  0.63521000  0.12111000  0.20318000  1
  C  C455  1  0.62819000  0.67732000  0.83182000  1
  C  C456  1  0.62111000  0.16161000  0.70318000  1
  C  C457  1  0.62104000  0.77784000  0.20952000  1
  C  C458  1  0.62063000  0.53083000  0.26794000  1
  C  C459  1  0.61842000  0.54402000  0.39996000  1
  C  C460  1  0.61596000  0.60516000  0.36688000  1
  C  C461  1  0.61468000  0.23288000  0.46824000  1
  C  C462  1  0.61448000  0.50718000  0.09564000  1
  C  C463  1  0.61372000  0.24682000  0.29356000  1
  C  C464  1  0.61332000  0.68982000  0.45736000  1
  C  C465  1  0.61143000  0.20123000  0.26794000  1
  C  C466  1  0.61003000  0.73383000  0.55674000  1
  C  C467  1  0.60821000  0.89461000  0.63578000  1
  C  C468  1  0.60539000  0.24399000  0.86422000  1
  C  C469  1  0.60516000  0.61596000  0.86688000  1
  C  C470  1  0.60282000  0.21012000  0.40436000  1
  C  C471  1  0.60163000  0.25893000  0.53694000  1
  C  C472  1  0.59351000  0.18231000  0.89878000  1
  C  C473  1  0.59272000  0.45962000  0.29356000  1
  C  C474  1  0.59070000  0.74090000  0.83060000  1
  C  C475  1  0.58579000  0.57399000  0.76522000  1
  C  C476  1  0.58504000  0.70674000  0.60052000  1
  C  C477  1  0.58379000  0.98649000  0.36842000  1
  C  C478  1  0.58292000  0.70112000  0.53176000  1
  C  C479  1  0.58238000  0.19308000  0.44884000  1
  C  C480  1  0.58109000  0.90649000  0.60122000  1
  C  C481  1  0.57870000  0.24090000  0.83060000  1
  C  C482  1  0.57822000  0.72582000  0.24196000  1
  C  C483  1  0.57399000  0.58579000  0.26522000  1
  C  C484  1  0.57377000  0.50117000  0.78766000  1
  C  C485  1  0.57150000  0.92130000  0.66940000  1
  C  C486  1  0.57068000  0.14718000  0.54264000  1
  C  C487  1  0.56138000  0.15498000  0.58184000  1
  C  C488  1  0.55602000  0.11842000  0.89996000  1
  C  C489  1  0.55396000  0.48246000  0.18568000  1
  C  C490  1  0.54779000  0.64509000  0.36842000  1
  C  C491  1  0.54402000  0.61842000  0.89996000  1
  C  C492  1  0.54038000  0.40728000  0.20644000  1
  C  C493  1  0.53999000  0.17732000  0.83182000  1
  C  C494  1  0.53462000  0.64752000  0.61996000  1
  C  C495  1  0.53222000  0.07822000  0.74196000  1
  C  C496  1  0.53122000  0.64192000  0.55116000  1
  C  C497  1  0.53083000  0.62063000  0.76794000  1
  C  C498  1  0.53039000  0.74399000  0.86422000  1
  C  C499  1  0.52796000  0.11596000  0.86688000  1
  C  C500  1  0.52710000  0.49840000  0.68740000  1
  C  C501  1  0.51838000  0.94398000  0.60004000  1
  C  C502  1  0.51754000  0.44604000  0.31432000  1
  C  C503  1  0.51716000  0.02796000  0.36688000  1
  C  C504  1  0.51351000  0.95221000  0.13158000  1
  C  C505  1  0.51264000  0.12104000  0.70952000  1
  C  C506  1  0.50923000  0.18803000  0.13654000  1
  C  C507  1  0.50914000  0.96001000  0.66818000  1
  C  C508  1  0.50771000  0.68231000  0.89878000  1
  C  C509  1  0.50718000  0.61448000  0.59564000  1
  C  C510  1  0.50160000  0.47290000  0.81260000  1
  C  C511  1  0.50117000  0.57377000  0.28766000  1
  C  C512  1  0.49883000  0.42623000  0.71234000  1
  C  C513  1  0.49840000  0.52710000  0.18740000  1
  C  C514  1  0.49282000  0.38552000  0.40436000  1
  C  C515  1  0.49229000  0.31769000  0.10122000  1
  C  C516  1  0.49086000  0.03999000  0.33182000  1
  C  C517  1  0.49077000  0.81197000  0.86346000  1
  C  C518  1  0.48736000  0.87896000  0.29048000  1
  C  C519  1  0.48649000  0.04779000  0.86842000  1
  C  C520  1  0.48284000  0.97204000  0.63312000  1
  C  C521  1  0.48246000  0.55396000  0.68568000  1
  C  C522  1  0.48162000  0.05602000  0.39996000  1
  C  C523  1  0.47290000  0.50160000  0.31260000  1
  C  C524  1  0.47204000  0.88404000  0.13312000  1
  C  C525  1  0.46961000  0.25601000  0.13578000  1
  C  C526  1  0.46917000  0.37937000  0.23206000  1
  C  C527  1  0.46878000  0.35808000  0.44884000  1
  C  C528  1  0.46778000  0.92178000  0.25804000  1
  C  C529  1  0.46538000  0.35248000  0.38004000  1
  C  C530  1  0.46001000  0.82268000  0.16818000  1
  C  C531  1  0.45962000  0.59272000  0.79356000  1
  C  C532  1  0.45598000  0.38158000  0.10004000  1
  C  C533  1  0.45221000  0.35491000  0.63158000  1
  C  C534  1  0.44604000  0.51754000  0.81432000  1
  C  C535  1  0.44398000  0.88158000  0.10004000  1
  C  C536  1  0.43862000  0.84502000  0.41816000  1
  C  C537  1  0.42932000  0.85282000  0.45736000  1
  C  C538  1  0.42850000  0.07870000  0.33060000  1
  C  C539  1  0.42623000  0.49883000  0.21234000  1
  C  C540  1  0.42601000  0.41421000  0.73478000  1
  C  C541  1  0.42178000  0.27418000  0.75804000  1
  C  C542  1  0.42130000  0.75910000  0.16940000  1
  C  C543  1  0.41891000  0.09351000  0.39878000  1
  C  C544  1  0.41762000  0.80692000  0.55116000  1
  C  C545  1  0.41708000  0.29888000  0.46824000  1
  C  C546  1  0.41621000  0.01351000  0.63158000  1
  C  C547  1  0.41496000  0.29326000  0.39948000  1
  C  C548  1  0.41421000  0.42601000  0.23478000  1
  C  C549  1  0.40930000  0.25910000  0.16940000  1
  C  C550  1  0.40728000  0.54038000  0.70644000  1
  C  C551  1  0.40649000  0.81769000  0.10122000  1
  C  C552  1  0.39837000  0.74107000  0.46306000  1
  C  C553  1  0.39718000  0.78988000  0.59564000  1
  C  C554  1  0.39484000  0.38404000  0.13312000  1
  C  C555  1  0.39461000  0.75601000  0.13578000  1
  C  C556  1  0.39179000  0.10539000  0.36422000  1
  C  C557  1  0.38997000  0.26617000  0.44326000  1
  C  C558  1  0.38857000  0.79877000  0.73206000  1
  C  C559  1  0.38668000  0.31018000  0.54264000  1
  C  C560  1  0.38628000  0.75318000  0.70644000  1
  C  C561  1  0.38552000  0.49282000  0.90436000  1
  C  C562  1  0.38532000  0.76712000  0.53176000  1
  C  C563  1  0.38404000  0.39484000  0.63312000  1
  C  C564  1  0.38158000  0.45598000  0.60004000  1
  C  C565  1  0.37937000  0.46917000  0.73206000  1
  C  C566  1  0.37896000  0.22216000  0.79048000  1
  C  C567  1  0.37889000  0.83839000  0.29682000  1
  C  C568  1  0.37181000  0.32268000  0.16818000  1
  C  C569  1  0.36479000  0.87889000  0.79682000  1
  C  C570  1  0.36143000  0.99883000  0.21234000  1
  C  C571  1  0.36143000  0.20413000  0.53694000  1
  C  C572  1  0.35808000  0.46878000  0.94884000  1
  C  C573  1  0.35678000  0.26318000  0.58184000  1
  C  C574  1  0.35491000  0.45221000  0.13158000  1
  C  C575  1  0.35423000  0.68803000  0.13654000  1
  C  C576  1  0.35282000  0.11332000  0.95736000  1
  C  C577  1  0.35248000  0.46538000  0.88004000  1
  C  C578  1  0.35101000  0.92601000  0.23478000  1
  C  C579  1  0.34542000  0.73252000  0.61996000  1
  C  C580  1  0.34502000  0.14322000  0.91816000  1
  C  C581  1  0.33921000  0.85101000  0.73478000  1
  C  C582  1  0.33839000  0.32429000  0.79682000  1
  C  C583  1  0.33323000  0.70943000  0.55674000  1
  C  C584  1  0.33186000  0.76036000  0.68568000  1
  C  C585  1  0.33056000  0.98736000  0.79048000  1
  C  C586  1  0.32457000  0.14577000  0.36346000  1
  C  C587  1  0.32429000  0.33839000  0.29682000  1
  C  C588  1  0.32268000  0.37181000  0.66818000  1
  C  C589  1  0.32018000  0.96778000  0.75804000  1
  C  C590  1  0.31769000  0.49229000  0.60122000  1
  C  C591  1  0.31444000  0.69274000  0.60052000  1
  C  C592  1  0.31420000  0.02710000  0.18740000  1
  C  C593  1  0.31197000  0.64577000  0.36346000  1
  C  C594  1  0.31018000  0.38668000  0.04264000  1
  C  C595  1  0.30726000  0.68556000  0.89948000  1
  C  C596  1  0.30692000  0.03122000  0.05116000  1
  C  C597  1  0.29888000  0.41708000  0.96824000  1
  C  C598  1  0.29877000  0.87937000  0.23206000  1
  C  C599  1  0.29587000  0.89837000  0.96306000  1
  C  C600  1  0.29326000  0.41496000  0.89948000  1
  C  C601  1  0.29057000  0.66677000  0.94326000  1
  C  C602  1  0.28988000  0.00718000  0.09564000  1
  C  C603  1  0.28883000  0.86143000  0.71234000  1
  C  C604  1  0.28550000  0.81420000  0.68740000  1
  C  C605  1  0.27784000  0.16944000  0.70952000  1
  C  C606  1  0.27418000  0.42178000  0.25804000  1
  C  C607  1  0.26748000  0.65458000  0.88004000  1
  C  C608  1  0.26712000  0.08292000  0.03176000  1
  C  C609  1  0.26617000  0.38997000  0.94326000  1
  C  C610  1  0.26318000  0.35678000  0.08184000  1
  C  C611  1  0.26036000  0.98246000  0.18568000  1
  C  C612  1  0.25910000  0.40930000  0.66940000  1
  C  C613  1  0.25893000  0.60163000  0.03694000  1
  C  C614  1  0.25601000  0.46961000  0.63578000  1
  C  C615  1  0.25318000  0.90728000  0.20644000  1
  C  C616  1  0.24682000  0.61372000  0.79356000  1
  C  C617  1  0.24399000  0.60539000  0.36422000  1
  C  C618  1  0.24107000  0.13857000  0.96306000  1
  C  C619  1  0.24090000  0.57870000  0.33060000  1
  C  C620  1  0.23964000  0.66814000  0.81432000  1
  C  C621  1  0.23682000  0.93862000  0.91816000  1
  C  C622  1  0.23383000  0.83323000  0.05674000  1
  C  C623  1  0.23288000  0.61468000  0.96824000  1
  C  C624  1  0.23252000  0.03462000  0.11996000  1
  C  C625  1  0.22582000  0.17982000  0.74196000  1
  C  C626  1  0.22216000  0.37896000  0.29048000  1
  C  C627  1  0.21450000  0.00160000  0.31260000  1
  C  C628  1  0.21117000  0.07377000  0.28766000  1
  C  C629  1  0.21012000  0.60282000  0.90436000  1
  C  C630  1  0.20943000  0.11003000  0.05674000  1
  C  C631  1  0.20674000  0.81444000  0.10052000  1
  C  C632  1  0.20413000  0.36143000  0.03694000  1
  C  C633  1  0.20123000  0.61143000  0.76794000  1
  C  C634  1  0.20112000  0.88532000  0.03176000  1
  C  C635  1  0.19308000  0.58238000  0.94884000  1
  C  C636  1  0.19274000  0.08504000  0.10052000  1
  C  C637  1  0.18982000  0.92932000  0.95736000  1
  C  C638  1  0.18803000  0.50923000  0.63654000  1
  C  C639  1  0.18580000  0.71450000  0.81260000  1
  C  C640  1  0.18556000  0.79326000  0.39948000  1
  C  C641  1  0.18231000  0.59351000  0.39878000  1
  C  C642  1  0.17982000  0.22582000  0.24196000  1
  C  C643  1  0.17732000  0.53999000  0.33182000  1
  C  C644  1  0.17571000  0.13521000  0.70318000  1
  C  C645  1  0.17543000  0.00923000  0.63654000  1
  C  C646  1  0.16944000  0.27784000  0.20952000  1
  C  C647  1  0.16814000  0.94604000  0.31432000  1
  C  C648  1  0.16677000  0.76617000  0.44326000  1
  C  C649  1  0.16161000  0.62111000  0.20318000  1
  C  C650  1  0.16079000  0.08579000  0.26522000  1
  C  C651  1  0.15498000  0.56138000  0.08184000  1
  C  C652  1  0.15458000  0.85248000  0.38004000  1
  C  C653  1  0.14899000  0.66079000  0.76522000  1
  C  C654  1  0.14752000  0.84542000  0.11996000  1
  C  C655  1  0.14718000  0.57068000  0.04264000  1
  C  C656  1  0.14577000  0.32457000  0.86346000  1
  C  C657  1  0.14509000  0.08379000  0.86842000  1
  C  C658  1  0.14322000  0.34502000  0.41816000  1
  C  C659  1  0.14192000  0.91762000  0.05116000  1
  C  C660  1  0.13857000  0.71117000  0.78766000  1
  C  C661  1  0.13857000  0.24107000  0.46306000  1
  C  C662  1  0.13521000  0.17571000  0.20318000  1
  C  C663  1  0.12819000  0.99086000  0.83182000  1
  C  C664  1  0.12111000  0.63521000  0.70318000  1
  C  C665  1  0.12104000  0.51264000  0.20952000  1
  C  C666  1  0.12063000  0.70123000  0.26794000  1
  C  C667  1  0.11842000  0.55602000  0.39996000  1
  C  C668  1  0.11596000  0.52796000  0.36688000  1
  C  C669  1  0.11468000  0.79888000  0.46824000  1
  C  C670  1  0.11448000  0.89718000  0.09564000  1
  C  C671  1  0.11372000  0.95962000  0.29356000  1
  C  C672  1  0.11332000  0.35282000  0.45736000  1
  C  C673  1  0.11143000  0.03083000  0.26794000  1
  C  C674  1  0.11003000  0.20943000  0.55674000  1
  C  C675  1  0.10821000  0.96961000  0.63578000  1
  C  C676  1  0.10539000  0.39179000  0.86422000  1
  C  C677  1  0.10516000  0.01716000  0.86688000  1
  C  C678  1  0.10282000  0.88552000  0.40436000  1
  C  C679  1  0.10163000  0.70413000  0.53694000  1
  C  C680  1  0.09351000  0.41891000  0.89878000  1
  C  C681  1  0.09272000  0.74682000  0.29356000  1
  C  C682  1  0.09070000  0.92850000  0.83060000  1
  C  C683  1  0.08579000  0.16079000  0.76522000  1
  C  C684  1  0.08504000  0.19274000  0.60052000  1
  C  C685  1  0.08379000  0.14509000  0.36842000  1
  C  C686  1  0.08292000  0.26712000  0.53176000  1
  C  C687  1  0.08238000  0.85808000  0.44884000  1
  C  C688  1  0.08109000  0.99229000  0.60122000  1
  C  C689  1  0.07870000  0.42850000  0.83060000  1
  C  C690  1  0.07822000  0.53222000  0.24196000  1
  C  C691  1  0.07399000  0.64899000  0.26522000  1
  C  C692  1  0.07377000  0.21117000  0.78766000  1
  C  C693  1  0.07150000  0.90930000  0.66940000  1
  C  C694  1  0.07068000  0.81018000  0.54264000  1
  C  C695  1  0.06138000  0.76318000  0.58184000  1
  C  C696  1  0.05602000  0.48162000  0.89996000  1
  C  C697  1  0.05396000  0.83186000  0.18568000  1
  C  C698  1  0.04779000  0.48649000  0.36842000  1
  C  C699  1  0.04402000  0.98162000  0.89996000  1
  C  C700  1  0.04038000  0.88628000  0.20644000  1
  C  C701  1  0.03999000  0.49086000  0.83182000  1
  C  C702  1  0.03462000  0.23252000  0.61996000  1
  C  C703  1  0.03222000  0.67982000  0.74196000  1
  C  C704  1  0.03122000  0.30692000  0.55116000  1
  C  C705  1  0.03083000  0.11143000  0.76794000  1
  C  C706  1  0.03039000  0.89179000  0.86422000  1
  C  C707  1  0.02796000  0.51716000  0.86688000  1
  C  C708  1  0.02710000  0.31420000  0.68740000  1
  C  C709  1  0.01838000  0.95598000  0.60004000  1
  C  C710  1  0.01754000  0.73964000  0.31432000  1
  C  C711  1  0.01716000  0.10516000  0.36688000  1
  C  C712  1  0.01351000  0.41621000  0.13158000  1
  C  C713  1  0.01264000  0.66944000  0.70952000  1
  C  C714  1  0.00923000  0.17543000  0.13654000  1
  C  C715  1  0.00914000  0.87181000  0.66818000  1
  C  C716  1  0.00771000  0.91891000  0.89878000  1
  C  C717  1  0.00718000  0.28988000  0.59564000  1
  C  C718  1  0.00160000  0.21450000  0.81260000  1
  C  C719  1  0.00117000  0.63857000  0.28766000  1
  N  N720  1  0.93115000  0.35815000  0.31550000  1
  N  N721  1  0.92075000  0.30425000  0.42230000  1
  N  N722  1  0.90616000  0.22836000  0.48668000  1
  N  N723  1  0.89756000  0.34081000  0.26202000  1
  N  N724  1  0.89717000  0.39756000  0.76202000  1
  N  N725  1  0.89284000  0.71504000  0.51332000  1
  N  N726  1  0.85815000  0.75335000  0.81550000  1
  N  N727  1  0.84305000  0.72655000  0.57770000  1
  N  N728  1  0.84081000  0.84042000  0.76202000  1
  N  N729  1  0.84042000  0.84081000  0.26202000  1
  N  N730  1  0.82635000  0.43115000  0.81550000  1
  N  N731  1  0.80425000  0.65695000  0.92230000  1
  N  N732  1  0.78496000  0.40616000  0.98668000  1
  N  N733  1  0.77345000  0.42075000  0.92230000  1
  N  N734  1  0.77164000  0.09384000  0.01332000  1
  N  N735  1  0.75335000  0.85815000  0.31550000  1
  N  N736  1  0.74665000  0.67365000  0.68450000  1
  N  N737  1  0.72836000  0.60716000  0.98668000  1
  N  N738  1  0.72655000  0.84305000  0.07770000  1
  N  N739  1  0.71504000  0.89284000  0.01332000  1
  N  N740  1  0.69575000  0.07925000  0.07770000  1
  N  N741  1  0.67365000  0.74665000  0.18450000  1
  N  N742  1  0.65958000  0.60283000  0.73798000  1
  N  N743  1  0.65919000  0.10244000  0.23798000  1
  N  N744  1  0.65695000  0.80425000  0.42230000  1
  N  N745  1  0.64185000  0.06885000  0.18450000  1
  N  N746  1  0.60716000  0.72836000  0.48668000  1
  N  N747  1  0.60283000  0.65958000  0.23798000  1
  N  N748  1  0.60244000  0.10283000  0.73798000  1
  N  N749  1  0.59384000  0.21504000  0.51332000  1
  N  N750  1  0.57925000  0.22655000  0.57770000  1
  N  N751  1  0.56885000  0.17365000  0.68450000  1
  N  N752  1  0.43115000  0.82635000  0.31550000  1
  N  N753  1  0.42075000  0.77345000  0.42230000  1
  N  N754  1  0.40616000  0.78496000  0.48668000  1
  N  N755  1  0.39756000  0.89717000  0.26202000  1
  N  N756  1  0.39717000  0.34042000  0.76202000  1
  N  N757  1  0.39284000  0.27164000  0.51332000  1
  N  N758  1  0.35815000  0.93115000  0.81550000  1
  N  N759  1  0.34305000  0.19575000  0.57770000  1
  N  N760  1  0.34081000  0.89756000  0.76202000  1
  N  N761  1  0.34042000  0.39717000  0.26202000  1
  N  N762  1  0.32635000  0.25335000  0.81550000  1
  N  N763  1  0.30425000  0.92075000  0.92230000  1
  N  N764  1  0.28496000  0.10716000  0.98668000  1
  N  N765  1  0.27345000  0.15695000  0.92230000  1
  N  N766  1  0.27164000  0.39284000  0.01332000  1
  N  N767  1  0.25335000  0.32635000  0.31550000  1
  N  N768  1  0.24665000  0.14185000  0.68450000  1
  N  N769  1  0.22836000  0.90616000  0.98668000  1
  N  N770  1  0.22655000  0.57925000  0.07770000  1
  N  N771  1  0.21504000  0.59384000  0.01332000  1
  N  N772  1  0.19575000  0.34305000  0.07770000  1
  N  N773  1  0.17365000  0.56885000  0.18450000  1
  N  N774  1  0.15958000  0.15919000  0.73798000  1
  N  N775  1  0.15919000  0.15958000  0.23798000  1
  N  N776  1  0.15695000  0.27345000  0.42230000  1
  N  N777  1  0.14185000  0.24665000  0.18450000  1
  N  N778  1  0.10716000  0.28496000  0.48668000  1
  N  N779  1  0.10283000  0.60244000  0.23798000  1
  N  N780  1  0.10244000  0.65919000  0.73798000  1
  N  N781  1  0.09384000  0.77164000  0.51332000  1
  N  N782  1  0.07925000  0.69575000  0.57770000  1
  N  N783  1  0.06885000  0.64185000  0.68450000  1
  O  O784  1  0.99069000  0.48289000  0.39766000  1
  O  O785  1  0.99007000  0.79062000  0.33586000  1
  O  O786  1  0.98983000  0.19780000  0.16868000  1
  O  O787  1  0.98289000  0.61165000  0.89766000  1
  O  O788  1  0.95430000  0.60880000  0.84044000  1
  O  O789  1  0.94924000  0.54570000  0.65956000  1
  O  O790  1  0.93702000  0.79255000  0.89530000  1
  O  O791  1  0.89120000  0.79474000  0.65956000  1
  O  O792  1  0.88835000  0.88055000  0.60234000  1
  O  O793  1  0.88055000  0.88835000  0.10234000  1
  O  O794  1  0.87352000  0.17407000  0.83586000  1
  O  O795  1  0.86648000  0.51017000  0.33132000  1
  O  O796  1  0.84149000  0.69780000  0.16868000  1
  O  O797  1  0.83232000  0.70745000  0.10470000  1
  O  O798  1  0.82593000  0.12648000  0.66414000  1
  O  O799  1  0.81215000  0.43702000  0.39530000  1
  O  O800  1  0.80220000  0.01017000  0.33132000  1
  O  O801  1  0.79474000  0.89120000  0.15956000  1
  O  O802  1  0.79255000  0.93702000  0.39530000  1
  O  O803  1  0.79062000  0.99007000  0.83586000  1
  O  O804  1  0.70938000  0.32593000  0.16414000  1
  O  O805  1  0.70745000  0.83232000  0.60470000  1
  O  O806  1  0.70526000  0.55076000  0.84044000  1
  O  O807  1  0.69780000  0.84149000  0.66868000  1
  O  O808  1  0.68785000  0.33232000  0.60470000  1
  O  O809  1  0.67407000  0.29062000  0.33586000  1
  O  O810  1  0.66768000  0.31215000  0.89530000  1
  O  O811  1  0.65851000  0.36648000  0.83132000  1
  O  O812  1  0.63352000  0.34149000  0.66868000  1
  O  O813  1  0.62648000  0.50993000  0.16414000  1
  O  O814  1  0.61945000  0.49069000  0.89766000  1
  O  O815  1  0.61165000  0.98289000  0.39766000  1
  O  O816  1  0.60880000  0.95430000  0.34044000  1
  O  O817  1  0.56298000  0.18785000  0.10470000  1
  O  O818  1  0.55076000  0.70526000  0.34044000  1
  O  O819  1  0.54570000  0.94924000  0.15956000  1
  O  O820  1  0.51711000  0.00931000  0.10234000  1
  O  O821  1  0.51017000  0.86648000  0.83132000  1
  O  O822  1  0.50993000  0.62648000  0.66414000  1
  O  O823  1  0.50931000  0.38055000  0.60234000  1
  O  O824  1  0.49069000  0.61945000  0.39766000  1
  O  O825  1  0.49007000  0.37352000  0.33586000  1
  O  O826  1  0.48983000  0.13352000  0.16868000  1
  O  O827  1  0.48289000  0.99069000  0.89766000  1
  O  O828  1  0.45430000  0.05076000  0.84044000  1
  O  O829  1  0.44924000  0.29474000  0.65956000  1
  O  O830  1  0.43702000  0.81215000  0.89530000  1
  O  O831  1  0.39120000  0.04570000  0.65956000  1
  O  O832  1  0.38835000  0.01711000  0.60234000  1
  O  O833  1  0.38055000  0.50931000  0.10234000  1
  O  O834  1  0.37352000  0.49007000  0.83586000  1
  O  O835  1  0.36648000  0.65851000  0.33132000  1
  O  O836  1  0.34149000  0.63352000  0.16868000  1
  O  O837  1  0.33232000  0.68785000  0.10470000  1
  O  O838  1  0.32593000  0.70938000  0.66414000  1
  O  O839  1  0.31215000  0.66768000  0.39530000  1
  O  O840  1  0.30220000  0.15851000  0.33132000  1
  O  O841  1  0.29474000  0.44924000  0.15956000  1
  O  O842  1  0.29255000  0.16768000  0.39530000  1
  O  O843  1  0.29062000  0.67407000  0.83586000  1
  O  O844  1  0.20938000  0.00993000  0.16414000  1
  O  O845  1  0.20745000  0.06298000  0.60470000  1
  O  O846  1  0.20526000  0.10880000  0.84044000  1
  O  O847  1  0.19780000  0.98983000  0.66868000  1
  O  O848  1  0.18785000  0.56298000  0.60470000  1
  O  O849  1  0.17407000  0.87352000  0.33586000  1
  O  O850  1  0.16768000  0.29255000  0.89530000  1
  O  O851  1  0.15851000  0.30220000  0.83132000  1
  O  O852  1  0.13352000  0.48983000  0.66868000  1
  O  O853  1  0.12648000  0.82593000  0.16414000  1
  O  O854  1  0.11945000  0.11165000  0.89766000  1
  O  O855  1  0.11165000  0.11945000  0.39766000  1
  O  O856  1  0.10880000  0.20526000  0.34044000  1
  O  O857  1  0.06298000  0.20745000  0.10470000  1
  O  O858  1  0.05076000  0.45430000  0.34044000  1
  O  O859  1  0.04570000  0.39120000  0.15956000  1
  O  O860  1  0.01711000  0.38835000  0.10234000  1
  O  O861  1  0.01017000  0.80220000  0.83132000  1
  O  O862  1  0.00993000  0.20938000  0.66414000  1
  O  O863  1  0.00931000  0.51711000  0.60234000  1
