# generated using pymatgen
data_Ni2H22C39N4(O4F3)2
_symmetry_space_group_name_H-M   'P 1'
_cell_length_a   8.19840000
_cell_length_b   11.30700000
_cell_length_c   24.09400000
_cell_angle_alpha   90.00000000
_cell_angle_beta   90.00000000
_cell_angle_gamma   90.00000000
_symmetry_Int_Tables_number   1
_chemical_formula_structural   Ni2H22C39N4(O4F3)2
_chemical_formula_sum   'Ni4 H44 C78 N8 O16 F12'
_cell_volume   2233.49714623
_cell_formula_units_Z   2
loop_
 _symmetry_equiv_pos_site_id
 _symmetry_equiv_pos_as_xyz
  1  'x, y, z'
loop_
 _atom_site_type_symbol
 _atom_site_label
 _atom_site_symmetry_multiplicity
 _atom_site_fract_x
 _atom_site_fract_y
 _atom_site_fract_z
 _atom_site_occupancy
  Ni  Ni0  1  0.90934000  0.52940000  0.81500000  1
  Ni  Ni1  1  0.59066000  0.47060000  0.31500000  1
  Ni  Ni2  1  0.40934000  0.47060000  0.68500000  1
  Ni  Ni3  1  0.09066000  0.52940000  0.18500000  1
  H  H4  1  0.99870000  0.12540000  0.10690000  1
  H  H5  1  0.99050000  0.32660000  0.11210000  1
  H  H6  1  0.91540000  0.73680000  0.13020000  1
  H  H7  1  0.90930000  0.93890000  0.12860000  1
  H  H8  1  0.90030000  0.74290000  0.68120000  1
  H  H9  1  0.87640000  0.86460000  0.60510000  1
  H  H10  1  0.84300000  0.64000000  0.48210000  1
  H  H11  1  0.83180000  0.32060000  0.73790000  1
  H  H12  1  0.82090000  0.11820000  0.73900000  1
  H  H13  1  0.79220000  0.06100000  0.26840000  1
  H  H14  1  0.78770000  0.26220000  0.27000000  1
  H  H15  1  0.71230000  0.73780000  0.77000000  1
  H  H16  1  0.70780000  0.93900000  0.76840000  1
  H  H17  1  0.67910000  0.88180000  0.23900000  1
  H  H18  1  0.66820000  0.67940000  0.23790000  1
  H  H19  1  0.65700000  0.36000000  0.98210000  1
  H  H20  1  0.62360000  0.13540000  0.10510000  1
  H  H21  1  0.59970000  0.25710000  0.18120000  1
  H  H22  1  0.59070000  0.06110000  0.62860000  1
  H  H23  1  0.58460000  0.26320000  0.63020000  1
  H  H24  1  0.50950000  0.67340000  0.61210000  1
  H  H25  1  0.50130000  0.87460000  0.60690000  1
  H  H26  1  0.49870000  0.87460000  0.39310000  1
  H  H27  1  0.49050000  0.67340000  0.38790000  1
  H  H28  1  0.41540000  0.26320000  0.36980000  1
  H  H29  1  0.40930000  0.06110000  0.37140000  1
  H  H30  1  0.40030000  0.25710000  0.81880000  1
  H  H31  1  0.37640000  0.13540000  0.89490000  1
  H  H32  1  0.34300000  0.36000000  0.01790000  1
  H  H33  1  0.33180000  0.67940000  0.76210000  1
  H  H34  1  0.32090000  0.88180000  0.76100000  1
  H  H35  1  0.29220000  0.93900000  0.23160000  1
  H  H36  1  0.28770000  0.73780000  0.23000000  1
  H  H37  1  0.21230000  0.26220000  0.73000000  1
  H  H38  1  0.20780000  0.06100000  0.73160000  1
  H  H39  1  0.17910000  0.11820000  0.26100000  1
  H  H40  1  0.16820000  0.32060000  0.26210000  1
  H  H41  1  0.15700000  0.64000000  0.51790000  1
  H  H42  1  0.12360000  0.86460000  0.39490000  1
  H  H43  1  0.09970000  0.74290000  0.31880000  1
  H  H44  1  0.09070000  0.93890000  0.87140000  1
  H  H45  1  0.08460000  0.73680000  0.86980000  1
  H  H46  1  0.00950000  0.32660000  0.88790000  1
  H  H47  1  0.00130000  0.12540000  0.89310000  1
  C  C48  1  1.00000000  0.84140000  0.50000000  1
  C  C49  1  0.99180000  0.77820000  0.15110000  1
  C  C50  1  0.98780000  0.76320000  0.44724000  1
  C  C51  1  0.98680000  0.90010000  0.15010000  1
  C  C52  1  0.96960000  0.28410000  0.85780000  1
  C  C53  1  0.96520000  0.16300000  0.86104000  1
  C  C54  1  0.96000000  0.61720000  0.35384000  1
  C  C55  1  0.95210000  0.54060000  0.30254000  1
  C  C56  1  0.95120000  0.72170000  0.64822000  1
  C  C57  1  0.93620000  0.79490000  0.60271000  1
  C  C58  1  0.90740000  0.09590000  0.81691000  1
  C  C59  1  0.90270000  0.96440000  0.81871000  1
  C  C60  1  0.89580000  0.66040000  0.44932000  1
  C  C61  1  0.88130000  0.58720000  0.40300000  1
  C  C62  1  0.86540000  0.28080000  0.76965000  1
  C  C63  1  0.85850000  0.15860000  0.77011000  1
  C  C64  1  0.84420000  0.91930000  0.50010000  1
  C  C65  1  0.79030000  0.77890000  0.79042000  1
  C  C66  1  0.78970000  0.47120000  0.41100000  1
  C  C67  1  0.78700000  0.89990000  0.78903000  1
  C  C68  1  0.71300000  0.10010000  0.28903000  1
  C  C69  1  0.71030000  0.52880000  0.91100000  1
  C  C70  1  0.70970000  0.22110000  0.29042000  1
  C  C71  1  0.65580000  0.08070000  0.00010000  1
  C  C72  1  0.64150000  0.84140000  0.27011000  1
  C  C73  1  0.63460000  0.71920000  0.26965000  1
  C  C74  1  0.61870000  0.41280000  0.90300000  1
  C  C75  1  0.60420000  0.33960000  0.94932000  1
  C  C76  1  0.59730000  0.03560000  0.31871000  1
  C  C77  1  0.59260000  0.90410000  0.31691000  1
  C  C78  1  0.56380000  0.20510000  0.10271000  1
  C  C79  1  0.54880000  0.27830000  0.14822000  1
  C  C80  1  0.54790000  0.45940000  0.80254000  1
  C  C81  1  0.54000000  0.38280000  0.85384000  1
  C  C82  1  0.53480000  0.83700000  0.36104000  1
  C  C83  1  0.53040000  0.71590000  0.35780000  1
  C  C84  1  0.51320000  0.09990000  0.65010000  1
  C  C85  1  0.51220000  0.23680000  0.94724000  1
  C  C86  1  0.50820000  0.22180000  0.65110000  1
  C  C87  1  0.50000000  0.15860000  0.00000000  1
  C  C88  1  0.49180000  0.22180000  0.34890000  1
  C  C89  1  0.48780000  0.23680000  0.05276000  1
  C  C90  1  0.48680000  0.09990000  0.34990000  1
  C  C91  1  0.46960000  0.71590000  0.64220000  1
  C  C92  1  0.46520000  0.83700000  0.63896000  1
  C  C93  1  0.46000000  0.38280000  0.14616000  1
  C  C94  1  0.45210000  0.45940000  0.19746000  1
  C  C95  1  0.45120000  0.27830000  0.85178000  1
  C  C96  1  0.43620000  0.20510000  0.89729000  1
  C  C97  1  0.40740000  0.90410000  0.68309000  1
  C  C98  1  0.40270000  0.03560000  0.68129000  1
  C  C99  1  0.39580000  0.33960000  0.05068000  1
  C  C100  1  0.38130000  0.41280000  0.09700000  1
  C  C101  1  0.36540000  0.71920000  0.73035000  1
  C  C102  1  0.35850000  0.84140000  0.72989000  1
  C  C103  1  0.34420000  0.08070000  0.99990000  1
  C  C104  1  0.29030000  0.22110000  0.70958000  1
  C  C105  1  0.28970000  0.52880000  0.08900000  1
  C  C106  1  0.28700000  0.10010000  0.71097000  1
  C  C107  1  0.21300000  0.89990000  0.21097000  1
  C  C108  1  0.21030000  0.47120000  0.58900000  1
  C  C109  1  0.20970000  0.77890000  0.20958000  1
  C  C110  1  0.15580000  0.91930000  0.49990000  1
  C  C111  1  0.14150000  0.15860000  0.22989000  1
  C  C112  1  0.13460000  0.28080000  0.23035000  1
  C  C113  1  0.11870000  0.58720000  0.59700000  1
  C  C114  1  0.10420000  0.66040000  0.55068000  1
  C  C115  1  0.09730000  0.96440000  0.18129000  1
  C  C116  1  0.09260000  0.09590000  0.18309000  1
  C  C117  1  0.06380000  0.79490000  0.39729000  1
  C  C118  1  0.04880000  0.72170000  0.35178000  1
  C  C119  1  0.04790000  0.54060000  0.69746000  1
  C  C120  1  0.04000000  0.61720000  0.64616000  1
  C  C121  1  0.03480000  0.16300000  0.13896000  1
  C  C122  1  0.03040000  0.28410000  0.14220000  1
  C  C123  1  0.01320000  0.90010000  0.84990000  1
  C  C124  1  0.01220000  0.76320000  0.55276000  1
  C  C125  1  0.00820000  0.77820000  0.84890000  1
  N  N126  1  0.91830000  0.34380000  0.81271000  1
  N  N127  1  0.89920000  0.71640000  0.81938000  1
  N  N128  1  0.60080000  0.28360000  0.31938000  1
  N  N129  1  0.58170000  0.65620000  0.31271000  1
  N  N130  1  0.41830000  0.65620000  0.68729000  1
  N  N131  1  0.39920000  0.28360000  0.68062000  1
  N  N132  1  0.10080000  0.71640000  0.18062000  1
  N  N133  1  0.08170000  0.34380000  0.18729000  1
  O  O134  1  0.92970000  0.55180000  0.73062000  1
  O  O135  1  0.86690000  0.38810000  0.43072000  1
  O  O136  1  0.86210000  0.52910000  0.89922000  1
  O  O137  1  0.83540000  0.47150000  0.29484000  1
  O  O138  1  0.66460000  0.52850000  0.79484000  1
  O  O139  1  0.63790000  0.47090000  0.39922000  1
  O  O140  1  0.63310000  0.61190000  0.93072000  1
  O  O141  1  0.57030000  0.44820000  0.23062000  1
  O  O142  1  0.42970000  0.44820000  0.76938000  1
  O  O143  1  0.36690000  0.61190000  0.06928000  1
  O  O144  1  0.36210000  0.47090000  0.60078000  1
  O  O145  1  0.33540000  0.52850000  0.20516000  1
  O  O146  1  0.16460000  0.47150000  0.70516000  1
  O  O147  1  0.13790000  0.52910000  0.10078000  1
  O  O148  1  0.13310000  0.38810000  0.56928000  1
  O  O149  1  0.07030000  0.55180000  0.26938000  1
  F  F150  1  0.85040000  0.00700000  0.53729000  1
  F  F151  1  0.82450000  0.97190000  0.45036000  1
  F  F152  1  0.78850000  0.14310000  0.01029000  1
  F  F153  1  0.71150000  0.85690000  0.51029000  1
  F  F154  1  0.67550000  0.02810000  0.95036000  1
  F  F155  1  0.64960000  0.99300000  0.03729000  1
  F  F156  1  0.35040000  0.99300000  0.96271000  1
  F  F157  1  0.32450000  0.02810000  0.04964000  1
  F  F158  1  0.28850000  0.85690000  0.48971000  1
  F  F159  1  0.21150000  0.14310000  0.98971000  1
  F  F160  1  0.17550000  0.97190000  0.54964000  1
  F  F161  1  0.14960000  0.00700000  0.46271000  1
