# generated using pymatgen
data_TbH6(C2O)6
_symmetry_space_group_name_H-M   'P 1'
_cell_length_a   8.57900000
_cell_length_b   10.18400000
_cell_length_c   11.10700000
_cell_angle_alpha   64.78000000
_cell_angle_beta   71.73000000
_cell_angle_gamma   79.30000000
_symmetry_Int_Tables_number   1
_chemical_formula_structural   TbH6(C2O)6
_chemical_formula_sum   'Tb2 H12 C24 O12'
_cell_volume   832.11296252
_cell_formula_units_Z   2
loop_
 _symmetry_equiv_pos_site_id
 _symmetry_equiv_pos_as_xyz
  1  'x, y, z'
loop_
 _atom_site_type_symbol
 _atom_site_label
 _atom_site_symmetry_multiplicity
 _atom_site_fract_x
 _atom_site_fract_y
 _atom_site_fract_z
 _atom_site_occupancy
  Tb  Tb0  1  0.13200000  0.93860000  0.15515000  1
  Tb  Tb1  1  0.86801000  0.06140000  0.84484000  1
  H  H2  1  0.01260000  0.52840000  0.77880000  1
  H  H3  1  0.06520000  0.72140000  0.81650000  1
  H  H4  1  0.22640000  0.56130000  0.58180000  1
  H  H5  1  0.28090000  0.88370000  0.51570000  1
  H  H6  1  0.36410000  0.37980000  0.72940000  1
  H  H7  1  0.45860000  0.14670000  0.62000000  1
  H  H8  1  0.54140000  0.85330000  0.38000000  1
  H  H9  1  0.63590000  0.62020000  0.27060000  1
  H  H10  1  0.71910000  0.11630000  0.48430000  1
  H  H11  1  0.77360000  0.43870000  0.41820000  1
  H  H12  1  0.93480000  0.27860000  0.18350000  1
  H  H13  1  0.98740000  0.47160000  0.22120000  1
  C  C14  1  0.00760000  0.51710000  0.86750000  1
  C  C15  1  0.03150000  0.61570000  0.02200000  1
  C  C16  1  0.03910000  0.63280000  0.89010000  1
  C  C17  1  0.06470000  0.73830000  0.05040000  1
  C  C18  1  0.17600000  0.04160000  0.66666667  1
  C  C19  1  0.32500000  0.73190000  0.31940000  1
  C  C20  1  0.33670000  0.53710000  0.54870000  1
  C  C21  1  0.34400000  0.01930000  0.58110000  1
  C  C22  1  0.36820000  0.93040000  0.50950000  1
  C  C23  1  0.41680000  0.61130000  0.41140000  1
  C  C24  1  0.41890000  0.42750000  0.63720000  1
  C  C25  1  0.47520000  0.08780000  0.57160000  1
  C  C26  1  0.52480000  0.91220000  0.42840000  1
  C  C27  1  0.58110000  0.57250000  0.36280000  1
  C  C28  1  0.58320000  0.38870000  0.58860000  1
  C  C29  1  0.63180000  0.06960000  0.49050000  1
  C  C30  1  0.65600000  0.98070000  0.41890000  1
  C  C31  1  0.66330000  0.46290000  0.45130000  1
  C  C32  1  0.67500000  0.26810000  0.68060000  1
  C  C33  1  0.82400000  0.95840000  0.33333333  1
  C  C34  1  0.93530000  0.26170000  0.94960000  1
  C  C35  1  0.96090000  0.36720000  0.10990000  1
  C  C36  1  0.96850000  0.38430000  0.97800000  1
  C  C37  1  0.99240000  0.48290000  0.13250000  1
  O  O38  1  0.03090000  0.86830000  0.97760000  1
  O  O39  1  0.05840000  0.98000000  0.67220000  1
  O  O40  1  0.12930000  0.70740000  0.14660000  1
  O  O41  1  0.15680000  0.12080000  0.73300000  1
  O  O42  1  0.17680000  0.76310000  0.37000000  1
  O  O43  1  0.39670000  0.80170000  0.19380000  1
  O  O44  1  0.60330000  0.19830000  0.80620000  1
  O  O45  1  0.82320000  0.23690000  0.63000000  1
  O  O46  1  0.84320000  0.87920000  0.26700000  1
  O  O47  1  0.87070000  0.29260000  0.85340000  1
  O  O48  1  0.94160000  0.02000000  0.32780000  1
  O  O49  1  0.96910000  0.13170000  0.02240000  1
