# generated using pymatgen
data_CdH25C35(N6O)2
_symmetry_space_group_name_H-M   'P 1'
_cell_length_a   12.15380000
_cell_length_b   12.15740000
_cell_length_c   16.15360000
_cell_angle_alpha   77.04500000
_cell_angle_beta   82.55000000
_cell_angle_gamma   83.52700000
_symmetry_Int_Tables_number   1
_chemical_formula_structural   CdH25C35(N6O)2
_chemical_formula_sum   'Cd2 H50 C70 N24 O4'
_cell_volume   2297.78265578
_cell_formula_units_Z   2
loop_
 _symmetry_equiv_pos_site_id
 _symmetry_equiv_pos_as_xyz
  1  'x, y, z'
loop_
 _atom_site_type_symbol
 _atom_site_label
 _atom_site_symmetry_multiplicity
 _atom_site_fract_x
 _atom_site_fract_y
 _atom_site_fract_z
 _atom_site_occupancy
  Cd  Cd0  1  0.00000000  0.00000000  0.50000000  1
  Cd  Cd1  1  0.00000000  0.50000000  0.50000000  1
  H  H2  1  0.09910000  0.94610000  0.70560000  1
  H  H3  1  0.10830000  0.39530000  0.31700000  1
  H  H4  1  0.11200000  0.22100000  0.58100000  1
  H  H5  1  0.13350000  0.87080000  0.34410000  1
  H  H6  1  0.13430000  0.76240000  0.56150000  1
  H  H7  1  0.16080000  0.36860000  0.17870000  1
  H  H8  1  0.16200000  0.47800000  0.66000000  1
  H  H9  1  0.16780000  0.84300000  0.83210000  1
  H  H10  1  0.18300000  0.16900000  0.35700000  1
  H  H11  1  0.23900000  0.47390000  0.78820000  1
  H  H12  1  0.24100000  0.29560000  0.06230000  1
  H  H13  1  0.24340000  0.78710000  0.96010000  1
  H  H14  1  0.25300000  0.59980000  0.41190000  1
  H  H15  1  0.26160000  0.06760000  0.11030000  1
  H  H16  1  0.28520000  0.97840000  0.49020000  1
  H  H17  1  0.31550000  0.14270000  0.79140000  1
  H  H18  1  0.31700000  0.76600000  0.28200000  1
  H  H19  1  0.33260000  0.45570000  0.90550000  1
  H  H20  1  0.34220000  0.98420000  0.99900000  1
  H  H21  1  0.39530000  0.68920000  0.16320000  1
  H  H22  1  0.41310000  0.12710000  0.90770000  1
  H  H23  1  0.45370000  0.47940000  0.19820000  1
  H  H24  1  0.45750000  0.12970000  0.15740000  1
  H  H25  1  0.46760000  0.59060000  0.91940000  1
  H  H26  1  0.46850000  0.92710000  0.71410000  1
  H  H27  1  0.53150000  0.07290000  0.28590000  1
  H  H28  1  0.53240000  0.40940000  0.08060000  1
  H  H29  1  0.54250000  0.87030000  0.84260000  1
  H  H30  1  0.54630000  0.52060000  0.80180000  1
  H  H31  1  0.58690000  0.87290000  0.09230000  1
  H  H32  1  0.60470000  0.31080000  0.83680000  1
  H  H33  1  0.65780000  0.01580000  0.00100000  1
  H  H34  1  0.66740000  0.54430000  0.09450000  1
  H  H35  1  0.68300000  0.23400000  0.71800000  1
  H  H36  1  0.68450000  0.85730000  0.20860000  1
  H  H37  1  0.71480000  0.02160000  0.50980000  1
  H  H38  1  0.73840000  0.93240000  0.88970000  1
  H  H39  1  0.74700000  0.40020000  0.58810000  1
  H  H40  1  0.75660000  0.21290000  0.03990000  1
  H  H41  1  0.75900000  0.70440000  0.93770000  1
  H  H42  1  0.76100000  0.52610000  0.21180000  1
  H  H43  1  0.81700000  0.83100000  0.64300000  1
  H  H44  1  0.83220000  0.15700000  0.16790000  1
  H  H45  1  0.83800000  0.52200000  0.34000000  1
  H  H46  1  0.83920000  0.63140000  0.82130000  1
  H  H47  1  0.86570000  0.23760000  0.43850000  1
  H  H48  1  0.86650000  0.12920000  0.65590000  1
  H  H49  1  0.88800000  0.77900000  0.41900000  1
  H  H50  1  0.89170000  0.60470000  0.68300000  1
  H  H51  1  0.90090000  0.05390000  0.29440000  1
  C  C52  1  0.07920000  0.73620000  0.53780000  1
  C  C53  1  0.13530000  0.26530000  0.61340000  1
  C  C54  1  0.15800000  0.44330000  0.32580000  1
  C  C55  1  0.16020000  0.94940000  0.66420000  1
  C  C56  1  0.16050000  0.94170000  0.33430000  1
  C  C57  1  0.16150000  0.40980000  0.65670000  1
  C  C58  1  0.18990000  0.10650000  0.34250000  1
  C  C59  1  0.23590000  0.37470000  0.15990000  1
  C  C60  1  0.23850000  0.55410000  0.37620000  1
  C  C61  1  0.24310000  0.84820000  0.83420000  1
  C  C62  1  0.26300000  0.96570000  0.54860000  1
  C  C63  1  0.27110000  0.31020000  0.77690000  1
  C  C64  1  0.27490000  0.40440000  0.81170000  1
  C  C65  1  0.28450000  0.33070000  0.09040000  1
  C  C66  1  0.28730000  0.92960000  0.20290000  1
  C  C67  1  0.28910000  0.81420000  0.91060000  1
  C  C68  1  0.29140000  0.99250000  0.12120000  1
  C  C69  1  0.30050000  0.42770000  0.20120000  1
  C  C70  1  0.31130000  0.89050000  0.76040000  1
  C  C71  1  0.32110000  0.20620000  0.81330000  1
  C  C72  1  0.32320000  0.81470000  0.22050000  1
  C  C73  1  0.33250000  0.39310000  0.88130000  1
  C  C74  1  0.34090000  0.94240000  0.05490000  1
  C  C75  1  0.37240000  0.76620000  0.15310000  1
  C  C76  1  0.37970000  0.19730000  0.88270000  1
  C  C77  1  0.38800000  0.83240000  0.06960000  1
  C  C78  1  0.38990000  0.29350000  0.91660000  1
  C  C79  1  0.39740000  0.33820000  0.06160000  1
  C  C80  1  0.40190000  0.81920000  0.91550000  1
  C  C81  1  0.41150000  0.44150000  0.17140000  1
  C  C82  1  0.42340000  0.89850000  0.76360000  1
  C  C83  1  0.45020000  0.78400000  0.99840000  1
  C  C84  1  0.45210000  0.28080000  0.99220000  1
  C  C85  1  0.45860000  0.39840000  0.10150000  1
  C  C86  1  0.46750000  0.86380000  0.84050000  1
  C  C87  1  0.53250000  0.13620000  0.15950000  1
  C  C88  1  0.54140000  0.60160000  0.89850000  1
  C  C89  1  0.54790000  0.71920000  0.00780000  1
  C  C90  1  0.54980000  0.21600000  0.00160000  1
  C  C91  1  0.57660000  0.10150000  0.23640000  1
  C  C92  1  0.58850000  0.55850000  0.82860000  1
  C  C93  1  0.59810000  0.18080000  0.08450000  1
  C  C94  1  0.60260000  0.66180000  0.93840000  1
  C  C95  1  0.61010000  0.70650000  0.08340000  1
  C  C96  1  0.61200000  0.16760000  0.93040000  1
  C  C97  1  0.62030000  0.80270000  0.11730000  1
  C  C98  1  0.62760000  0.23380000  0.84690000  1
  C  C99  1  0.65910000  0.05760000  0.94510000  1
  C  C100  1  0.66750000  0.60690000  0.11870000  1
  C  C101  1  0.67680000  0.18530000  0.77950000  1
  C  C102  1  0.67890000  0.79380000  0.18670000  1
  C  C103  1  0.68870000  0.10950000  0.23960000  1
  C  C104  1  0.69950000  0.57230000  0.79880000  1
  C  C105  1  0.70860000  0.00750000  0.87880000  1
  C  C106  1  0.71090000  0.18580000  0.08940000  1
  C  C107  1  0.71270000  0.07040000  0.79710000  1
  C  C108  1  0.71550000  0.66930000  0.90960000  1
  C  C109  1  0.72510000  0.59560000  0.18830000  1
  C  C110  1  0.72890000  0.68980000  0.22310000  1
  C  C111  1  0.73700000  0.03430000  0.45140000  1
  C  C112  1  0.75690000  0.15180000  0.16580000  1
  C  C113  1  0.76150000  0.44590000  0.62380000  1
  C  C114  1  0.76410000  0.62530000  0.84010000  1
  C  C115  1  0.81010000  0.89350000  0.65750000  1
  C  C116  1  0.83850000  0.59020000  0.34330000  1
  C  C117  1  0.83950000  0.05830000  0.66570000  1
  C  C118  1  0.83980000  0.05060000  0.33580000  1
  C  C119  1  0.84200000  0.55670000  0.67420000  1
  C  C120  1  0.86470000  0.73470000  0.38660000  1
  C  C121  1  0.92080000  0.26380000  0.46220000  1
  N  N122  1  0.11210000  0.37910000  0.59777000  1
  N  N123  1  0.12790000  0.01910000  0.38070000  1
  N  N124  1  0.14550000  0.49740000  0.38938000  1
  N  N125  1  0.15450000  0.97820000  0.58103000  1
  N  N126  1  0.19440000  0.22360000  0.67730000  1
  N  N127  1  0.21080000  0.31920000  0.70510000  1
  N  N128  1  0.23760000  0.98080000  0.27166000  1
  N  N129  1  0.25270000  0.46790000  0.27615000  1
  N  N130  1  0.25800000  0.08760000  0.27580000  1
  N  N131  1  0.26580000  0.92560000  0.68058000  1
  N  N132  1  0.30660000  0.53890000  0.30860000  1
  N  N133  1  0.33380000  0.93450000  0.60560000  1
  N  N134  1  0.66620000  0.06550000  0.39440000  1
  N  N135  1  0.69340000  0.46110000  0.69140000  1
  N  N136  1  0.73420000  0.07440000  0.31942000  1
  N  N137  1  0.74200000  0.91240000  0.72420000  1
  N  N138  1  0.74730000  0.53210000  0.72385000  1
  N  N139  1  0.76240000  0.01920000  0.72834000  1
  N  N140  1  0.78920000  0.68080000  0.29490000  1
  N  N141  1  0.80560000  0.77640000  0.32270000  1
  N  N142  1  0.84550000  0.02180000  0.41897000  1
  N  N143  1  0.85450000  0.50260000  0.61062000  1
  N  N144  1  0.87210000  0.98090000  0.61930000  1
  N  N145  1  0.88790000  0.62090000  0.40223000  1
  O  O146  1  0.01050000  0.80880000  0.50396000  1
  O  O147  1  0.08400000  0.63150000  0.54422000  1
  O  O148  1  0.91600000  0.36850000  0.45578000  1
  O  O149  1  0.98950000  0.19120000  0.49604000  1
