# generated using pymatgen
data_ZnH14C19Br(N3O)2
_symmetry_space_group_name_H-M   'P 1'
_cell_length_a   18.19800000
_cell_length_b   18.19800000
_cell_length_c   28.87200000
_cell_angle_alpha   90.00000000
_cell_angle_beta   90.00000000
_cell_angle_gamma   90.00000000
_symmetry_Int_Tables_number   1
_chemical_formula_structural   ZnH14C19Br(N3O)2
_chemical_formula_sum   'Zn16 H224 C304 Br16 N96 O32'
_cell_volume   9561.45951389
_cell_formula_units_Z   16
loop_
 _symmetry_equiv_pos_site_id
 _symmetry_equiv_pos_as_xyz
  1  'x, y, z'
loop_
 _atom_site_type_symbol
 _atom_site_label
 _atom_site_symmetry_multiplicity
 _atom_site_fract_x
 _atom_site_fract_y
 _atom_site_fract_z
 _atom_site_occupancy
  Zn  Zn0  1  0.05531000  0.24231000  0.10742000  1
  Zn  Zn1  1  0.05531000  0.25769000  0.89258000  1
  Zn  Zn2  1  0.24231000  0.05531000  0.39258000  1
  Zn  Zn3  1  0.24231000  0.44469000  0.60742000  1
  Zn  Zn4  1  0.25769000  0.05531000  0.60742000  1
  Zn  Zn5  1  0.25769000  0.44469000  0.39258000  1
  Zn  Zn6  1  0.44469000  0.24231000  0.89258000  1
  Zn  Zn7  1  0.44469000  0.25769000  0.10742000  1
  Zn  Zn8  1  0.55531000  0.74231000  0.89258000  1
  Zn  Zn9  1  0.55531000  0.75769000  0.10742000  1
  Zn  Zn10  1  0.74231000  0.55531000  0.60742000  1
  Zn  Zn11  1  0.74231000  0.94469000  0.39258000  1
  Zn  Zn12  1  0.75769000  0.55531000  0.39258000  1
  Zn  Zn13  1  0.75769000  0.94469000  0.60742000  1
  Zn  Zn14  1  0.94469000  0.74231000  0.10742000  1
  Zn  Zn15  1  0.94469000  0.75769000  0.89258000  1
  H  H16  1  0.00640000  0.59290000  0.14580000  1
  H  H17  1  0.00640000  0.90710000  0.85420000  1
  H  H18  1  0.01130000  0.61600000  0.84580000  1
  H  H19  1  0.01130000  0.88400000  0.15420000  1
  H  H20  1  0.01500000  0.57650000  0.56420000  1
  H  H21  1  0.01500000  0.92350000  0.43580000  1
  H  H22  1  0.01840000  0.17810000  0.41780000  1
  H  H23  1  0.01840000  0.32190000  0.58220000  1
  H  H24  1  0.02730000  0.56200000  0.22610000  1
  H  H25  1  0.02730000  0.93800000  0.77390000  1
  H  H26  1  0.06200000  0.52730000  0.72610000  1
  H  H27  1  0.06200000  0.97270000  0.27390000  1
  H  H28  1  0.06680000  0.60200000  0.29900000  1
  H  H29  1  0.06680000  0.89800000  0.70100000  1
  H  H30  1  0.07310000  0.24490000  0.78050000  1
  H  H31  1  0.07310000  0.25510000  0.21950000  1
  H  H32  1  0.07570000  0.70660000  0.96230000  1
  H  H33  1  0.07570000  0.79340000  0.03770000  1
  H  H34  1  0.07650000  0.51500000  0.06420000  1
  H  H35  1  0.07650000  0.98500000  0.93580000  1
  H  H36  1  0.08690000  0.08800000  0.98230000  1
  H  H37  1  0.08690000  0.41200000  0.01770000  1
  H  H38  1  0.08800000  0.08690000  0.51770000  1
  H  H39  1  0.08800000  0.41310000  0.48230000  1
  H  H40  1  0.09290000  0.50640000  0.64580000  1
  H  H41  1  0.09290000  0.99360000  0.35420000  1
  H  H42  1  0.10200000  0.56680000  0.79900000  1
  H  H43  1  0.10200000  0.93320000  0.20100000  1
  H  H44  1  0.10560000  0.65960000  0.44630000  1
  H  H45  1  0.10560000  0.84040000  0.55370000  1
  H  H46  1  0.11280000  0.23060000  0.29630000  1
  H  H47  1  0.11280000  0.26940000  0.70370000  1
  H  H48  1  0.11600000  0.51130000  0.34580000  1
  H  H49  1  0.11600000  0.98870000  0.65420000  1
  H  H50  1  0.11890000  0.22730000  0.45340000  1
  H  H51  1  0.11890000  0.27270000  0.54660000  1
  H  H52  1  0.15960000  0.60560000  0.94630000  1
  H  H53  1  0.15960000  0.89440000  0.05370000  1
  H  H54  1  0.16170000  0.17320000  0.66520000  1
  H  H55  1  0.16170000  0.32680000  0.33480000  1
  H  H56  1  0.17320000  0.16170000  0.83480000  1
  H  H57  1  0.17320000  0.33830000  0.16520000  1
  H  H58  1  0.17410000  0.20650000  0.96670000  1
  H  H59  1  0.17410000  0.29350000  0.03330000  1
  H  H60  1  0.17810000  0.01840000  0.08220000  1
  H  H61  1  0.17810000  0.48160000  0.91780000  1
  H  H62  1  0.20650000  0.17410000  0.53330000  1
  H  H63  1  0.20650000  0.32590000  0.46670000  1
  H  H64  1  0.20660000  0.57570000  0.46230000  1
  H  H65  1  0.20660000  0.92430000  0.53770000  1
  H  H66  1  0.22730000  0.11890000  0.04660000  1
  H  H67  1  0.22730000  0.38110000  0.95340000  1
  H  H68  1  0.23060000  0.11280000  0.20370000  1
  H  H69  1  0.23060000  0.38720000  0.79630000  1
  H  H70  1  0.24490000  0.07310000  0.71950000  1
  H  H71  1  0.24490000  0.42690000  0.28050000  1
  H  H72  1  0.25510000  0.07310000  0.28050000  1
  H  H73  1  0.25510000  0.42690000  0.71950000  1
  H  H74  1  0.26940000  0.11280000  0.79630000  1
  H  H75  1  0.26940000  0.38720000  0.20370000  1
  H  H76  1  0.27270000  0.11890000  0.95340000  1
  H  H77  1  0.27270000  0.38110000  0.04660000  1
  H  H78  1  0.29340000  0.57570000  0.53770000  1
  H  H79  1  0.29340000  0.92430000  0.46230000  1
  H  H80  1  0.29350000  0.17410000  0.46670000  1
  H  H81  1  0.29350000  0.32590000  0.53330000  1
  H  H82  1  0.32190000  0.01840000  0.91780000  1
  H  H83  1  0.32190000  0.48160000  0.08220000  1
  H  H84  1  0.32590000  0.20650000  0.03330000  1
  H  H85  1  0.32590000  0.29350000  0.96670000  1
  H  H86  1  0.32680000  0.16170000  0.16520000  1
  H  H87  1  0.32680000  0.33830000  0.83480000  1
  H  H88  1  0.33830000  0.17320000  0.33480000  1
  H  H89  1  0.33830000  0.32680000  0.66520000  1
  H  H90  1  0.34040000  0.60560000  0.05370000  1
  H  H91  1  0.34040000  0.89440000  0.94630000  1
  H  H92  1  0.38110000  0.22730000  0.54660000  1
  H  H93  1  0.38110000  0.27270000  0.45340000  1
  H  H94  1  0.38400000  0.51130000  0.65420000  1
  H  H95  1  0.38400000  0.98870000  0.34580000  1
  H  H96  1  0.38720000  0.23060000  0.70370000  1
  H  H97  1  0.38720000  0.26940000  0.29630000  1
  H  H98  1  0.39440000  0.65960000  0.55370000  1
  H  H99  1  0.39440000  0.84040000  0.44630000  1
  H  H100  1  0.39800000  0.56680000  0.20100000  1
  H  H101  1  0.39800000  0.93320000  0.79900000  1
  H  H102  1  0.40710000  0.50640000  0.35420000  1
  H  H103  1  0.40710000  0.99360000  0.64580000  1
  H  H104  1  0.41200000  0.08690000  0.48230000  1
  H  H105  1  0.41200000  0.41310000  0.51770000  1
  H  H106  1  0.41310000  0.08800000  0.01770000  1
  H  H107  1  0.41310000  0.41200000  0.98230000  1
  H  H108  1  0.42350000  0.51500000  0.93580000  1
  H  H109  1  0.42350000  0.98500000  0.06420000  1
  H  H110  1  0.42430000  0.70660000  0.03770000  1
  H  H111  1  0.42430000  0.79340000  0.96230000  1
  H  H112  1  0.42690000  0.24490000  0.21950000  1
  H  H113  1  0.42690000  0.25510000  0.78050000  1
  H  H114  1  0.43320000  0.60200000  0.70100000  1
  H  H115  1  0.43320000  0.89800000  0.29900000  1
  H  H116  1  0.43800000  0.52730000  0.27390000  1
  H  H117  1  0.43800000  0.97270000  0.72610000  1
  H  H118  1  0.47270000  0.56200000  0.77390000  1
  H  H119  1  0.47270000  0.93800000  0.22610000  1
  H  H120  1  0.48160000  0.17810000  0.58220000  1
  H  H121  1  0.48160000  0.32190000  0.41780000  1
  H  H122  1  0.48500000  0.57650000  0.43580000  1
  H  H123  1  0.48500000  0.92350000  0.56420000  1
  H  H124  1  0.48870000  0.61600000  0.15420000  1
  H  H125  1  0.48870000  0.88400000  0.84580000  1
  H  H126  1  0.49360000  0.59290000  0.85420000  1
  H  H127  1  0.49360000  0.90710000  0.14580000  1
  H  H128  1  0.50640000  0.09290000  0.85420000  1
  H  H129  1  0.50640000  0.40710000  0.14580000  1
  H  H130  1  0.51130000  0.11600000  0.15420000  1
  H  H131  1  0.51130000  0.38400000  0.84580000  1
  H  H132  1  0.51500000  0.07650000  0.43580000  1
  H  H133  1  0.51500000  0.42350000  0.56420000  1
  H  H134  1  0.51840000  0.67810000  0.58220000  1
  H  H135  1  0.51840000  0.82190000  0.41780000  1
  H  H136  1  0.52730000  0.06200000  0.77390000  1
  H  H137  1  0.52730000  0.43800000  0.22610000  1
  H  H138  1  0.56200000  0.02730000  0.27390000  1
  H  H139  1  0.56200000  0.47270000  0.72610000  1
  H  H140  1  0.56680000  0.10200000  0.70100000  1
  H  H141  1  0.56680000  0.39800000  0.29900000  1
  H  H142  1  0.57310000  0.74490000  0.21950000  1
  H  H143  1  0.57310000  0.75510000  0.78050000  1
  H  H144  1  0.57570000  0.20660000  0.03770000  1
  H  H145  1  0.57570000  0.29340000  0.96230000  1
  H  H146  1  0.57650000  0.01500000  0.93580000  1
  H  H147  1  0.57650000  0.48500000  0.06420000  1
  H  H148  1  0.58690000  0.58800000  0.01770000  1
  H  H149  1  0.58690000  0.91200000  0.98230000  1
  H  H150  1  0.58800000  0.58690000  0.48230000  1
  H  H151  1  0.58800000  0.91310000  0.51770000  1
  H  H152  1  0.59290000  0.00640000  0.35420000  1
  H  H153  1  0.59290000  0.49360000  0.64580000  1
  H  H154  1  0.60200000  0.06680000  0.20100000  1
  H  H155  1  0.60200000  0.43320000  0.79900000  1
  H  H156  1  0.60560000  0.15960000  0.55370000  1
  H  H157  1  0.60560000  0.34040000  0.44630000  1
  H  H158  1  0.61280000  0.73060000  0.70370000  1
  H  H159  1  0.61280000  0.76940000  0.29630000  1
  H  H160  1  0.61600000  0.01130000  0.65420000  1
  H  H161  1  0.61600000  0.48870000  0.34580000  1
  H  H162  1  0.61890000  0.72730000  0.54660000  1
  H  H163  1  0.61890000  0.77270000  0.45340000  1
  H  H164  1  0.65960000  0.10560000  0.05370000  1
  H  H165  1  0.65960000  0.39440000  0.94630000  1
  H  H166  1  0.66170000  0.67320000  0.33480000  1
  H  H167  1  0.66170000  0.82680000  0.66520000  1
  H  H168  1  0.67320000  0.66170000  0.16520000  1
  H  H169  1  0.67320000  0.83830000  0.83480000  1
  H  H170  1  0.67410000  0.70650000  0.03330000  1
  H  H171  1  0.67410000  0.79350000  0.96670000  1
  H  H172  1  0.67810000  0.51840000  0.91780000  1
  H  H173  1  0.67810000  0.98160000  0.08220000  1
  H  H174  1  0.70650000  0.67410000  0.46670000  1
  H  H175  1  0.70650000  0.82590000  0.53330000  1
  H  H176  1  0.70660000  0.07570000  0.53770000  1
  H  H177  1  0.70660000  0.42430000  0.46230000  1
  H  H178  1  0.72730000  0.61890000  0.95340000  1
  H  H179  1  0.72730000  0.88110000  0.04660000  1
  H  H180  1  0.73060000  0.61280000  0.79630000  1
  H  H181  1  0.73060000  0.88720000  0.20370000  1
  H  H182  1  0.74490000  0.57310000  0.28050000  1
  H  H183  1  0.74490000  0.92690000  0.71950000  1
  H  H184  1  0.75510000  0.57310000  0.71950000  1
  H  H185  1  0.75510000  0.92690000  0.28050000  1
  H  H186  1  0.76940000  0.61280000  0.20370000  1
  H  H187  1  0.76940000  0.88720000  0.79630000  1
  H  H188  1  0.77270000  0.61890000  0.04660000  1
  H  H189  1  0.77270000  0.88110000  0.95340000  1
  H  H190  1  0.79340000  0.07570000  0.46230000  1
  H  H191  1  0.79340000  0.42430000  0.53770000  1
  H  H192  1  0.79350000  0.67410000  0.53330000  1
  H  H193  1  0.79350000  0.82590000  0.46670000  1
  H  H194  1  0.82190000  0.51840000  0.08220000  1
  H  H195  1  0.82190000  0.98160000  0.91780000  1
  H  H196  1  0.82590000  0.70650000  0.96670000  1
  H  H197  1  0.82590000  0.79350000  0.03330000  1
  H  H198  1  0.82680000  0.66170000  0.83480000  1
  H  H199  1  0.82680000  0.83830000  0.16520000  1
  H  H200  1  0.83830000  0.67320000  0.66520000  1
  H  H201  1  0.83830000  0.82680000  0.33480000  1
  H  H202  1  0.84040000  0.10560000  0.94630000  1
  H  H203  1  0.84040000  0.39440000  0.05370000  1
  H  H204  1  0.88110000  0.72730000  0.45340000  1
  H  H205  1  0.88110000  0.77270000  0.54660000  1
  H  H206  1  0.88400000  0.01130000  0.34580000  1
  H  H207  1  0.88400000  0.48870000  0.65420000  1
  H  H208  1  0.88720000  0.73060000  0.29630000  1
  H  H209  1  0.88720000  0.76940000  0.70370000  1
  H  H210  1  0.89440000  0.15960000  0.44630000  1
  H  H211  1  0.89440000  0.34040000  0.55370000  1
  H  H212  1  0.89800000  0.06680000  0.79900000  1
  H  H213  1  0.89800000  0.43320000  0.20100000  1
  H  H214  1  0.90710000  0.00640000  0.64580000  1
  H  H215  1  0.90710000  0.49360000  0.35420000  1
  H  H216  1  0.91200000  0.58690000  0.51770000  1
  H  H217  1  0.91200000  0.91310000  0.48230000  1
  H  H218  1  0.91310000  0.58800000  0.98230000  1
  H  H219  1  0.91310000  0.91200000  0.01770000  1
  H  H220  1  0.92350000  0.01500000  0.06420000  1
  H  H221  1  0.92350000  0.48500000  0.93580000  1
  H  H222  1  0.92430000  0.20660000  0.96230000  1
  H  H223  1  0.92430000  0.29340000  0.03770000  1
  H  H224  1  0.92690000  0.74490000  0.78050000  1
  H  H225  1  0.92690000  0.75510000  0.21950000  1
  H  H226  1  0.93320000  0.10200000  0.29900000  1
  H  H227  1  0.93320000  0.39800000  0.70100000  1
  H  H228  1  0.93800000  0.02730000  0.72610000  1
  H  H229  1  0.93800000  0.47270000  0.27390000  1
  H  H230  1  0.97270000  0.06200000  0.22610000  1
  H  H231  1  0.97270000  0.43800000  0.77390000  1
  H  H232  1  0.98160000  0.67810000  0.41780000  1
  H  H233  1  0.98160000  0.82190000  0.58220000  1
  H  H234  1  0.98500000  0.07650000  0.56420000  1
  H  H235  1  0.98500000  0.42350000  0.43580000  1
  H  H236  1  0.98870000  0.11600000  0.84580000  1
  H  H237  1  0.98870000  0.38400000  0.15420000  1
  H  H238  1  0.99360000  0.09290000  0.14580000  1
  H  H239  1  0.99360000  0.40710000  0.85420000  1
  C  C240  1  0.00440000  0.60410000  0.21497000  1
  C  C241  1  0.00440000  0.89590000  0.78503000  1
  C  C242  1  0.00500000  0.06340000  0.02703000  1
  C  C243  1  0.00500000  0.43660000  0.97297000  1
  C  C244  1  0.00680000  0.12180000  0.17099000  1
  C  C245  1  0.00680000  0.37820000  0.82901000  1
  C  C246  1  0.00900000  0.13380000  0.05424000  1
  C  C247  1  0.00900000  0.36620000  0.94576000  1
  C  C248  1  0.00950000  0.54570000  0.53740000  1
  C  C249  1  0.00950000  0.95430000  0.46260000  1
  C  C250  1  0.01960000  0.17530000  0.38565000  1
  C  C251  1  0.01960000  0.32470000  0.61435000  1
  C  C252  1  0.02360000  0.16550000  0.29053000  1
  C  C253  1  0.02360000  0.33450000  0.70947000  1
  C  C254  1  0.03120000  0.62910000  0.31460000  1
  C  C255  1  0.03120000  0.87090000  0.68540000  1
  C  C256  1  0.03170000  0.63380000  0.36215000  1
  C  C257  1  0.03170000  0.86620000  0.63785000  1
  C  C258  1  0.03770000  0.62630000  0.87262000  1
  C  C259  1  0.03770000  0.87370000  0.12738000  1
  C  C260  1  0.04570000  0.50950000  0.03740000  1
  C  C261  1  0.04570000  0.99050000  0.96260000  1
  C  C262  1  0.05100000  0.21120000  0.21087000  1
  C  C263  1  0.05100000  0.28880000  0.78913000  1
  C  C264  1  0.05160000  0.05280000  0.98939000  1
  C  C265  1  0.05160000  0.44720000  0.01061000  1
  C  C266  1  0.05280000  0.05160000  0.51061000  1
  C  C267  1  0.05280000  0.44840000  0.48939000  1
  C  C268  1  0.06340000  0.00500000  0.47297000  1
  C  C269  1  0.06340000  0.49500000  0.52703000  1
  C  C270  1  0.07260000  0.21256000  0.36077000  1
  C  C271  1  0.07260000  0.28744000  0.63923000  1
  C  C272  1  0.07340000  0.67570000  0.93674000  1
  C  C273  1  0.07340000  0.82430000  0.06326000  1
  C  C274  1  0.07590000  0.20690000  0.31288000  1
  C  C275  1  0.07590000  0.29310000  0.68712000  1
  C  C276  1  0.10410000  0.50440000  0.71497000  1
  C  C277  1  0.10410000  0.99560000  0.28503000  1
  C  C278  1  0.12000000  0.62020000  0.92810000  1
  C  C279  1  0.12000000  0.87980000  0.07190000  1
  C  C280  1  0.12020000  0.62000000  0.42810000  1
  C  C281  1  0.12020000  0.88000000  0.57190000  1
  C  C282  1  0.12180000  0.00680000  0.32901000  1
  C  C283  1  0.12180000  0.49320000  0.67099000  1
  C  C284  1  0.12630000  0.53770000  0.37262000  1
  C  C285  1  0.12630000  0.96230000  0.62738000  1
  C  C286  1  0.12910000  0.53120000  0.81460000  1
  C  C287  1  0.12910000  0.96880000  0.18540000  1
  C  C288  1  0.13380000  0.00900000  0.44576000  1
  C  C289  1  0.13380000  0.49100000  0.55424000  1
  C  C290  1  0.13380000  0.53170000  0.86215000  1
  C  C291  1  0.13380000  0.96830000  0.13785000  1
  C  C292  1  0.13830000  0.24110000  0.56885000  1
  C  C293  1  0.13830000  0.25890000  0.43115000  1
  C  C294  1  0.16240000  0.18550000  0.63395000  1
  C  C295  1  0.16240000  0.31450000  0.36605000  1
  C  C296  1  0.16550000  0.02360000  0.20947000  1
  C  C297  1  0.16550000  0.47640000  0.79053000  1
  C  C298  1  0.17530000  0.01960000  0.11435000  1
  C  C299  1  0.17530000  0.48040000  0.88565000  1
  C  C300  1  0.17570000  0.57340000  0.43674000  1
  C  C301  1  0.17570000  0.92660000  0.56326000  1
  C  C302  1  0.18550000  0.16240000  0.86605000  1
  C  C303  1  0.18550000  0.33760000  0.13395000  1
  C  C304  1  0.18620000  0.18640000  0.56185000  1
  C  C305  1  0.18620000  0.31360000  0.43815000  1
  C  C306  1  0.18640000  0.18620000  0.93815000  1
  C  C307  1  0.18640000  0.31380000  0.06185000  1
  C  C308  1  0.20690000  0.07590000  0.18712000  1
  C  C309  1  0.20690000  0.42410000  0.81288000  1
  C  C310  1  0.21120000  0.05100000  0.28913000  1
  C  C311  1  0.21120000  0.44900000  0.71087000  1
  C  C312  1  0.21256000  0.07260000  0.13923000  1
  C  C313  1  0.21256000  0.42740000  0.86077000  1
  C  C314  1  0.24110000  0.13830000  0.93115000  1
  C  C315  1  0.24110000  0.36170000  0.06885000  1
  C  C316  1  0.25890000  0.13830000  0.06885000  1
  C  C317  1  0.25890000  0.36170000  0.93115000  1
  C  C318  1  0.28744000  0.07260000  0.86077000  1
  C  C319  1  0.28744000  0.42740000  0.13923000  1
  C  C320  1  0.28880000  0.05100000  0.71087000  1
  C  C321  1  0.28880000  0.44900000  0.28913000  1
  C  C322  1  0.29310000  0.07590000  0.81288000  1
  C  C323  1  0.29310000  0.42410000  0.18712000  1
  C  C324  1  0.31360000  0.18620000  0.06185000  1
  C  C325  1  0.31360000  0.31380000  0.93815000  1
  C  C326  1  0.31380000  0.18640000  0.43815000  1
  C  C327  1  0.31380000  0.31360000  0.56185000  1
  C  C328  1  0.31450000  0.16240000  0.13395000  1
  C  C329  1  0.31450000  0.33760000  0.86605000  1
  C  C330  1  0.32430000  0.57340000  0.56326000  1
  C  C331  1  0.32430000  0.92660000  0.43674000  1
  C  C332  1  0.32470000  0.01960000  0.88565000  1
  C  C333  1  0.32470000  0.48040000  0.11435000  1
  C  C334  1  0.33450000  0.02360000  0.79053000  1
  C  C335  1  0.33450000  0.47640000  0.20947000  1
  C  C336  1  0.33760000  0.18550000  0.36605000  1
  C  C337  1  0.33760000  0.31450000  0.63395000  1
  C  C338  1  0.36170000  0.24110000  0.43115000  1
  C  C339  1  0.36170000  0.25890000  0.56885000  1
  C  C340  1  0.36620000  0.00900000  0.55424000  1
  C  C341  1  0.36620000  0.49100000  0.44576000  1
  C  C342  1  0.36620000  0.53170000  0.13785000  1
  C  C343  1  0.36620000  0.96830000  0.86215000  1
  C  C344  1  0.37090000  0.53120000  0.18540000  1
  C  C345  1  0.37090000  0.96880000  0.81460000  1
  C  C346  1  0.37370000  0.53770000  0.62738000  1
  C  C347  1  0.37370000  0.96230000  0.37262000  1
  C  C348  1  0.37820000  0.00680000  0.67099000  1
  C  C349  1  0.37820000  0.49320000  0.32901000  1
  C  C350  1  0.37980000  0.62000000  0.57190000  1
  C  C351  1  0.37980000  0.88000000  0.42810000  1
  C  C352  1  0.38000000  0.62020000  0.07190000  1
  C  C353  1  0.38000000  0.87980000  0.92810000  1
  C  C354  1  0.39590000  0.50440000  0.28503000  1
  C  C355  1  0.39590000  0.99560000  0.71497000  1
  C  C356  1  0.42410000  0.20690000  0.68712000  1
  C  C357  1  0.42410000  0.29310000  0.31288000  1
  C  C358  1  0.42660000  0.67570000  0.06326000  1
  C  C359  1  0.42660000  0.82430000  0.93674000  1
  C  C360  1  0.42740000  0.21256000  0.63923000  1
  C  C361  1  0.42740000  0.28744000  0.36077000  1
  C  C362  1  0.43660000  0.00500000  0.52703000  1
  C  C363  1  0.43660000  0.49500000  0.47297000  1
  C  C364  1  0.44720000  0.05160000  0.48939000  1
  C  C365  1  0.44720000  0.44840000  0.51061000  1
  C  C366  1  0.44840000  0.05280000  0.01061000  1
  C  C367  1  0.44840000  0.44720000  0.98939000  1
  C  C368  1  0.44900000  0.21120000  0.78913000  1
  C  C369  1  0.44900000  0.28880000  0.21087000  1
  C  C370  1  0.45430000  0.50950000  0.96260000  1
  C  C371  1  0.45430000  0.99050000  0.03740000  1
  C  C372  1  0.46230000  0.62630000  0.12738000  1
  C  C373  1  0.46230000  0.87370000  0.87262000  1
  C  C374  1  0.46830000  0.63380000  0.63785000  1
  C  C375  1  0.46830000  0.86620000  0.36215000  1
  C  C376  1  0.46880000  0.62910000  0.68540000  1
  C  C377  1  0.46880000  0.87090000  0.31460000  1
  C  C378  1  0.47640000  0.16550000  0.70947000  1
  C  C379  1  0.47640000  0.33450000  0.29053000  1
  C  C380  1  0.48040000  0.17530000  0.61435000  1
  C  C381  1  0.48040000  0.32470000  0.38565000  1
  C  C382  1  0.49050000  0.54570000  0.46260000  1
  C  C383  1  0.49050000  0.95430000  0.53740000  1
  C  C384  1  0.49100000  0.13380000  0.94576000  1
  C  C385  1  0.49100000  0.36620000  0.05424000  1
  C  C386  1  0.49320000  0.12180000  0.82901000  1
  C  C387  1  0.49320000  0.37820000  0.17099000  1
  C  C388  1  0.49500000  0.06340000  0.97297000  1
  C  C389  1  0.49500000  0.43660000  0.02703000  1
  C  C390  1  0.49560000  0.60410000  0.78503000  1
  C  C391  1  0.49560000  0.89590000  0.21497000  1
  C  C392  1  0.50440000  0.10410000  0.78503000  1
  C  C393  1  0.50440000  0.39590000  0.21497000  1
  C  C394  1  0.50500000  0.56340000  0.97297000  1
  C  C395  1  0.50500000  0.93660000  0.02703000  1
  C  C396  1  0.50680000  0.62180000  0.82901000  1
  C  C397  1  0.50680000  0.87820000  0.17099000  1
  C  C398  1  0.50900000  0.63380000  0.94576000  1
  C  C399  1  0.50900000  0.86620000  0.05424000  1
  C  C400  1  0.50950000  0.04570000  0.46260000  1
  C  C401  1  0.50950000  0.45430000  0.53740000  1
  C  C402  1  0.51960000  0.67530000  0.61435000  1
  C  C403  1  0.51960000  0.82470000  0.38565000  1
  C  C404  1  0.52360000  0.66550000  0.70947000  1
  C  C405  1  0.52360000  0.83450000  0.29053000  1
  C  C406  1  0.53120000  0.12910000  0.68540000  1
  C  C407  1  0.53120000  0.37090000  0.31460000  1
  C  C408  1  0.53170000  0.13380000  0.63785000  1
  C  C409  1  0.53170000  0.36620000  0.36215000  1
  C  C410  1  0.53770000  0.12630000  0.12738000  1
  C  C411  1  0.53770000  0.37370000  0.87262000  1
  C  C412  1  0.54570000  0.00950000  0.96260000  1
  C  C413  1  0.54570000  0.49050000  0.03740000  1
  C  C414  1  0.55100000  0.71120000  0.78913000  1
  C  C415  1  0.55100000  0.78880000  0.21087000  1
  C  C416  1  0.55160000  0.55280000  0.01061000  1
  C  C417  1  0.55160000  0.94720000  0.98939000  1
  C  C418  1  0.55280000  0.55160000  0.48939000  1
  C  C419  1  0.55280000  0.94840000  0.51061000  1
  C  C420  1  0.56340000  0.50500000  0.52703000  1
  C  C421  1  0.56340000  0.99500000  0.47297000  1
  C  C422  1  0.57260000  0.71256000  0.63923000  1
  C  C423  1  0.57260000  0.78744000  0.36077000  1
  C  C424  1  0.57340000  0.17570000  0.06326000  1
  C  C425  1  0.57340000  0.32430000  0.93674000  1
  C  C426  1  0.57590000  0.70690000  0.68712000  1
  C  C427  1  0.57590000  0.79310000  0.31288000  1
  C  C428  1  0.60410000  0.00440000  0.28503000  1
  C  C429  1  0.60410000  0.49560000  0.71497000  1
  C  C430  1  0.62000000  0.12020000  0.07190000  1
  C  C431  1  0.62000000  0.37980000  0.92810000  1
  C  C432  1  0.62020000  0.12000000  0.57190000  1
  C  C433  1  0.62020000  0.38000000  0.42810000  1
  C  C434  1  0.62180000  0.50680000  0.67099000  1
  C  C435  1  0.62180000  0.99320000  0.32901000  1
  C  C436  1  0.62630000  0.03770000  0.62738000  1
  C  C437  1  0.62630000  0.46230000  0.37262000  1
  C  C438  1  0.62910000  0.03120000  0.18540000  1
  C  C439  1  0.62910000  0.46880000  0.81460000  1
  C  C440  1  0.63380000  0.03170000  0.13785000  1
  C  C441  1  0.63380000  0.46830000  0.86215000  1
  C  C442  1  0.63380000  0.50900000  0.55424000  1
  C  C443  1  0.63380000  0.99100000  0.44576000  1
  C  C444  1  0.63830000  0.74110000  0.43115000  1
  C  C445  1  0.63830000  0.75890000  0.56885000  1
  C  C446  1  0.66240000  0.68550000  0.36605000  1
  C  C447  1  0.66240000  0.81450000  0.63395000  1
  C  C448  1  0.66550000  0.52360000  0.79053000  1
  C  C449  1  0.66550000  0.97640000  0.20947000  1
  C  C450  1  0.67530000  0.51960000  0.88565000  1
  C  C451  1  0.67530000  0.98040000  0.11435000  1
  C  C452  1  0.67570000  0.07340000  0.56326000  1
  C  C453  1  0.67570000  0.42660000  0.43674000  1
  C  C454  1  0.68550000  0.66240000  0.13395000  1
  C  C455  1  0.68550000  0.83760000  0.86605000  1
  C  C456  1  0.68620000  0.68640000  0.43815000  1
  C  C457  1  0.68620000  0.81360000  0.56185000  1
  C  C458  1  0.68640000  0.68620000  0.06185000  1
  C  C459  1  0.68640000  0.81380000  0.93815000  1
  C  C460  1  0.70690000  0.57590000  0.81288000  1
  C  C461  1  0.70690000  0.92410000  0.18712000  1
  C  C462  1  0.71120000  0.55100000  0.71087000  1
  C  C463  1  0.71120000  0.94900000  0.28913000  1
  C  C464  1  0.71256000  0.57260000  0.86077000  1
  C  C465  1  0.71256000  0.92740000  0.13923000  1
  C  C466  1  0.74110000  0.63830000  0.06885000  1
  C  C467  1  0.74110000  0.86170000  0.93115000  1
  C  C468  1  0.75890000  0.63830000  0.93115000  1
  C  C469  1  0.75890000  0.86170000  0.06885000  1
  C  C470  1  0.78744000  0.57260000  0.13923000  1
  C  C471  1  0.78744000  0.92740000  0.86077000  1
  C  C472  1  0.78880000  0.55100000  0.28913000  1
  C  C473  1  0.78880000  0.94900000  0.71087000  1
  C  C474  1  0.79310000  0.57590000  0.18712000  1
  C  C475  1  0.79310000  0.92410000  0.81288000  1
  C  C476  1  0.81360000  0.68620000  0.93815000  1
  C  C477  1  0.81360000  0.81380000  0.06185000  1
  C  C478  1  0.81380000  0.68640000  0.56185000  1
  C  C479  1  0.81380000  0.81360000  0.43815000  1
  C  C480  1  0.81450000  0.66240000  0.86605000  1
  C  C481  1  0.81450000  0.83760000  0.13395000  1
  C  C482  1  0.82430000  0.07340000  0.43674000  1
  C  C483  1  0.82430000  0.42660000  0.56326000  1
  C  C484  1  0.82470000  0.51960000  0.11435000  1
  C  C485  1  0.82470000  0.98040000  0.88565000  1
  C  C486  1  0.83450000  0.52360000  0.20947000  1
  C  C487  1  0.83450000  0.97640000  0.79053000  1
  C  C488  1  0.83760000  0.68550000  0.63395000  1
  C  C489  1  0.83760000  0.81450000  0.36605000  1
  C  C490  1  0.86170000  0.74110000  0.56885000  1
  C  C491  1  0.86170000  0.75890000  0.43115000  1
  C  C492  1  0.86620000  0.03170000  0.86215000  1
  C  C493  1  0.86620000  0.46830000  0.13785000  1
  C  C494  1  0.86620000  0.50900000  0.44576000  1
  C  C495  1  0.86620000  0.99100000  0.55424000  1
  C  C496  1  0.87090000  0.03120000  0.81460000  1
  C  C497  1  0.87090000  0.46880000  0.18540000  1
  C  C498  1  0.87370000  0.03770000  0.37262000  1
  C  C499  1  0.87370000  0.46230000  0.62738000  1
  C  C500  1  0.87820000  0.50680000  0.32901000  1
  C  C501  1  0.87820000  0.99320000  0.67099000  1
  C  C502  1  0.87980000  0.12000000  0.42810000  1
  C  C503  1  0.87980000  0.38000000  0.57190000  1
  C  C504  1  0.88000000  0.12020000  0.92810000  1
  C  C505  1  0.88000000  0.37980000  0.07190000  1
  C  C506  1  0.89590000  0.00440000  0.71497000  1
  C  C507  1  0.89590000  0.49560000  0.28503000  1
  C  C508  1  0.92410000  0.70690000  0.31288000  1
  C  C509  1  0.92410000  0.79310000  0.68712000  1
  C  C510  1  0.92660000  0.17570000  0.93674000  1
  C  C511  1  0.92660000  0.32430000  0.06326000  1
  C  C512  1  0.92740000  0.71256000  0.36077000  1
  C  C513  1  0.92740000  0.78744000  0.63923000  1
  C  C514  1  0.93660000  0.50500000  0.47297000  1
  C  C515  1  0.93660000  0.99500000  0.52703000  1
  C  C516  1  0.94720000  0.55160000  0.51061000  1
  C  C517  1  0.94720000  0.94840000  0.48939000  1
  C  C518  1  0.94840000  0.55280000  0.98939000  1
  C  C519  1  0.94840000  0.94720000  0.01061000  1
  C  C520  1  0.94900000  0.71120000  0.21087000  1
  C  C521  1  0.94900000  0.78880000  0.78913000  1
  C  C522  1  0.95430000  0.00950000  0.03740000  1
  C  C523  1  0.95430000  0.49050000  0.96260000  1
  C  C524  1  0.96230000  0.12630000  0.87262000  1
  C  C525  1  0.96230000  0.37370000  0.12738000  1
  C  C526  1  0.96830000  0.13380000  0.36215000  1
  C  C527  1  0.96830000  0.36620000  0.63785000  1
  C  C528  1  0.96880000  0.12910000  0.31460000  1
  C  C529  1  0.96880000  0.37090000  0.68540000  1
  C  C530  1  0.97640000  0.66550000  0.29053000  1
  C  C531  1  0.97640000  0.83450000  0.70947000  1
  C  C532  1  0.98040000  0.67530000  0.38565000  1
  C  C533  1  0.98040000  0.82470000  0.61435000  1
  C  C534  1  0.99050000  0.04570000  0.53740000  1
  C  C535  1  0.99050000  0.45430000  0.46260000  1
  C  C536  1  0.99100000  0.63380000  0.05424000  1
  C  C537  1  0.99100000  0.86620000  0.94576000  1
  C  C538  1  0.99320000  0.62180000  0.17099000  1
  C  C539  1  0.99320000  0.87820000  0.82901000  1
  C  C540  1  0.99500000  0.56340000  0.02703000  1
  C  C541  1  0.99500000  0.93660000  0.97297000  1
  C  C542  1  0.99560000  0.10410000  0.21497000  1
  C  C543  1  0.99560000  0.39590000  0.78503000  1
  Br  Br544  1  0.00474000  0.60591000  0.59616000  1
  Br  Br545  1  0.00474000  0.89409000  0.40384000  1
  Br  Br546  1  0.10591000  0.50474000  0.09616000  1
  Br  Br547  1  0.10591000  0.99526000  0.90384000  1
  Br  Br548  1  0.39409000  0.50474000  0.90384000  1
  Br  Br549  1  0.39409000  0.99526000  0.09616000  1
  Br  Br550  1  0.49526000  0.60591000  0.40384000  1
  Br  Br551  1  0.49526000  0.89409000  0.59616000  1
  Br  Br552  1  0.50474000  0.10591000  0.40384000  1
  Br  Br553  1  0.50474000  0.39409000  0.59616000  1
  Br  Br554  1  0.60591000  0.00474000  0.90384000  1
  Br  Br555  1  0.60591000  0.49526000  0.09616000  1
  Br  Br556  1  0.89409000  0.00474000  0.09616000  1
  Br  Br557  1  0.89409000  0.49526000  0.90384000  1
  Br  Br558  1  0.99526000  0.10591000  0.59616000  1
  Br  Br559  1  0.99526000  0.39409000  0.40384000  1
  N  N560  1  0.02174000  0.67992000  0.90215000  1
  N  N561  1  0.02174000  0.82008000  0.09785000  1
  N  N562  1  0.02474000  0.16033000  0.24095000  1
  N  N563  1  0.02474000  0.33967000  0.75905000  1
  N  N564  1  0.04091000  0.18984000  0.16802000  1
  N  N565  1  0.04091000  0.31016000  0.83198000  1
  N  N566  1  0.08885000  0.59739000  0.38670000  1
  N  N567  1  0.08885000  0.90261000  0.61330000  1
  N  N568  1  0.09739000  0.58885000  0.88670000  1
  N  N569  1  0.09739000  0.91115000  0.11330000  1
  N  N570  1  0.12373000  0.24129000  0.61560000  1
  N  N571  1  0.12373000  0.25871000  0.38440000  1
  N  N572  1  0.15069000  0.20112000  0.89704000  1
  N  N573  1  0.15069000  0.29888000  0.10296000  1
  N  N574  1  0.16033000  0.02474000  0.25905000  1
  N  N575  1  0.16033000  0.47526000  0.74095000  1
  N  N576  1  0.17992000  0.52174000  0.40215000  1
  N  N577  1  0.17992000  0.97826000  0.59785000  1
  N  N578  1  0.18984000  0.04091000  0.33198000  1
  N  N579  1  0.18984000  0.45909000  0.66802000  1
  N  N580  1  0.20112000  0.15069000  0.60296000  1
  N  N581  1  0.20112000  0.34931000  0.39704000  1
  N  N582  1  0.24129000  0.12373000  0.88440000  1
  N  N583  1  0.24129000  0.37627000  0.11560000  1
  N  N584  1  0.25871000  0.12373000  0.11560000  1
  N  N585  1  0.25871000  0.37627000  0.88440000  1
  N  N586  1  0.29888000  0.15069000  0.39704000  1
  N  N587  1  0.29888000  0.34931000  0.60296000  1
  N  N588  1  0.31016000  0.04091000  0.66802000  1
  N  N589  1  0.31016000  0.45909000  0.33198000  1
  N  N590  1  0.32008000  0.52174000  0.59785000  1
  N  N591  1  0.32008000  0.97826000  0.40215000  1
  N  N592  1  0.33967000  0.02474000  0.74095000  1
  N  N593  1  0.33967000  0.47526000  0.25905000  1
  N  N594  1  0.34931000  0.20112000  0.10296000  1
  N  N595  1  0.34931000  0.29888000  0.89704000  1
  N  N596  1  0.37627000  0.24129000  0.38440000  1
  N  N597  1  0.37627000  0.25871000  0.61560000  1
  N  N598  1  0.40261000  0.58885000  0.11330000  1
  N  N599  1  0.40261000  0.91115000  0.88670000  1
  N  N600  1  0.41115000  0.59739000  0.61330000  1
  N  N601  1  0.41115000  0.90261000  0.38670000  1
  N  N602  1  0.45909000  0.18984000  0.83198000  1
  N  N603  1  0.45909000  0.31016000  0.16802000  1
  N  N604  1  0.47526000  0.16033000  0.75905000  1
  N  N605  1  0.47526000  0.33967000  0.24095000  1
  N  N606  1  0.47826000  0.67992000  0.09785000  1
  N  N607  1  0.47826000  0.82008000  0.90215000  1
  N  N608  1  0.52174000  0.17992000  0.09785000  1
  N  N609  1  0.52174000  0.32008000  0.90215000  1
  N  N610  1  0.52474000  0.66033000  0.75905000  1
  N  N611  1  0.52474000  0.83967000  0.24095000  1
  N  N612  1  0.54091000  0.68984000  0.83198000  1
  N  N613  1  0.54091000  0.81016000  0.16802000  1
  N  N614  1  0.58885000  0.09739000  0.61330000  1
  N  N615  1  0.58885000  0.40261000  0.38670000  1
  N  N616  1  0.59739000  0.08885000  0.11330000  1
  N  N617  1  0.59739000  0.41115000  0.88670000  1
  N  N618  1  0.62373000  0.74129000  0.38440000  1
  N  N619  1  0.62373000  0.75871000  0.61560000  1
  N  N620  1  0.65069000  0.70112000  0.10296000  1
  N  N621  1  0.65069000  0.79888000  0.89704000  1
  N  N622  1  0.66033000  0.52474000  0.74095000  1
  N  N623  1  0.66033000  0.97526000  0.25905000  1
  N  N624  1  0.67992000  0.02174000  0.59785000  1
  N  N625  1  0.67992000  0.47826000  0.40215000  1
  N  N626  1  0.68984000  0.54091000  0.66802000  1
  N  N627  1  0.68984000  0.95909000  0.33198000  1
  N  N628  1  0.70112000  0.65069000  0.39704000  1
  N  N629  1  0.70112000  0.84931000  0.60296000  1
  N  N630  1  0.74129000  0.62373000  0.11560000  1
  N  N631  1  0.74129000  0.87627000  0.88440000  1
  N  N632  1  0.75871000  0.62373000  0.88440000  1
  N  N633  1  0.75871000  0.87627000  0.11560000  1
  N  N634  1  0.79888000  0.65069000  0.60296000  1
  N  N635  1  0.79888000  0.84931000  0.39704000  1
  N  N636  1  0.81016000  0.54091000  0.33198000  1
  N  N637  1  0.81016000  0.95909000  0.66802000  1
  N  N638  1  0.82008000  0.02174000  0.40215000  1
  N  N639  1  0.82008000  0.47826000  0.59785000  1
  N  N640  1  0.83967000  0.52474000  0.25905000  1
  N  N641  1  0.83967000  0.97526000  0.74095000  1
  N  N642  1  0.84931000  0.70112000  0.89704000  1
  N  N643  1  0.84931000  0.79888000  0.10296000  1
  N  N644  1  0.87627000  0.74129000  0.61560000  1
  N  N645  1  0.87627000  0.75871000  0.38440000  1
  N  N646  1  0.90261000  0.08885000  0.88670000  1
  N  N647  1  0.90261000  0.41115000  0.11330000  1
  N  N648  1  0.91115000  0.09739000  0.38670000  1
  N  N649  1  0.91115000  0.40261000  0.61330000  1
  N  N650  1  0.95909000  0.68984000  0.16802000  1
  N  N651  1  0.95909000  0.81016000  0.83198000  1
  N  N652  1  0.97526000  0.66033000  0.24095000  1
  N  N653  1  0.97526000  0.83967000  0.75905000  1
  N  N654  1  0.97826000  0.17992000  0.90215000  1
  N  N655  1  0.97826000  0.32008000  0.09785000  1
  O  O656  1  0.04873000  0.65894000  0.07136000  1
  O  O657  1  0.04873000  0.84106000  0.92864000  1
  O  O658  1  0.06970000  0.16480000  0.05926000  1
  O  O659  1  0.06970000  0.33520000  0.94074000  1
  O  O660  1  0.15894000  0.54873000  0.57136000  1
  O  O661  1  0.15894000  0.95127000  0.42864000  1
  O  O662  1  0.16480000  0.06970000  0.44074000  1
  O  O663  1  0.16480000  0.43030000  0.55926000  1
  O  O664  1  0.33520000  0.06970000  0.55926000  1
  O  O665  1  0.33520000  0.43030000  0.44074000  1
  O  O666  1  0.34106000  0.54873000  0.42864000  1
  O  O667  1  0.34106000  0.95127000  0.57136000  1
  O  O668  1  0.43030000  0.16480000  0.94074000  1
  O  O669  1  0.43030000  0.33520000  0.05926000  1
  O  O670  1  0.45127000  0.65894000  0.92864000  1
  O  O671  1  0.45127000  0.84106000  0.07136000  1
  O  O672  1  0.54873000  0.15894000  0.92864000  1
  O  O673  1  0.54873000  0.34106000  0.07136000  1
  O  O674  1  0.56970000  0.66480000  0.94074000  1
  O  O675  1  0.56970000  0.83520000  0.05926000  1
  O  O676  1  0.65894000  0.04873000  0.42864000  1
  O  O677  1  0.65894000  0.45127000  0.57136000  1
  O  O678  1  0.66480000  0.56970000  0.55926000  1
  O  O679  1  0.66480000  0.93030000  0.44074000  1
  O  O680  1  0.83520000  0.56970000  0.44074000  1
  O  O681  1  0.83520000  0.93030000  0.55926000  1
  O  O682  1  0.84106000  0.04873000  0.57136000  1
  O  O683  1  0.84106000  0.45127000  0.42864000  1
  O  O684  1  0.93030000  0.66480000  0.05926000  1
  O  O685  1  0.93030000  0.83520000  0.94074000  1
  O  O686  1  0.95127000  0.15894000  0.07136000  1
  O  O687  1  0.95127000  0.34106000  0.92864000  1
