# generated using pymatgen
data_SnH21C15NO4
_symmetry_space_group_name_H-M   'P 1'
_cell_length_a   9.57920000
_cell_length_b   14.13330000
_cell_length_c   22.71910000
_cell_angle_alpha   78.29650000
_cell_angle_beta   77.82970000
_cell_angle_gamma   70.19090000
_symmetry_Int_Tables_number   1
_chemical_formula_structural   SnH21C15NO4
_chemical_formula_sum   'Sn6 H126 C90 N6 O24'
_cell_volume   2799.77337975
_cell_formula_units_Z   6
loop_
 _symmetry_equiv_pos_site_id
 _symmetry_equiv_pos_as_xyz
  1  'x, y, z'
loop_
 _atom_site_type_symbol
 _atom_site_label
 _atom_site_symmetry_multiplicity
 _atom_site_fract_x
 _atom_site_fract_y
 _atom_site_fract_z
 _atom_site_occupancy
  Sn  Sn0  1  0.09433000  0.68722000  0.53440000  1
  Sn  Sn1  1  0.28568000  0.36501000  0.73417000  1
  Sn  Sn2  1  0.40501000  0.24798000  0.49518000  1
  Sn  Sn3  1  0.61514000  0.86501000  0.23417000  1
  Sn  Sn4  1  0.68405000  0.18722000  0.03440000  1
  Sn  Sn5  1  0.85183000  0.74798000  0.99518000  1
  H  H6  1  0.01320000  0.81110000  0.77410000  1
  H  H7  1  0.01900000  0.44630000  0.70070000  1
  H  H8  1  0.02730000  0.29730000  0.17850000  1
  H  H9  1  0.02740000  0.39090000  0.95830000  1
  H  H10  1  0.05120000  0.43650000  0.40170000  1
  H  H11  1  0.06540000  0.06840000  0.40200000  1
  H  H12  1  0.06760000  0.59540000  0.03440000  1
  H  H13  1  0.06770000  0.37700000  0.02500000  1
  H  H14  1  0.06980000  0.51580000  0.84520000  1
  H  H15  1  0.07890000  0.69570000  0.05250000  1
  H  H16  1  0.08210000  0.09520000  0.15320000  1
  H  H17  1  0.08550000  0.84160000  0.11060000  1
  H  H18  1  0.09240000  0.04720000  0.50300000  1
  H  H19  1  0.10440000  0.89220000  0.16420000  1
  H  H20  1  0.11060000  0.93650000  0.90170000  1
  H  H21  1  0.11540000  0.75840000  0.67840000  1
  H  H22  1  0.11950000  0.45750000  0.97210000  1
  H  H23  1  0.12340000  0.23780000  0.68320000  1
  H  H24  1  0.12420000  0.23780000  0.44880000  1
  H  H25  1  0.13070000  0.83590000  0.31250000  1
  H  H26  1  0.13530000  0.40500000  0.64320000  1
  H  H27  1  0.14280000  0.90150000  0.35970000  1
  H  H28  1  0.15350000  0.25150000  0.12430000  1
  H  H29  1  0.16720000  0.05190000  0.01570000  1
  H  H30  1  0.16880000  0.20120000  0.19340000  1
  H  H31  1  0.17290000  0.19570000  0.55250000  1
  H  H32  1  0.18740000  0.63230000  0.93450000  1
  H  H33  1  0.18920000  0.73780000  0.94880000  1
  H  H34  1  0.22470000  0.04680000  0.83840000  1
  H  H35  1  0.23270000  0.24190000  0.97350000  1
  H  H36  1  0.23870000  0.96550000  0.06810000  1
  H  H37  1  0.23930000  0.68040000  0.15780000  1
  H  H38  1  0.24580000  0.13230000  0.43450000  1
  H  H39  1  0.24820000  0.93320000  0.23240000  1
  H  H40  1  0.25060000  0.87150000  0.48610000  1
  H  H41  1  0.25210000  0.74780000  0.43440000  1
  H  H42  1  0.26480000  0.99480000  0.28100000  1
  H  H43  1  0.27500000  0.74360000  0.20060000  1
  H  H44  1  0.28200000  0.32130000  0.91930000  1
  H  H45  1  0.29420000  0.06360000  0.04700000  1
  H  H46  1  0.30260000  0.09540000  0.53440000  1
  H  H47  1  0.32560000  0.78990000  0.53950000  1
  H  H48  1  0.32740000  0.76110000  0.12870000  1
  H  H49  1  0.33750000  0.92270000  0.96590000  1
  H  H50  1  0.34500000  0.28990000  0.03950000  1
  H  H51  1  0.35740000  0.54720000  0.00300000  1
  H  H52  1  0.36490000  0.65490000  0.01170000  1
  H  H53  1  0.36550000  0.66090000  0.47390000  1
  H  H54  1  0.39180000  0.37150000  0.98610000  1
  H  H55  1  0.40160000  0.31110000  0.27410000  1
  H  H56  1  0.40340000  0.78300000  0.27960000  1
  H  H57  1  0.41060000  0.34260000  0.82920000  1
  H  H58  1  0.41340000  0.01130000  0.95410000  1
  H  H59  1  0.41760000  0.84260000  0.32920000  1
  H  H60  1  0.43660000  0.70120000  0.69340000  1
  H  H61  1  0.44780000  0.25840000  0.17840000  1
  H  H62  1  0.45090000  0.95750000  0.47210000  1
  H  H63  1  0.45680000  0.68200000  0.90560000  1
  H  H64  1  0.45940000  0.49480000  0.78100000  1
  H  H65  1  0.46420000  0.56840000  0.90200000  1
  H  H66  1  0.47070000  0.75150000  0.62430000  1
  H  H67  1  0.47740000  0.82130000  0.41930000  1
  H  H68  1  0.48240000  0.83390000  0.04550000  1
  H  H69  1  0.48500000  0.42450000  0.53770000  1
  H  H70  1  0.49690000  0.79730000  0.67850000  1
  H  H71  1  0.49970000  0.16090000  0.97390000  1
  H  H72  1  0.51560000  0.38940000  0.43400000  1
  H  H73  1  0.53030000  0.87700000  0.52500000  1
  H  H74  1  0.53370000  0.45200000  0.15360000  1
  H  H75  1  0.53400000  0.28300000  0.77960000  1
  H  H76  1  0.54670000  0.59430000  0.18590000  1
  H  H77  1  0.55190000  0.74190000  0.47350000  1
  H  H78  1  0.55280000  0.92450000  0.03770000  1
  H  H79  1  0.56570000  0.24780000  0.93440000  1
  H  H80  1  0.56850000  0.58770000  0.94190000  1
  H  H81  1  0.56920000  0.01580000  0.34520000  1
  H  H82  1  0.58620000  0.43320000  0.73240000  1
  H  H83  1  0.59520000  0.56360000  0.54700000  1
  H  H84  1  0.59600000  0.40150000  0.85970000  1
  H  H85  1  0.60690000  0.79110000  0.94970000  1
  H  H86  1  0.62120000  0.51130000  0.45410000  1
  H  H87  1  0.62340000  0.89090000  0.45830000  1
  H  H88  1  0.63820000  0.33390000  0.54550000  1
  H  H89  1  0.65230000  0.29110000  0.44970000  1
  H  H90  1  0.66100000  0.88940000  0.93400000  1
  H  H91  1  0.66950000  0.59520000  0.65320000  1
  H  H92  1  0.67310000  0.09430000  0.68590000  1
  H  H93  1  0.67470000  0.53890000  0.82630000  1
  H  H94  1  0.70260000  0.02220000  0.49240000  1
  H  H95  1  0.70450000  0.65500000  0.69840000  1
  H  H96  1  0.72090000  0.33590000  0.81250000  1
  H  H97  1  0.72580000  0.71750000  0.56810000  1
  H  H98  1  0.72770000  0.46550000  0.56810000  1
  H  H99  1  0.76340000  0.77560000  0.61360000  1
  H  H100  1  0.76380000  0.49820000  0.76380000  1
  H  H101  1  0.76520000  0.55190000  0.51570000  1
  H  H102  1  0.77390000  0.42270000  0.46590000  1
  H  H103  1  0.77500000  0.12150000  0.14070000  1
  H  H104  1  0.78080000  0.24360000  0.70060000  1
  H  H105  1  0.78280000  0.26110000  0.62870000  1
  H  H106  1  0.78280000  0.52220000  0.99240000  1
  H  H107  1  0.81650000  0.90500000  0.14320000  1
  H  H108  1  0.82790000  0.44620000  0.82620000  1
  H  H109  1  0.83400000  0.94630000  0.20070000  1
  H  H110  1  0.83920000  0.39220000  0.66420000  1
  H  H111  1  0.84740000  0.27560000  0.11360000  1
  H  H112  1  0.86070000  0.95200000  0.65360000  1
  H  H113  1  0.87040000  0.77970000  0.42110000  1
  H  H114  1  0.89010000  0.54680000  0.33840000  1
  H  H115  1  0.89970000  0.94620000  0.32620000  1
  H  H116  1  0.90190000  0.08770000  0.44190000  1
  H  H117  1  0.90880000  0.07090000  0.09070000  1
  H  H118  1  0.92250000  0.18040000  0.65780000  1
  H  H119  1  0.92880000  0.27970000  0.92110000  1
  H  H120  1  0.92960000  0.57090000  0.59070000  1
  H  H121  1  0.94210000  0.15500000  0.19840000  1
  H  H122  1  0.95560000  0.18200000  0.40560000  1
  H  H123  1  0.95560000  0.73780000  0.18320000  1
  H  H124  1  0.96010000  0.03890000  0.32630000  1
  H  H125  1  0.96230000  0.34160000  0.61060000  1
  H  H126  1  0.96280000  0.62150000  0.64070000  1
  H  H127  1  0.96850000  0.15490000  0.51170000  1
  H  H128  1  0.97420000  0.99820000  0.26380000  1
  H  H129  1  0.97970000  0.78350000  0.23810000  1
  H  H130  1  0.98860000  0.21750000  0.06810000  1
  H  H131  1  0.99870000  0.28350000  0.73810000  1
  C  C132  1  0.01090000  0.16310000  0.15990000  1
  C  C133  1  0.01380000  0.50710000  0.40470000  1
  C  C134  1  0.02700000  0.66740000  0.81820000  1
  C  C135  1  0.04160000  0.29900000  0.69500000  1
  C  C136  1  0.04620000  0.74120000  0.76940000  1
  C  C137  1  0.05080000  0.11720000  0.48260000  1
  C  C138  1  0.05440000  0.54660000  0.44840000  1
  C  C139  1  0.06470000  0.66680000  0.01880000  1
  C  C140  1  0.07440000  0.00710000  0.90470000  1
  C  C141  1  0.08450000  0.17590000  0.87130000  1
  C  C142  1  0.08540000  0.56570000  0.81170000  1
  C  C143  1  0.09820000  0.23480000  0.16440000  1
  C  C144  1  0.10060000  0.82860000  0.15360000  1
  C  C145  1  0.10250000  0.38710000  0.68710000  1
  C  C146  1  0.10310000  0.39080000  0.98140000  1
  C  C147  1  0.11470000  0.70980000  0.71400000  1
  C  C148  1  0.12950000  0.90440000  0.31720000  1
  C  C149  1  0.13960000  0.07200000  0.86760000  1
  C  C150  1  0.15530000  0.24790000  0.82810000  1
  C  C151  1  0.16270000  0.48000000  0.48980000  1
  C  C152  1  0.16910000  0.16640000  0.46660000  1
  C  C153  1  0.18240000  0.60760000  0.71020000  1
  C  C154  1  0.19790000  0.66640000  0.96660000  1
  C  C155  1  0.24860000  0.74620000  0.16080000  1
  C  C156  1  0.24970000  0.16680000  0.51880000  1
  C  C157  1  0.25050000  0.30880000  0.96380000  1
  C  C158  1  0.25930000  0.01530000  0.03330000  1
  C  C159  1  0.26190000  0.92810000  0.27510000  1
  C  C160  1  0.27300000  0.56860000  0.65400000  1
  C  C161  1  0.27860000  0.72350000  0.47590000  1
  C  C162  1  0.32570000  0.80420000  0.49500000  1
  C  C163  1  0.34940000  0.61720000  0.98260000  1
  C  C164  1  0.37510000  0.30420000  0.99500000  1
  C  C165  1  0.37960000  0.96090000  0.98570000  1
  C  C166  1  0.40980000  0.84860000  0.28580000  1
  C  C167  1  0.44320000  0.24120000  0.26940000  1
  C  C168  1  0.45580000  0.34860000  0.78580000  1
  C  C169  1  0.45610000  0.23020000  0.62660000  1
  C  C170  1  0.46150000  0.20980000  0.21400000  1
  C  C171  1  0.47020000  0.61350000  0.92830000  1
  C  C172  1  0.47030000  0.19830000  0.38030000  1
  C  C173  1  0.47690000  0.80880000  0.46380000  1
  C  C174  1  0.48740000  0.16740000  0.31820000  1
  C  C175  1  0.49980000  0.10760000  0.21020000  1
  C  C176  1  0.50260000  0.73480000  0.66440000  1
  C  C177  1  0.50440000  0.06860000  0.15400000  1
  C  C178  1  0.51520000  0.88680000  0.01560000  1
  C  C179  1  0.52200000  0.22350000  0.97590000  1
  C  C180  1  0.52470000  0.89080000  0.48140000  1
  C  C181  1  0.53490000  0.42810000  0.77510000  1
  C  C182  1  0.53720000  0.06570000  0.31170000  1
  C  C183  1  0.55420000  0.33560000  0.46720000  1
  C  C184  1  0.58040000  0.13820000  0.60840000  1
  C  C185  1  0.58240000  0.38680000  0.51560000  1
  C  C186  1  0.58720000  0.49410000  0.12770000  1
  C  C187  1  0.59490000  0.57780000  0.14660000  1
  C  C188  1  0.64300000  0.83560000  0.96720000  1
  C  C189  1  0.64890000  0.40440000  0.81720000  1
  C  C190  1  0.65240000  0.37850000  0.04870000  1
  C  C191  1  0.66010000  0.47130000  0.06910000  1
  C  C192  1  0.66610000  0.66310000  0.65990000  1
  C  C193  1  0.67300000  0.63820000  0.10840000  1
  C  C194  1  0.67380000  0.46090000  0.48570000  1
  C  C195  1  0.68070000  0.07780000  0.64660000  1
  C  C196  1  0.68710000  0.73020000  0.12660000  1
  C  C197  1  0.69210000  0.51530000  0.53330000  1
  C  C198  1  0.69670000  0.03600000  0.53220000  1
  C  C199  1  0.73510000  0.53600000  0.03220000  1
  C  C200  1  0.73640000  0.47840000  0.80760000  1
  C  C201  1  0.76570000  0.70820000  0.60640000  1
  C  C202  1  0.76870000  0.74790000  0.32810000  1
  C  C203  1  0.79100000  0.99410000  0.62770000  1
  C  C204  1  0.79950000  0.97130000  0.56910000  1
  C  C205  1  0.82330000  0.88710000  0.18710000  1
  C  C206  1  0.83360000  0.13620000  0.10040000  1
  C  C207  1  0.84440000  0.24620000  0.66080000  1
  C  C208  1  0.86750000  0.98000000  0.98980000  1
  C  C209  1  0.86830000  0.67590000  0.37130000  1
  C  C210  1  0.91090000  0.71000000  0.41600000  1
  C  C211  1  0.91720000  0.32860000  0.65360000  1
  C  C212  1  0.91970000  0.20820000  0.10640000  1
  C  C213  1  0.92040000  0.87850000  0.54870000  1
  C  C214  1  0.92080000  0.57200000  0.36760000  1
  C  C215  1  0.92980000  0.63620000  0.60040000  1
  C  C216  1  0.95060000  0.04660000  0.94840000  1
  C  C217  1  0.95110000  0.69830000  0.88030000  1
  C  C218  1  0.96310000  0.21000000  0.91600000  1
  C  C219  1  0.96440000  0.79900000  0.19500000  1
  C  C220  1  0.97760000  0.97840000  0.30760000  1
  C  C221  1  0.98800000  0.11350000  0.42830000  1
  N  N222  1  0.00810000  0.64640000  0.45200000  1
  N  N223  1  0.16440000  0.53640000  0.75840000  1
  N  N224  1  0.54080000  0.03640000  0.25840000  1
  N  N225  1  0.58740000  0.11910000  0.55230000  1
  N  N226  1  0.74120000  0.61910000  0.05230000  1
  N  N227  1  0.89350000  0.14640000  0.95200000  1
  O  O228  1  0.01650000  0.83100000  0.58240000  1
  O  O229  1  0.10580000  0.34250000  0.83070000  1
  O  O230  1  0.20230000  0.38570000  0.48790000  1
  O  O231  1  0.20680000  0.52120000  0.52360000  1
  O  O232  1  0.26170000  0.63190000  0.60430000  1
  O  O233  1  0.26570000  0.21160000  0.78880000  1
  O  O234  1  0.35280000  0.47690000  0.65790000  1
  O  O235  1  0.36180000  0.27620000  0.59160000  1
  O  O236  1  0.38050000  0.28270000  0.39090000  1
  O  O237  1  0.45200000  0.25110000  0.67970000  1
  O  O238  1  0.50210000  0.13190000  0.10430000  1
  O  O239  1  0.51240000  0.97690000  0.15790000  1
  O  O240  1  0.54100000  0.13740000  0.42100000  1
  O  O241  1  0.57010000  0.33100000  0.08240000  1
  O  O242  1  0.61720000  0.75110000  0.17970000  1
  O  O243  1  0.72100000  0.84250000  0.33070000  1
  O  O244  1  0.73390000  0.71160000  0.28880000  1
  O  O245  1  0.73690000  0.34590000  0.00150000  1
  O  O246  1  0.74840000  0.02120000  0.02360000  1
  O  O247  1  0.77040000  0.77620000  0.09160000  1
  O  O248  1  0.90060000  0.63740000  0.92100000  1
  O  O249  1  0.91570000  0.84590000  0.50150000  1
  O  O250  1  0.92410000  0.88570000  0.98790000  1
  O  O251  1  0.94590000  0.78270000  0.89090000  1
