# generated using pymatgen
data_ZnPH3C8O7
_symmetry_space_group_name_H-M   'P 1'
_cell_length_a   9.86600000
_cell_length_b   13.96300000
_cell_length_c   15.44900000
_cell_angle_alpha   90.00000000
_cell_angle_beta   90.00000000
_cell_angle_gamma   90.00000000
_symmetry_Int_Tables_number   1
_chemical_formula_structural   ZnPH3C8O7
_chemical_formula_sum   'Zn4 P4 H12 C32 O28'
_cell_volume   2128.23814214
_cell_formula_units_Z   4
loop_
 _symmetry_equiv_pos_site_id
 _symmetry_equiv_pos_as_xyz
  1  'x, y, z'
loop_
 _atom_site_type_symbol
 _atom_site_label
 _atom_site_symmetry_multiplicity
 _atom_site_fract_x
 _atom_site_fract_y
 _atom_site_fract_z
 _atom_site_occupancy
  Zn  Zn0  1  0.09721000  0.40409000  0.59772000  1
  Zn  Zn1  1  0.40279000  0.09591000  0.09772000  1
  Zn  Zn2  1  0.59721000  0.90409000  0.90228000  1
  Zn  Zn3  1  0.90279000  0.59591000  0.40228000  1
  P  P4  1  0.11908000  0.42909000  0.39468000  1
  P  P5  1  0.38092000  0.07091000  0.89468000  1
  P  P6  1  0.61908000  0.92909000  0.10532000  1
  P  P7  1  0.88092000  0.57091000  0.60532000  1
  H  H8  1  0.12310000  0.97180000  0.91820000  1
  H  H9  1  0.12660000  0.91040000  0.25790000  1
  H  H10  1  0.24510000  0.31390000  0.26800000  1
  H  H11  1  0.25490000  0.18610000  0.76800000  1
  H  H12  1  0.37340000  0.58960000  0.75790000  1
  H  H13  1  0.37690000  0.52820000  0.41820000  1
  H  H14  1  0.62310000  0.47180000  0.58180000  1
  H  H15  1  0.62660000  0.41040000  0.24210000  1
  H  H16  1  0.74510000  0.81390000  0.23200000  1
  H  H17  1  0.75490000  0.68610000  0.73200000  1
  H  H18  1  0.87340000  0.08960000  0.74210000  1
  H  H19  1  0.87690000  0.02820000  0.08180000  1
  C  C20  1  0.02000000  0.98040000  0.16480000  1
  C  C21  1  0.04200000  0.21940000  0.67040000  1
  C  C22  1  0.04240000  0.91350000  0.23100000  1
  C  C23  1  0.06120000  0.14830000  0.74330000  1
  C  C24  1  0.10770000  0.01570000  0.87400000  1
  C  C25  1  0.13030000  0.04960000  0.13840000  1
  C  C26  1  0.18690000  0.14350000  0.78390000  1
  C  C27  1  0.21220000  0.07580000  0.84810000  1
  C  C28  1  0.28780000  0.42420000  0.34810000  1
  C  C29  1  0.31310000  0.35650000  0.28390000  1
  C  C30  1  0.36970000  0.45040000  0.63840000  1
  C  C31  1  0.39230000  0.48430000  0.37400000  1
  C  C32  1  0.43880000  0.35170000  0.24330000  1
  C  C33  1  0.45760000  0.58650000  0.73100000  1
  C  C34  1  0.45800000  0.28060000  0.17040000  1
  C  C35  1  0.48000000  0.51960000  0.66480000  1
  C  C36  1  0.52000000  0.48040000  0.33520000  1
  C  C37  1  0.54200000  0.71940000  0.82960000  1
  C  C38  1  0.54240000  0.41350000  0.26900000  1
  C  C39  1  0.56120000  0.64830000  0.75670000  1
  C  C40  1  0.60770000  0.51570000  0.62600000  1
  C  C41  1  0.63030000  0.54960000  0.36160000  1
  C  C42  1  0.68690000  0.64350000  0.71610000  1
  C  C43  1  0.71220000  0.57580000  0.65190000  1
  C  C44  1  0.78780000  0.92420000  0.15190000  1
  C  C45  1  0.81310000  0.85650000  0.21610000  1
  C  C46  1  0.86970000  0.95040000  0.86160000  1
  C  C47  1  0.89230000  0.98430000  0.12600000  1
  C  C48  1  0.93880000  0.85170000  0.25670000  1
  C  C49  1  0.95760000  0.08650000  0.76900000  1
  C  C50  1  0.95800000  0.78060000  0.32960000  1
  C  C51  1  0.98000000  0.01960000  0.83520000  1
  O  O52  1  0.02330000  0.80330000  0.39421000  1
  O  O53  1  0.02580000  0.38095000  0.32910000  1
  O  O54  1  0.08250000  0.53454000  0.40741000  1
  O  O55  1  0.09600000  0.30112000  0.68398000  1
  O  O56  1  0.09740000  0.13180000  0.11970000  1
  O  O57  1  0.12610000  0.37131000  0.47823000  1
  O  O58  1  0.24970000  0.01560000  0.13787000  1
  O  O59  1  0.25030000  0.48440000  0.63787000  1
  O  O60  1  0.37390000  0.12869000  0.97823000  1
  O  O61  1  0.40260000  0.36820000  0.61970000  1
  O  O62  1  0.40400000  0.19888000  0.18398000  1
  O  O63  1  0.41750000  0.96546000  0.90741000  1
  O  O64  1  0.47420000  0.11905000  0.82910000  1
  O  O65  1  0.47670000  0.69670000  0.89421000  1
  O  O66  1  0.52330000  0.30330000  0.10579000  1
  O  O67  1  0.52580000  0.88095000  0.17090000  1
  O  O68  1  0.58250000  0.03454000  0.09259000  1
  O  O69  1  0.59600000  0.80112000  0.81602000  1
  O  O70  1  0.59740000  0.63180000  0.38030000  1
  O  O71  1  0.62610000  0.87131000  0.02177000  1
  O  O72  1  0.74970000  0.51560000  0.36213000  1
  O  O73  1  0.75030000  0.98440000  0.86213000  1
  O  O74  1  0.87390000  0.62869000  0.52177000  1
  O  O75  1  0.90260000  0.86820000  0.88030000  1
  O  O76  1  0.90400000  0.69888000  0.31602000  1
  O  O77  1  0.91750000  0.46546000  0.59259000  1
  O  O78  1  0.97420000  0.61905000  0.67090000  1
  O  O79  1  0.97670000  0.19670000  0.60579000  1
