# generated using pymatgen
data_Co3H24C30(NO5)2
_symmetry_space_group_name_H-M   'P 1'
_cell_length_a   15.08830000
_cell_length_b   17.53100000
_cell_length_c   17.53100000
_cell_angle_alpha   90.00000000
_cell_angle_beta   90.00000000
_cell_angle_gamma   90.00000000
_symmetry_Int_Tables_number   1
_chemical_formula_structural   Co3H24C30(NO5)2
_chemical_formula_sum   'Co12 H96 C120 N8 O40'
_cell_volume   4637.17718036
_cell_formula_units_Z   4
loop_
 _symmetry_equiv_pos_site_id
 _symmetry_equiv_pos_as_xyz
  1  'x, y, z'
loop_
 _atom_site_type_symbol
 _atom_site_label
 _atom_site_symmetry_multiplicity
 _atom_site_fract_x
 _atom_site_fract_y
 _atom_site_fract_z
 _atom_site_occupancy
  Co  Co0  1  0.02995000  0.40050000  0.64081000  1
  Co  Co1  1  0.02995000  0.59950000  0.35919000  1
  Co  Co2  1  0.25000000  0.35121000  0.64879000  1
  Co  Co3  1  0.25000000  0.64879000  0.35121000  1
  Co  Co4  1  0.47005000  0.35919000  0.59950000  1
  Co  Co5  1  0.47005000  0.64081000  0.40050000  1
  Co  Co6  1  0.52995000  0.40050000  0.35919000  1
  Co  Co7  1  0.52995000  0.59950000  0.64081000  1
  Co  Co8  1  0.75000000  0.35121000  0.35121000  1
  Co  Co9  1  0.75000000  0.64879000  0.64879000  1
  Co  Co10  1  0.97005000  0.35919000  0.40050000  1
  Co  Co11  1  0.97005000  0.64081000  0.59950000  1
  H  H12  1  0.04650000  0.37160000  0.16710000  1
  H  H13  1  0.04650000  0.62840000  0.83290000  1
  H  H14  1  0.08290000  0.39050000  0.03950000  1
  H  H15  1  0.08290000  0.60950000  0.96050000  1
  H  H16  1  0.09300000  0.33550000  0.91630000  1
  H  H17  1  0.09300000  0.66450000  0.08370000  1
  H  H18  1  0.09830000  0.24310000  0.46170000  1
  H  H19  1  0.09830000  0.75690000  0.53830000  1
  H  H20  1  0.12220000  0.34890000  0.78880000  1
  H  H21  1  0.12220000  0.65110000  0.21120000  1
  H  H22  1  0.13160000  0.11470000  0.45570000  1
  H  H23  1  0.13160000  0.88530000  0.54430000  1
  H  H24  1  0.15760000  0.48410000  0.23840000  1
  H  H25  1  0.15760000  0.51590000  0.76160000  1
  H  H26  1  0.17700000  0.01690000  0.37710000  1
  H  H27  1  0.17700000  0.98310000  0.62290000  1
  H  H28  1  0.21460000  0.11410000  0.63680000  1
  H  H29  1  0.21460000  0.88590000  0.36320000  1
  H  H30  1  0.22030000  0.41870000  0.27220000  1
  H  H31  1  0.22030000  0.58130000  0.72780000  1
  H  H32  1  0.22940000  0.48420000  0.39020000  1
  H  H33  1  0.22940000  0.51580000  0.60980000  1
  H  H34  1  0.24110000  0.25800000  0.50260000  1
  H  H35  1  0.24110000  0.74200000  0.49740000  1
  H  H36  1  0.25890000  0.49740000  0.74200000  1
  H  H37  1  0.25890000  0.50260000  0.25800000  1
  H  H38  1  0.27060000  0.39020000  0.48420000  1
  H  H39  1  0.27060000  0.60980000  0.51580000  1
  H  H40  1  0.27970000  0.27220000  0.41870000  1
  H  H41  1  0.27970000  0.72780000  0.58130000  1
  H  H42  1  0.28540000  0.36320000  0.88590000  1
  H  H43  1  0.28540000  0.63680000  0.11410000  1
  H  H44  1  0.32300000  0.37710000  0.01690000  1
  H  H45  1  0.32300000  0.62290000  0.98310000  1
  H  H46  1  0.34240000  0.23840000  0.48410000  1
  H  H47  1  0.34240000  0.76160000  0.51590000  1
  H  H48  1  0.36840000  0.45570000  0.11470000  1
  H  H49  1  0.36840000  0.54430000  0.88530000  1
  H  H50  1  0.37780000  0.21120000  0.65110000  1
  H  H51  1  0.37780000  0.78880000  0.34890000  1
  H  H52  1  0.40170000  0.46170000  0.24310000  1
  H  H53  1  0.40170000  0.53830000  0.75690000  1
  H  H54  1  0.40700000  0.08370000  0.66450000  1
  H  H55  1  0.40700000  0.91630000  0.33550000  1
  H  H56  1  0.41710000  0.03950000  0.39050000  1
  H  H57  1  0.41710000  0.96050000  0.60950000  1
  H  H58  1  0.45350000  0.16710000  0.37160000  1
  H  H59  1  0.45350000  0.83290000  0.62840000  1
  H  H60  1  0.54650000  0.37160000  0.83290000  1
  H  H61  1  0.54650000  0.62840000  0.16710000  1
  H  H62  1  0.58290000  0.39050000  0.96050000  1
  H  H63  1  0.58290000  0.60950000  0.03950000  1
  H  H64  1  0.59300000  0.33550000  0.08370000  1
  H  H65  1  0.59300000  0.66450000  0.91630000  1
  H  H66  1  0.59830000  0.24310000  0.53830000  1
  H  H67  1  0.59830000  0.75690000  0.46170000  1
  H  H68  1  0.62220000  0.34890000  0.21120000  1
  H  H69  1  0.62220000  0.65110000  0.78880000  1
  H  H70  1  0.63160000  0.11470000  0.54430000  1
  H  H71  1  0.63160000  0.88530000  0.45570000  1
  H  H72  1  0.65760000  0.48410000  0.76160000  1
  H  H73  1  0.65760000  0.51590000  0.23840000  1
  H  H74  1  0.67700000  0.01690000  0.62290000  1
  H  H75  1  0.67700000  0.98310000  0.37710000  1
  H  H76  1  0.71460000  0.11410000  0.36320000  1
  H  H77  1  0.71460000  0.88590000  0.63680000  1
  H  H78  1  0.72030000  0.41870000  0.72780000  1
  H  H79  1  0.72030000  0.58130000  0.27220000  1
  H  H80  1  0.72940000  0.48420000  0.60980000  1
  H  H81  1  0.72940000  0.51580000  0.39020000  1
  H  H82  1  0.74110000  0.25800000  0.49740000  1
  H  H83  1  0.74110000  0.74200000  0.50260000  1
  H  H84  1  0.75890000  0.49740000  0.25800000  1
  H  H85  1  0.75890000  0.50260000  0.74200000  1
  H  H86  1  0.77060000  0.39020000  0.51580000  1
  H  H87  1  0.77060000  0.60980000  0.48420000  1
  H  H88  1  0.77970000  0.27220000  0.58130000  1
  H  H89  1  0.77970000  0.72780000  0.41870000  1
  H  H90  1  0.78540000  0.36320000  0.11410000  1
  H  H91  1  0.78540000  0.63680000  0.88590000  1
  H  H92  1  0.82300000  0.37710000  0.98310000  1
  H  H93  1  0.82300000  0.62290000  0.01690000  1
  H  H94  1  0.84240000  0.23840000  0.51590000  1
  H  H95  1  0.84240000  0.76160000  0.48410000  1
  H  H96  1  0.86840000  0.45570000  0.88530000  1
  H  H97  1  0.86840000  0.54430000  0.11470000  1
  H  H98  1  0.87780000  0.21120000  0.34890000  1
  H  H99  1  0.87780000  0.78880000  0.65110000  1
  H  H100  1  0.90170000  0.46170000  0.75690000  1
  H  H101  1  0.90170000  0.53830000  0.24310000  1
  H  H102  1  0.90700000  0.08370000  0.33550000  1
  H  H103  1  0.90700000  0.91630000  0.66450000  1
  H  H104  1  0.91710000  0.03950000  0.60950000  1
  H  H105  1  0.91710000  0.96050000  0.39050000  1
  H  H106  1  0.95350000  0.16710000  0.62840000  1
  H  H107  1  0.95350000  0.83290000  0.37160000  1
  C  C108  1  0.00070000  0.37380000  0.13000000  1
  C  C109  1  0.00070000  0.62620000  0.87000000  1
  C  C110  1  0.02260000  0.38440000  0.05390000  1
  C  C111  1  0.02260000  0.61560000  0.94610000  1
  C  C112  1  0.02310000  0.08342000  0.39443000  1
  C  C113  1  0.02310000  0.91658000  0.60557000  1
  C  C114  1  0.04390000  0.00141000  0.38622000  1
  C  C115  1  0.04390000  0.99859000  0.61378000  1
  C  C116  1  0.05240000  0.36240000  0.88490000  1
  C  C117  1  0.05240000  0.63760000  0.11510000  1
  C  C118  1  0.05870000  0.21006000  0.43553000  1
  C  C119  1  0.05870000  0.78994000  0.56447000  1
  C  C120  1  0.06870000  0.36960000  0.80840000  1
  C  C121  1  0.06870000  0.63040000  0.19160000  1
  C  C122  1  0.07910000  0.13322000  0.43210000  1
  C  C123  1  0.07910000  0.86678000  0.56790000  1
  C  C124  1  0.08690000  0.15294000  0.63360000  1
  C  C125  1  0.08690000  0.84706000  0.36640000  1
  C  C126  1  0.09771000  0.44841000  0.37585000  1
  C  C127  1  0.09771000  0.55159000  0.62415000  1
  C  C128  1  0.10980000  0.23523000  0.64339000  1
  C  C129  1  0.10980000  0.76477000  0.35661000  1
  C  C130  1  0.13160000  0.02070000  0.62280000  1
  C  C131  1  0.13160000  0.97930000  0.37720000  1
  C  C132  1  0.15440000  0.09901000  0.63200000  1
  C  C133  1  0.15440000  0.90099000  0.36800000  1
  C  C134  1  0.17980000  0.49611000  0.35420000  1
  C  C135  1  0.17980000  0.50389000  0.64580000  1
  C  C136  1  0.20660000  0.47330000  0.27350000  1
  C  C137  1  0.20660000  0.52670000  0.72650000  1
  C  C138  1  0.29340000  0.27350000  0.47330000  1
  C  C139  1  0.29340000  0.72650000  0.52670000  1
  C  C140  1  0.32020000  0.35420000  0.49611000  1
  C  C141  1  0.32020000  0.64580000  0.50389000  1
  C  C142  1  0.34560000  0.36800000  0.90099000  1
  C  C143  1  0.34560000  0.63200000  0.09901000  1
  C  C144  1  0.36840000  0.37720000  0.97930000  1
  C  C145  1  0.36840000  0.62280000  0.02070000  1
  C  C146  1  0.39020000  0.35661000  0.76477000  1
  C  C147  1  0.39020000  0.64339000  0.23523000  1
  C  C148  1  0.40229000  0.37585000  0.44841000  1
  C  C149  1  0.40229000  0.62415000  0.55159000  1
  C  C150  1  0.41310000  0.36640000  0.84706000  1
  C  C151  1  0.41310000  0.63360000  0.15294000  1
  C  C152  1  0.42090000  0.43210000  0.13322000  1
  C  C153  1  0.42090000  0.56790000  0.86678000  1
  C  C154  1  0.43130000  0.19160000  0.63040000  1
  C  C155  1  0.43130000  0.80840000  0.36960000  1
  C  C156  1  0.44130000  0.43553000  0.21006000  1
  C  C157  1  0.44130000  0.56447000  0.78994000  1
  C  C158  1  0.44760000  0.11510000  0.63760000  1
  C  C159  1  0.44760000  0.88490000  0.36240000  1
  C  C160  1  0.45610000  0.38622000  0.00141000  1
  C  C161  1  0.45610000  0.61378000  0.99859000  1
  C  C162  1  0.47690000  0.39443000  0.08342000  1
  C  C163  1  0.47690000  0.60557000  0.91658000  1
  C  C164  1  0.47740000  0.05390000  0.38440000  1
  C  C165  1  0.47740000  0.94610000  0.61560000  1
  C  C166  1  0.49930000  0.13000000  0.37380000  1
  C  C167  1  0.49930000  0.87000000  0.62620000  1
  C  C168  1  0.50070000  0.37380000  0.87000000  1
  C  C169  1  0.50070000  0.62620000  0.13000000  1
  C  C170  1  0.52260000  0.38440000  0.94610000  1
  C  C171  1  0.52260000  0.61560000  0.05390000  1
  C  C172  1  0.52310000  0.08342000  0.60557000  1
  C  C173  1  0.52310000  0.91658000  0.39443000  1
  C  C174  1  0.54390000  0.00141000  0.61378000  1
  C  C175  1  0.54390000  0.99859000  0.38622000  1
  C  C176  1  0.55240000  0.36240000  0.11510000  1
  C  C177  1  0.55240000  0.63760000  0.88490000  1
  C  C178  1  0.55870000  0.21006000  0.56447000  1
  C  C179  1  0.55870000  0.78994000  0.43553000  1
  C  C180  1  0.56870000  0.36960000  0.19160000  1
  C  C181  1  0.56870000  0.63040000  0.80840000  1
  C  C182  1  0.57910000  0.13322000  0.56790000  1
  C  C183  1  0.57910000  0.86678000  0.43210000  1
  C  C184  1  0.58690000  0.15294000  0.36640000  1
  C  C185  1  0.58690000  0.84706000  0.63360000  1
  C  C186  1  0.59771000  0.44841000  0.62415000  1
  C  C187  1  0.59771000  0.55159000  0.37585000  1
  C  C188  1  0.60980000  0.23523000  0.35661000  1
  C  C189  1  0.60980000  0.76477000  0.64339000  1
  C  C190  1  0.63160000  0.02070000  0.37720000  1
  C  C191  1  0.63160000  0.97930000  0.62280000  1
  C  C192  1  0.65440000  0.09901000  0.36800000  1
  C  C193  1  0.65440000  0.90099000  0.63200000  1
  C  C194  1  0.67980000  0.49611000  0.64580000  1
  C  C195  1  0.67980000  0.50389000  0.35420000  1
  C  C196  1  0.70660000  0.47330000  0.72650000  1
  C  C197  1  0.70660000  0.52670000  0.27350000  1
  C  C198  1  0.79340000  0.27350000  0.52670000  1
  C  C199  1  0.79340000  0.72650000  0.47330000  1
  C  C200  1  0.82020000  0.35420000  0.50389000  1
  C  C201  1  0.82020000  0.64580000  0.49611000  1
  C  C202  1  0.84560000  0.36800000  0.09901000  1
  C  C203  1  0.84560000  0.63200000  0.90099000  1
  C  C204  1  0.86840000  0.37720000  0.02070000  1
  C  C205  1  0.86840000  0.62280000  0.97930000  1
  C  C206  1  0.89020000  0.35661000  0.23523000  1
  C  C207  1  0.89020000  0.64339000  0.76477000  1
  C  C208  1  0.90229000  0.37585000  0.55159000  1
  C  C209  1  0.90229000  0.62415000  0.44841000  1
  C  C210  1  0.91310000  0.36640000  0.15294000  1
  C  C211  1  0.91310000  0.63360000  0.84706000  1
  C  C212  1  0.92090000  0.43210000  0.86678000  1
  C  C213  1  0.92090000  0.56790000  0.13322000  1
  C  C214  1  0.93130000  0.19160000  0.36960000  1
  C  C215  1  0.93130000  0.80840000  0.63040000  1
  C  C216  1  0.94130000  0.43553000  0.78994000  1
  C  C217  1  0.94130000  0.56447000  0.21006000  1
  C  C218  1  0.94760000  0.11510000  0.36240000  1
  C  C219  1  0.94760000  0.88490000  0.63760000  1
  C  C220  1  0.95610000  0.38622000  0.99859000  1
  C  C221  1  0.95610000  0.61378000  0.00141000  1
  C  C222  1  0.97690000  0.39443000  0.91658000  1
  C  C223  1  0.97690000  0.60557000  0.08342000  1
  C  C224  1  0.97740000  0.05390000  0.61560000  1
  C  C225  1  0.97740000  0.94610000  0.38440000  1
  C  C226  1  0.99930000  0.13000000  0.62620000  1
  C  C227  1  0.99930000  0.87000000  0.37380000  1
  N  N228  1  0.01358000  0.40399000  0.75985000  1
  N  N229  1  0.01358000  0.59601000  0.24015000  1
  N  N230  1  0.48642000  0.24015000  0.59601000  1
  N  N231  1  0.48642000  0.75985000  0.40399000  1
  N  N232  1  0.51358000  0.40399000  0.24015000  1
  N  N233  1  0.51358000  0.59601000  0.75985000  1
  N  N234  1  0.98642000  0.24015000  0.40399000  1
  N  N235  1  0.98642000  0.75985000  0.59601000  1
  O  O236  1  0.02308000  0.48071000  0.37760000  1
  O  O237  1  0.02308000  0.51929000  0.62240000  1
  O  O238  1  0.04659000  0.28276000  0.64370000  1
  O  O239  1  0.04659000  0.71724000  0.35630000  1
  O  O240  1  0.10577000  0.37791000  0.38737000  1
  O  O241  1  0.10577000  0.62209000  0.61263000  1
  O  O242  1  0.15839000  0.42580000  0.64054000  1
  O  O243  1  0.15839000  0.57420000  0.35946000  1
  O  O244  1  0.19172000  0.25100000  0.64939000  1
  O  O245  1  0.19172000  0.74900000  0.35061000  1
  O  O246  1  0.30828000  0.35061000  0.74900000  1
  O  O247  1  0.30828000  0.64939000  0.25100000  1
  O  O248  1  0.34161000  0.35946000  0.57420000  1
  O  O249  1  0.34161000  0.64054000  0.42580000  1
  O  O250  1  0.39423000  0.38737000  0.37791000  1
  O  O251  1  0.39423000  0.61263000  0.62209000  1
  O  O252  1  0.45341000  0.35630000  0.71724000  1
  O  O253  1  0.45341000  0.64370000  0.28276000  1
  O  O254  1  0.47692000  0.37760000  0.48071000  1
  O  O255  1  0.47692000  0.62240000  0.51929000  1
  O  O256  1  0.52308000  0.48071000  0.62240000  1
  O  O257  1  0.52308000  0.51929000  0.37760000  1
  O  O258  1  0.54659000  0.28276000  0.35630000  1
  O  O259  1  0.54659000  0.71724000  0.64370000  1
  O  O260  1  0.60577000  0.37791000  0.61263000  1
  O  O261  1  0.60577000  0.62209000  0.38737000  1
  O  O262  1  0.65839000  0.42580000  0.35946000  1
  O  O263  1  0.65839000  0.57420000  0.64054000  1
  O  O264  1  0.69172000  0.25100000  0.35061000  1
  O  O265  1  0.69172000  0.74900000  0.64939000  1
  O  O266  1  0.80828000  0.35061000  0.25100000  1
  O  O267  1  0.80828000  0.64939000  0.74900000  1
  O  O268  1  0.84161000  0.35946000  0.42580000  1
  O  O269  1  0.84161000  0.64054000  0.57420000  1
  O  O270  1  0.89423000  0.38737000  0.62209000  1
  O  O271  1  0.89423000  0.61263000  0.37791000  1
  O  O272  1  0.95341000  0.35630000  0.28276000  1
  O  O273  1  0.95341000  0.64370000  0.71724000  1
  O  O274  1  0.97692000  0.37760000  0.51929000  1
  O  O275  1  0.97692000  0.62240000  0.48071000  1
