# generated using pymatgen
data_Zn3H8(C6O5)4
_symmetry_space_group_name_H-M   'P 1'
_cell_length_a   9.34680000
_cell_length_b   15.22670000
_cell_length_c   17.65170000
_cell_angle_alpha   90.00000000
_cell_angle_beta   95.59900000
_cell_angle_gamma   90.00000000
_symmetry_Int_Tables_number   1
_chemical_formula_structural   Zn3H8(C6O5)4
_chemical_formula_sum   'Zn6 H16 C48 O40'
_cell_volume   2500.22069882
_cell_formula_units_Z   2
loop_
 _symmetry_equiv_pos_site_id
 _symmetry_equiv_pos_as_xyz
  1  'x, y, z'
loop_
 _atom_site_type_symbol
 _atom_site_label
 _atom_site_symmetry_multiplicity
 _atom_site_fract_x
 _atom_site_fract_y
 _atom_site_fract_z
 _atom_site_occupancy
  Zn  Zn0  1  0.00000000  0.00000000  0.00000000  1
  Zn  Zn1  1  0.00000000  0.50000000  0.50000000  1
  Zn  Zn2  1  0.07258000  0.10963000  0.16230000  1
  Zn  Zn3  1  0.07258000  0.39037000  0.66230000  1
  Zn  Zn4  1  0.92742000  0.60963000  0.33770000  1
  Zn  Zn5  1  0.92742000  0.89037000  0.83770000  1
  H  H6  1  0.11360000  0.10350000  0.57100000  1
  H  H7  1  0.11360000  0.39650000  0.07100000  1
  H  H8  1  0.13740000  0.00420000  0.45920000  1
  H  H9  1  0.13740000  0.49580000  0.95920000  1
  H  H10  1  0.27410000  0.11630000  0.93710000  1
  H  H11  1  0.27410000  0.38370000  0.43710000  1
  H  H12  1  0.45620000  0.64220000  0.54580000  1
  H  H13  1  0.45620000  0.85780000  0.04580000  1
  H  H14  1  0.54380000  0.14220000  0.95420000  1
  H  H15  1  0.54380000  0.35780000  0.45420000  1
  H  H16  1  0.72590000  0.61630000  0.56290000  1
  H  H17  1  0.72590000  0.88370000  0.06290000  1
  H  H18  1  0.86260000  0.50420000  0.04080000  1
  H  H19  1  0.86260000  0.99580000  0.54080000  1
  H  H20  1  0.88640000  0.60350000  0.92900000  1
  H  H21  1  0.88640000  0.89650000  0.42900000  1
  C  C22  1  0.06180000  0.21180000  0.02920000  1
  C  C23  1  0.06180000  0.28820000  0.52920000  1
  C  C24  1  0.08400000  0.20140000  0.49210000  1
  C  C25  1  0.08400000  0.29860000  0.99210000  1
  C  C26  1  0.10470000  0.09260000  0.31310000  1
  C  C27  1  0.10470000  0.40740000  0.81310000  1
  C  C28  1  0.10760000  0.12000000  0.52000000  1
  C  C29  1  0.10760000  0.38000000  0.02000000  1
  C  C30  1  0.10780000  0.11400000  0.39560000  1
  C  C31  1  0.10780000  0.38600000  0.89560000  1
  C  C32  1  0.12150000  0.06450000  0.45740000  1
  C  C33  1  0.12150000  0.43550000  0.95740000  1
  C  C34  1  0.19590000  0.55430000  0.36470000  1
  C  C35  1  0.19590000  0.94570000  0.86470000  1
  C  C36  1  0.28940000  0.00490000  0.09960000  1
  C  C37  1  0.28940000  0.49510000  0.59960000  1
  C  C38  1  0.32480000  0.50050000  0.38900000  1
  C  C39  1  0.32480000  0.99950000  0.88900000  1
  C  C40  1  0.34510000  0.07860000  0.92290000  1
  C  C41  1  0.34510000  0.42140000  0.42290000  1
  C  C42  1  0.44140000  0.52030000  0.59640000  1
  C  C43  1  0.44140000  0.97970000  0.09640000  1
  C  C44  1  0.49650000  0.09310000  0.93260000  1
  C  C45  1  0.49650000  0.40690000  0.43260000  1
  C  C46  1  0.50350000  0.59310000  0.56740000  1
  C  C47  1  0.50350000  0.90690000  0.06740000  1
  C  C48  1  0.55860000  0.02030000  0.90360000  1
  C  C49  1  0.55860000  0.47970000  0.40360000  1
  C  C50  1  0.65490000  0.57860000  0.57710000  1
  C  C51  1  0.65490000  0.92140000  0.07710000  1
  C  C52  1  0.67520000  0.00050000  0.11100000  1
  C  C53  1  0.67520000  0.49950000  0.61100000  1
  C  C54  1  0.71060000  0.50490000  0.40040000  1
  C  C55  1  0.71060000  0.99510000  0.90040000  1
  C  C56  1  0.80410000  0.05430000  0.13530000  1
  C  C57  1  0.80410000  0.44570000  0.63530000  1
  C  C58  1  0.87850000  0.56450000  0.04260000  1
  C  C59  1  0.87850000  0.93550000  0.54260000  1
  C  C60  1  0.89220000  0.61400000  0.10440000  1
  C  C61  1  0.89220000  0.88600000  0.60440000  1
  C  C62  1  0.89240000  0.62000000  0.98000000  1
  C  C63  1  0.89240000  0.88000000  0.48000000  1
  C  C64  1  0.89530000  0.59260000  0.18690000  1
  C  C65  1  0.89530000  0.90740000  0.68690000  1
  C  C66  1  0.91600000  0.70140000  0.00790000  1
  C  C67  1  0.91600000  0.79860000  0.50790000  1
  C  C68  1  0.93820000  0.71180000  0.47080000  1
  C  C69  1  0.93820000  0.78820000  0.97080000  1
  O  O70  1  0.05430000  0.14350000  0.99160000  1
  O  O71  1  0.05430000  0.35650000  0.49160000  1
  O  O72  1  0.05840000  0.21920000  0.10170000  1
  O  O73  1  0.05840000  0.28080000  0.60170000  1
  O  O74  1  0.07490000  0.52360000  0.38350000  1
  O  O75  1  0.07490000  0.97640000  0.88350000  1
  O  O76  1  0.08390000  0.20120000  0.41460000  1
  O  O77  1  0.08390000  0.29880000  0.91460000  1
  O  O78  1  0.08990000  0.15660000  0.26680000  1
  O  O79  1  0.08990000  0.34340000  0.76680000  1
  O  O80  1  0.11980000  0.01570000  0.29430000  1
  O  O81  1  0.11980000  0.48430000  0.79430000  1
  O  O82  1  0.19680000  0.53780000  0.55820000  1
  O  O83  1  0.19680000  0.96220000  0.05820000  1
  O  O84  1  0.20340000  0.62030000  0.32700000  1
  O  O85  1  0.20340000  0.87970000  0.82700000  1
  O  O86  1  0.26680000  0.06940000  0.14120000  1
  O  O87  1  0.26680000  0.43060000  0.64120000  1
  O  O88  1  0.45470000  0.53770000  0.37520000  1
  O  O89  1  0.45470000  0.96230000  0.87520000  1
  O  O90  1  0.54530000  0.03770000  0.12480000  1
  O  O91  1  0.54530000  0.46230000  0.62480000  1
  O  O92  1  0.73320000  0.56940000  0.35880000  1
  O  O93  1  0.73320000  0.93060000  0.85880000  1
  O  O94  1  0.79660000  0.12030000  0.17300000  1
  O  O95  1  0.79660000  0.37970000  0.67300000  1
  O  O96  1  0.80320000  0.03780000  0.94180000  1
  O  O97  1  0.80320000  0.46220000  0.44180000  1
  O  O98  1  0.88020000  0.51570000  0.20570000  1
  O  O99  1  0.88020000  0.98430000  0.70570000  1
  O  O100  1  0.91010000  0.65660000  0.23320000  1
  O  O101  1  0.91010000  0.84340000  0.73320000  1
  O  O102  1  0.91610000  0.70120000  0.08540000  1
  O  O103  1  0.91610000  0.79880000  0.58540000  1
  O  O104  1  0.92510000  0.02360000  0.11650000  1
  O  O105  1  0.92510000  0.47640000  0.61650000  1
  O  O106  1  0.94160000  0.71920000  0.39830000  1
  O  O107  1  0.94160000  0.78080000  0.89830000  1
  O  O108  1  0.94570000  0.64350000  0.50840000  1
  O  O109  1  0.94570000  0.85650000  0.00840000  1
