# generated using pymatgen
data_Zn7H84(C13N4)12
_symmetry_space_group_name_H-M   'P 1'
_cell_length_a   23.53055628
_cell_length_b   23.53030000
_cell_length_c   23.53030000
_cell_angle_alpha   109.47100000
_cell_angle_beta   109.47144127
_cell_angle_gamma   109.47144127
_symmetry_Int_Tables_number   1
_chemical_formula_structural   Zn7H84(C13N4)12
_chemical_formula_sum   'Zn14 H168 C312 N96'
_cell_volume   10029.14821675
_cell_formula_units_Z   2
loop_
 _symmetry_equiv_pos_site_id
 _symmetry_equiv_pos_as_xyz
  1  'x, y, z'
loop_
 _atom_site_type_symbol
 _atom_site_label
 _atom_site_symmetry_multiplicity
 _atom_site_fract_x
 _atom_site_fract_y
 _atom_site_fract_z
 _atom_site_occupancy
  Zn  Zn0  1  0.72586000  0.22586000  0.72586000  1
  Zn  Zn1  1  0.22586000  0.72586000  0.22586000  1
  Zn  Zn2  1  0.62500000  0.87500000  0.75000000  1
  Zn  Zn3  1  0.27414000  0.50000000  0.50000000  1
  Zn  Zn4  1  0.37500000  0.25000000  0.62500000  1
  Zn  Zn5  1  1.00000000  1.00000000  0.27414000  1
  Zn  Zn6  1  0.87500000  0.62500000  0.25000000  1
  Zn  Zn7  1  0.50000000  0.77414000  0.00000000  1
  Zn  Zn8  1  0.50000000  0.27414000  1.00000000  1
  Zn  Zn9  1  0.75000000  0.12500000  0.37500000  1
  Zn  Zn10  1  0.77414000  0.50000000  0.50000000  1
  Zn  Zn11  1  0.12500000  0.75000000  0.87500000  1
  Zn  Zn12  1  1.00000000  1.00000000  0.77414000  1
  Zn  Zn13  1  0.25000000  0.37500000  0.12500000  1
  H  H14  1  0.82800000  0.49230000  0.83050000  1
  H  H15  1  0.16430000  0.00250000  0.17200000  1
  H  H16  1  0.26790000  0.07290000  0.28100000  1
  H  H17  1  0.57300000  0.78010000  0.59730000  1
  H  H18  1  0.07300000  0.66730000  0.09970000  1
  H  H19  1  0.30330000  0.88980000  0.33210000  1
  H  H20  1  0.88130000  0.04270000  0.92180000  1
  H  H21  1  0.62620000  0.93720000  0.66700000  1
  H  H22  1  0.07820000  0.45950000  0.12090000  1
  H  H23  1  0.33210000  0.80330000  0.38980000  1
  H  H24  1  0.77020000  0.95920000  0.83300000  1
  H  H25  1  0.09970000  0.57300000  0.16730000  1
  H  H26  1  0.71900000  0.48690000  0.79190000  1
  H  H27  1  0.71990000  0.81720000  0.79290000  1
  H  H28  1  0.40030000  0.56760000  0.47330000  1
  H  H29  1  0.37910000  0.33860000  0.45730000  1
  H  H30  1  0.80330000  0.33210000  0.88980000  1
  H  H31  1  0.57300000  0.09970000  0.66730000  1
  H  H32  1  0.42700000  0.20710000  0.52430000  1
  H  H33  1  0.33270000  0.40570000  0.43240000  1
  H  H34  1  0.05770000  0.97120000  0.16790000  1
  H  H35  1  0.95950000  0.62090000  0.07820000  1
  H  H36  1  0.54050000  0.61870000  0.66140000  1
  H  H37  1  0.56280000  0.72980000  0.68900000  1
  H  H38  1  0.45950000  0.07820000  0.62090000  1
  H  H39  1  0.83050000  0.32800000  0.99230000  1
  H  H40  1  0.32800000  0.83050000  0.49230000  1
  H  H41  1  0.37380000  0.31100000  0.54080000  1
  H  H42  1  0.42700000  0.52670000  0.59430000  1
  H  H43  1  0.02880000  0.08650000  0.19670000  1
  H  H44  1  0.83820000  0.83570000  0.00770000  1
  H  H45  1  0.99750000  0.16180000  0.16950000  1
  H  H46  1  0.52430000  0.92700000  0.70710000  1
  H  H47  1  0.43720000  0.16700000  0.62620000  1
  H  H48  1  0.79190000  0.21900000  0.98690000  1
  H  H49  1  0.91350000  0.94230000  0.11020000  1
  H  H50  1  0.47570000  0.40270000  0.68280000  1
  H  H51  1  0.80500000  0.73210000  0.01310000  1
  H  H52  1  0.01310000  0.30500000  0.23210000  1
  H  H53  1  0.68280000  0.97570000  0.90270000  1
  H  H54  1  0.93720000  0.62620000  0.16700000  1
  H  H55  1  0.69500000  0.70810000  0.92710000  1
  H  H56  1  0.21900000  0.79190000  0.48690000  1
  H  H57  1  0.54080000  0.87380000  0.81100000  1
  H  H58  1  0.92700000  0.52430000  0.20710000  1
  H  H59  1  0.92710000  0.19500000  0.20810000  1
  H  H60  1  0.28100000  0.76790000  0.57290000  1
  H  H61  1  0.28010000  0.09730000  0.57300000  1
  H  H62  1  0.16790000  0.55770000  0.47120000  1
  H  H63  1  0.76790000  0.28100000  0.07290000  1
  H  H64  1  0.45920000  0.33300000  0.77020000  1
  H  H65  1  0.78010000  0.57300000  0.09730000  1
  H  H66  1  0.00770000  0.33820000  0.33570000  1
  H  H67  1  0.17200000  0.66430000  0.50250000  1
  H  H68  1  0.11020000  0.41350000  0.44230000  1
  H  H69  1  0.06760000  0.97330000  0.40030000  1
  H  H70  1  0.22980000  0.18900000  0.56280000  1
  H  H71  1  0.66180000  0.66950000  0.99750000  1
  H  H72  1  0.66430000  0.17200000  0.00250000  1
  H  H73  1  0.54270000  0.42180000  0.88130000  1
  H  H74  1  0.95920000  0.77020000  0.33300000  1
  H  H75  1  0.04270000  0.88130000  0.42180000  1
  H  H76  1  0.45730000  0.87910000  0.83860000  1
  H  H77  1  0.19670000  0.52880000  0.58650000  1
  H  H78  1  0.02670000  0.09430000  0.42700000  1
  H  H79  1  0.31720000  0.29290000  0.71990000  1
  H  H80  1  0.56760000  0.40030000  0.97330000  1
  H  H81  1  0.55770000  0.16790000  0.97120000  1
  H  H82  1  0.11870000  0.16140000  0.54050000  1
  H  H83  1  0.90570000  0.93240000  0.33270000  1
  H  H84  1  0.97570000  0.68280000  0.40270000  1
  H  H85  1  0.30500000  0.01310000  0.73210000  1
  H  H86  1  0.59430000  0.92700000  0.02670000  1
  H  H87  1  0.87380000  0.54080000  0.31100000  1
  H  H88  1  0.58650000  0.69670000  0.02880000  1
  H  H89  1  0.66140000  0.04050000  0.11870000  1
  H  H90  1  0.72980000  0.56280000  0.18900000  1
  H  H91  1  0.87910000  0.45730000  0.33860000  1
  H  H92  1  0.44230000  0.61020000  0.91350000  1
  H  H93  1  0.43240000  0.83270000  0.90570000  1
  H  H94  1  0.81720000  0.71990000  0.29290000  1
  H  H95  1  0.20810000  0.42710000  0.69500000  1
  H  H96  1  0.16950000  0.49750000  0.66180000  1
  H  H97  1  0.33820000  0.00770000  0.83570000  1
  H  H98  1  0.33570000  0.50770000  0.83820000  1
  H  H99  1  0.16180000  0.99750000  0.66950000  1
  H  H100  1  0.19500000  0.92710000  0.70810000  1
  H  H101  1  0.79290000  0.21990000  0.31720000  1
  H  H102  1  0.40570000  0.33270000  0.93240000  1
  H  H103  1  0.41350000  0.11020000  0.94230000  1
  H  H104  1  0.83860000  0.95730000  0.37910000  1
  H  H105  1  0.68900000  0.06280000  0.22980000  1
  H  H106  1  0.61870000  0.54050000  0.16140000  1
  H  H107  1  0.52880000  0.19670000  0.08650000  1
  H  H108  1  0.81100000  0.04080000  0.37380000  1
  H  H109  1  0.52670000  0.42700000  0.09430000  1
  H  H110  1  0.23210000  0.51310000  0.80500000  1
  H  H111  1  0.90270000  0.18280000  0.47570000  1
  H  H112  1  0.83270000  0.43240000  0.40570000  1
  H  H113  1  0.04050000  0.66140000  0.61870000  1
  H  H114  1  0.47120000  0.66790000  0.05770000  1
  H  H115  1  0.47330000  0.90030000  0.06760000  1
  H  H116  1  0.21990000  0.79290000  0.81720000  1
  H  H117  1  0.92700000  0.59430000  0.52670000  1
  H  H118  1  0.08650000  0.02880000  0.69670000  1
  H  H119  1  0.33860000  0.37910000  0.95730000  1
  H  H120  1  0.92180000  0.38130000  0.54270000  1
  H  H121  1  0.83300000  0.27020000  0.45920000  1
  H  H122  1  0.38130000  0.92180000  0.04270000  1
  H  H123  1  0.50250000  0.67200000  0.16430000  1
  H  H124  1  0.49750000  0.16950000  0.16180000  1
  H  H125  1  0.06280000  0.68900000  0.72980000  1
  H  H126  1  0.90030000  0.47330000  0.56760000  1
  H  H127  1  0.94230000  0.91350000  0.61020000  1
  H  H128  1  0.00250000  0.16430000  0.67200000  1
  H  H129  1  0.83570000  0.83820000  0.50770000  1
  H  H130  1  0.59730000  0.07300000  0.28010000  1
  H  H131  1  0.27020000  0.83300000  0.95920000  1
  H  H132  1  0.57290000  0.78100000  0.26790000  1
  H  H133  1  0.97120000  0.05770000  0.66790000  1
  H  H134  1  0.07300000  0.59730000  0.78010000  1
  H  H135  1  0.07290000  0.26790000  0.78100000  1
  H  H136  1  0.70810000  0.69500000  0.42710000  1
  H  H137  1  0.70710000  0.02430000  0.42700000  1
  H  H138  1  0.31100000  0.37380000  0.04080000  1
  H  H139  1  0.98690000  0.29190000  0.71900000  1
  H  H140  1  0.42710000  0.20810000  0.19500000  1
  H  H141  1  0.66700000  0.12620000  0.43720000  1
  H  H142  1  0.40270000  0.47570000  0.18280000  1
  H  H143  1  0.73210000  0.80500000  0.51310000  1
  H  H144  1  0.51310000  0.23210000  0.30500000  1
  H  H145  1  0.18280000  0.90270000  0.97570000  1
  H  H146  1  0.61020000  0.44230000  0.41350000  1
  H  H147  1  0.48690000  0.71900000  0.29190000  1
  H  H148  1  0.12620000  0.66700000  0.93720000  1
  H  H149  1  0.20710000  0.42700000  0.02430000  1
  H  H150  1  0.66950000  0.66180000  0.49750000  1
  H  H151  1  0.50770000  0.33570000  0.33820000  1
  H  H152  1  0.69670000  0.58650000  0.52880000  1
  H  H153  1  0.09430000  0.02670000  0.92700000  1
  H  H154  1  0.04080000  0.81100000  0.87380000  1
  H  H155  1  0.99230000  0.33050000  0.82800000  1
  H  H156  1  0.49230000  0.82800000  0.33050000  1
  H  H157  1  0.12090000  0.57820000  0.95950000  1
  H  H158  1  0.18900000  0.22980000  0.06280000  1
  H  H159  1  0.16140000  0.11870000  0.04050000  1
  H  H160  1  0.57820000  0.12090000  0.45950000  1
  H  H161  1  0.66790000  0.47120000  0.55770000  1
  H  H162  1  0.93240000  0.90570000  0.83270000  1
  H  H163  1  0.02430000  0.70710000  0.92700000  1
  H  H164  1  0.16730000  0.59970000  0.07300000  1
  H  H165  1  0.38980000  0.83210000  0.30330000  1
  H  H166  1  0.95730000  0.83860000  0.87910000  1
  H  H167  1  0.29290000  0.31720000  0.21990000  1
  H  H168  1  0.97330000  0.06760000  0.90030000  1
  H  H169  1  0.29190000  0.98690000  0.21900000  1
  H  H170  1  0.66730000  0.07300000  0.59970000  1
  H  H171  1  0.33300000  0.45920000  0.27020000  1
  H  H172  1  0.88980000  0.30330000  0.83210000  1
  H  H173  1  0.62090000  0.95950000  0.57820000  1
  H  H174  1  0.16700000  0.43720000  0.12620000  1
  H  H175  1  0.42180000  0.54270000  0.38130000  1
  H  H176  1  0.83210000  0.38980000  0.80330000  1
  H  H177  1  0.59970000  0.16730000  0.57300000  1
  H  H178  1  0.09730000  0.28010000  0.07300000  1
  H  H179  1  0.78100000  0.57290000  0.76790000  1
  H  H180  1  0.67200000  0.50250000  0.66430000  1
  H  H181  1  0.33050000  0.99230000  0.32800000  1
  C  C182  1  0.78810000  0.38720000  0.79010000  1
  C  C183  1  0.87290000  0.01810000  0.87600000  1
  C  C184  1  0.11800000  0.30760000  0.12200000  1
  C  C185  1  0.80770000  0.96940000  0.82390000  1
  C  C186  1  0.12400000  0.49690000  0.14210000  1
  C  C187  1  0.78620000  0.44900000  0.80540000  1
  C  C188  1  0.64550000  0.98380000  0.67610000  1
  C  C189  1  0.13710000  0.56500000  0.16950000  1
  C  C190  1  0.19490000  0.38120000  0.22970000  1
  C  C191  1  0.25500000  0.43290000  0.29470000  1
  C  C192  1  0.70380000  0.10850000  0.75310000  1
  C  C193  1  0.16280000  0.01920000  0.21380000  1
  C  C194  1  0.22380000  0.06110000  0.27790000  1
  C  C195  1  0.72210000  0.44590000  0.78320000  1
  C  C196  1  0.36290000  0.53240000  0.42790000  1
  C  C197  1  0.67790000  0.03970000  0.74500000  1
  C  C198  1  0.66803000  0.32092000  0.73689000  1
  C  C199  1  0.06500000  0.66950000  0.13710000  1
  C  C200  1  0.73689000  0.16803000  0.82092000  1
  C  C201  1  0.66160000  0.38011000  0.74751000  1
  C  C202  1  0.12970000  0.35100000  0.22230000  1
  C  C203  1  0.60850000  0.25310000  0.70380000  1
  C  C204  1  0.79010000  0.28810000  0.88720000  1
  C  C205  1  0.28810000  0.79010000  0.38720000  1
  C  C206  1  0.56500000  0.13710000  0.66950000  1
  C  C207  1  0.24690000  0.45070000  0.35540000  1
  C  C208  1  0.09910000  0.00200000  0.21190000  1
  C  C209  1  0.37800000  0.18560000  0.49600000  1
  C  C210  1  0.68630000  0.03480000  0.80510000  1
  C  C211  1  0.21851000  0.08591000  0.33840000  1
  C  C212  1  0.69240000  0.81040000  0.81440000  1
  C  C213  1  0.35790000  0.35480000  0.48190000  1
  C  C214  1  0.99690000  0.64210000  0.12400000  1
  C  C215  1  0.59260000  0.37030000  0.72130000  1
  C  C216  1  0.27770000  0.12870000  0.40740000  1
  C  C217  1  0.74751000  0.16160000  0.88011000  1
  C  C218  1  0.33050000  0.39550000  0.46760000  1
  C  C219  1  0.53970000  0.24500000  0.67790000  1
  C  C220  1  0.50310000  0.62710000  0.64520000  1
  C  C221  1  0.80540000  0.28620000  0.94900000  1
  C  C222  1  0.10850000  0.70380000  0.25310000  1
  C  C223  1  0.49690000  0.12400000  0.64210000  1
  C  C224  1  0.51620000  0.69230000  0.66170000  1
  C  C225  1  0.72130000  0.09260000  0.87030000  1
  C  C226  1  0.53480000  0.30510000  0.68630000  1
  C  C227  1  0.16803000  0.73689000  0.32092000  1
  C  C228  1  0.11989000  0.36740000  0.28149000  1
  C  C229  1  0.48380000  0.17610000  0.64550000  1
  C  C230  1  0.78320000  0.22210000  0.94590000  1
  C  C231  1  0.28620000  0.80540000  0.44900000  1
  C  C232  1  0.17908000  0.41597000  0.34711000  1
  C  C233  1  0.43500000  0.57210000  0.60450000  1
  C  C234  1  0.35450000  0.33830000  0.53060000  1
  C  C235  1  0.46030000  0.70530000  0.63820000  1
  C  C236  1  0.15289000  0.06886000  0.33197000  1
  C  C237  1  0.50400000  0.38200000  0.68960000  1
  C  C238  1  0.46520000  0.77030000  0.65150000  1
  C  C239  1  0.49600000  0.87800000  0.68560000  1
  C  C240  1  0.98380000  0.64550000  0.17610000  1
  C  C241  1  0.68960000  0.00400000  0.88200000  1
  C  C242  1  0.85640000  0.83720000  0.05100000  1
  C  C243  1  0.27030000  0.15150000  0.46520000  1
  C  C244  1  0.39150000  0.64460000  0.59530000  1
  C  C245  1  0.03970000  0.67790000  0.24500000  1
  C  C246  1  0.90290000  0.90090000  0.11280000  1
  C  C247  1  0.99800000  0.09710000  0.20990000  1
  C  C248  1  0.98080000  0.14360000  0.19460000  1
  C  C249  1  0.83730000  0.77620000  0.05410000  1
  C  C250  1  0.16160000  0.74751000  0.38011000  1
  C  C251  1  0.40740000  0.77770000  0.62870000  1
  C  C252  1  0.05410000  0.33730000  0.27620000  1
  C  C253  1  0.64900000  0.77870000  0.87130000  1
  C  C254  1  0.22210000  0.78320000  0.44590000  1
  C  C255  1  0.61880000  0.81370000  0.84850000  1
  C  C256  1  0.33197000  0.65289000  0.56886000  1
  C  C257  1  0.32210000  0.36180000  0.56710000  1
  C  C258  1  0.14460000  0.09530000  0.39150000  1
  C  C259  1  0.33840000  0.71851000  0.58591000  1
  C  C260  1  0.86740000  0.78149000  0.11989000  1
  C  C261  1  0.29620000  0.40470000  0.54930000  1
  C  C262  1  0.20530000  0.13820000  0.46030000  1
  C  C263  1  0.91597000  0.84711000  0.17908000  1
  C  C264  1  0.03480000  0.68630000  0.30510000  1
  C  C265  1  0.66270000  0.71680000  0.93890000  1
  C  C266  1  0.09260000  0.72130000  0.37030000  1
  C  C267  1  0.93890000  0.16270000  0.21680000  1
  C  C268  1  0.85100000  0.72230000  0.12970000  1
  C  C269  1  0.63260000  0.75249000  0.91409000  1
  C  C270  1  0.27790000  0.72380000  0.56110000  1
  C  C271  1  0.05100000  0.35640000  0.33720000  1
  C  C272  1  0.11280000  0.40290000  0.40090000  1
  C  C273  1  0.21190000  0.59910000  0.50200000  1
  C  C274  1  0.56710000  0.82210000  0.86180000  1
  C  C275  1  0.95070000  0.85540000  0.24690000  1
  C  C276  1  0.31370000  0.34850000  0.61880000  1
  C  C277  1  0.21380000  0.66280000  0.51920000  1
  C  C278  1  0.87800000  0.49600000  0.18560000  1
  C  C279  1  0.53060000  0.85450000  0.83830000  1
  C  C280  1  0.80760000  0.62200000  0.11800000  1
  C  C281  1  0.88120000  0.72970000  0.19490000  1
  C  C282  1  0.30760000  0.11800000  0.62200000  1
  C  C283  1  0.26311000  0.43114000  0.58403000  1
  C  C284  1  0.93290000  0.79470000  0.25500000  1
  C  C285  1  0.19230000  0.16170000  0.51620000  1
  C  C286  1  0.03240000  0.92790000  0.36290000  1
  C  C287  1  0.93114000  0.08403000  0.26311000  1
  C  C288  1  0.64360000  0.69460000  0.98080000  1
  C  C289  1  0.72380000  0.27790000  0.06110000  1
  C  C290  1  0.46940000  0.32390000  0.80770000  1
  C  C291  1  0.91409000  0.13260000  0.25249000  1
  C  C292  1  0.58403000  0.76311000  0.93114000  1
  C  C293  1  0.38120000  0.19490000  0.72970000  1
  C  C294  1  0.77770000  0.40740000  0.12870000  1
  C  C295  1  0.96940000  0.80770000  0.32390000  1
  C  C296  1  0.51810000  0.37600000  0.87290000  1
  C  C297  1  0.54930000  0.79620000  0.90470000  1
  C  C298  1  0.66280000  0.21380000  0.01920000  1
  C  C299  1  0.01810000  0.87290000  0.37600000  1
  C  C300  1  0.43290000  0.25500000  0.79470000  1
  C  C301  1  0.07210000  0.10450000  0.43500000  1
  C  C302  1  0.71851000  0.33840000  0.08591000  1
  C  C303  1  0.27870000  0.37130000  0.64900000  1
  C  C304  1  0.35100000  0.12970000  0.72230000  1
  C  C305  1  0.48190000  0.85790000  0.85480000  1
  C  C306  1  0.12710000  0.14520000  0.50310000  1
  C  C307  1  0.00400000  0.68960000  0.38200000  1
  C  C308  1  0.25249000  0.41409000  0.63260000  1
  C  C309  1  0.77030000  0.46520000  0.15150000  1
  C  C310  1  0.31040000  0.31440000  0.69240000  1
  C  C311  1  0.20990000  0.49800000  0.59710000  1
  C  C312  1  0.90470000  0.04930000  0.29620000  1
  C  C313  1  0.53240000  0.36290000  0.92790000  1
  C  C314  1  0.59710000  0.70990000  0.99800000  1
  C  C315  1  0.59910000  0.21190000  0.00200000  1
  C  C316  1  0.45070000  0.24690000  0.85540000  1
  C  C317  1  0.87130000  0.14900000  0.27870000  1
  C  C318  1  0.36740000  0.11989000  0.78149000  1
  C  C319  1  0.65289000  0.33197000  0.06886000  1
  C  C320  1  0.46760000  0.83050000  0.89550000  1
  C  C321  1  0.41597000  0.17908000  0.84711000  1
  C  C322  1  0.70530000  0.46030000  0.13820000  1
  C  C323  1  0.89550000  0.96760000  0.33050000  1
  C  C324  1  0.33730000  0.05410000  0.77620000  1
  C  C325  1  0.21680000  0.43890000  0.66270000  1
  C  C326  1  0.19460000  0.48080000  0.64360000  1
  C  C327  1  0.64460000  0.39150000  0.09530000  1
  C  C328  1  0.86180000  0.06710000  0.32210000  1
  C  C329  1  0.84850000  0.11880000  0.31370000  1
  C  C330  1  0.60450000  0.93500000  0.07210000  1
  C  C331  1  0.69230000  0.51620000  0.16170000  1
  C  C332  1  0.35640000  0.05100000  0.83720000  1
  C  C333  1  0.64520000  0.00310000  0.12710000  1
  C  C334  1  0.85450000  0.53060000  0.33830000  1
  C  C335  1  0.81440000  0.19240000  0.31040000  1
  C  C336  1  0.85790000  0.48190000  0.35480000  1
  C  C337  1  0.40290000  0.11280000  0.90090000  1
  C  C338  1  0.40090000  0.61280000  0.90290000  1
  C  C339  1  0.85480000  0.98190000  0.35790000  1
  C  C340  1  0.81040000  0.69240000  0.31440000  1
  C  C341  1  0.83830000  0.03060000  0.35450000  1
  C  C342  1  0.62710000  0.50310000  0.14520000  1
  C  C343  1  0.33720000  0.55100000  0.85640000  1
  C  C344  1  0.66170000  0.01620000  0.19230000  1
  C  C345  1  0.57210000  0.43500000  0.10450000  1
  C  C346  1  0.81370000  0.61880000  0.34850000  1
  C  C347  1  0.82210000  0.56710000  0.36180000  1
  C  C348  1  0.59530000  0.89150000  0.14460000  1
  C  C349  1  0.14360000  0.98080000  0.69460000  1
  C  C350  1  0.16270000  0.93890000  0.71680000  1
  C  C351  1  0.27620000  0.55410000  0.83730000  1
  C  C352  1  0.83050000  0.46760000  0.39550000  1
  C  C353  1  0.63820000  0.96030000  0.20530000  1
  C  C354  1  0.34711000  0.67908000  0.91597000  1
  C  C355  1  0.39550000  0.33050000  0.96760000  1
  C  C356  1  0.56886000  0.83197000  0.15289000  1
  C  C357  1  0.28149000  0.61989000  0.86740000  1
  C  C358  1  0.77870000  0.64900000  0.37130000  1
  C  C359  1  0.35540000  0.74690000  0.95070000  1
  C  C360  1  0.50200000  0.71190000  0.09910000  1
  C  C361  1  0.49800000  0.20990000  0.09710000  1
  C  C362  1  0.42790000  0.86290000  0.03240000  1
  C  C363  1  0.79620000  0.54930000  0.40470000  1
  C  C364  1  0.09710000  0.99800000  0.70990000  1
  C  C365  1  0.19240000  0.81440000  0.81040000  1
  C  C366  1  0.65150000  0.96520000  0.27030000  1
  C  C367  1  0.13260000  0.91409000  0.75249000  1
  C  C368  1  0.88200000  0.18960000  0.50400000  1
  C  C369  1  0.00310000  0.64520000  0.62710000  1
  C  C370  1  0.35480000  0.35790000  0.98190000  1
  C  C371  1  0.22230000  0.62970000  0.85100000  1
  C  C372  1  0.14900000  0.87130000  0.77870000  1
  C  C373  1  0.58591000  0.83840000  0.21851000  1
  C  C374  1  0.93500000  0.60450000  0.57210000  1
  C  C375  1  0.29470000  0.75500000  0.93290000  1
  C  C376  1  0.87600000  0.37290000  0.51810000  1
  C  C377  1  0.51920000  0.71380000  0.16280000  1
  C  C378  1  0.40470000  0.29620000  0.04930000  1
  C  C379  1  0.37290000  0.87600000  0.01810000  1
  C  C380  1  0.82390000  0.30770000  0.46940000  1
  C  C381  1  0.62870000  0.90740000  0.27770000  1
  C  C382  1  0.22970000  0.69490000  0.88120000  1
  C  C383  1  0.43114000  0.26311000  0.08403000  1
  C  C384  1  0.75249000  0.63260000  0.41409000  1
  C  C385  1  0.30770000  0.82390000  0.96940000  1
  C  C386  1  0.56110000  0.77790000  0.22380000  1
  C  C387  1  0.48080000  0.19460000  0.14360000  1
  C  C388  1  0.76311000  0.58403000  0.43114000  1
  C  C389  1  0.86290000  0.42790000  0.53240000  1
  C  C390  1  0.01620000  0.66170000  0.69230000  1
  C  C391  1  0.75500000  0.29470000  0.43290000  1
  C  C392  1  0.08403000  0.93114000  0.76311000  1
  C  C393  1  0.12200000  0.61800000  0.80760000  1
  C  C394  1  0.69490000  0.22970000  0.38120000  1
  C  C395  1  0.61800000  0.12200000  0.30760000  1
  C  C396  1  0.33830000  0.35450000  0.03060000  1
  C  C397  1  0.68560000  0.99600000  0.37800000  1
  C  C398  1  0.01920000  0.16280000  0.71380000  1
  C  C399  1  0.11880000  0.84850000  0.81370000  1
  C  C400  1  0.74690000  0.35540000  0.45070000  1
  C  C401  1  0.36180000  0.32210000  0.06710000  1
  C  C402  1  0.00200000  0.09910000  0.71190000  1
  C  C403  1  0.90090000  0.90290000  0.61280000  1
  C  C404  1  0.83720000  0.85640000  0.55100000  1
  C  C405  1  0.06110000  0.22380000  0.77790000  1
  C  C406  1  0.41409000  0.25249000  0.13260000  1
  C  C407  1  0.62970000  0.22230000  0.35100000  1
  C  C408  1  0.71680000  0.66270000  0.43890000  1
  C  C409  1  0.87030000  0.22130000  0.59260000  1
  C  C410  1  0.43890000  0.21680000  0.16270000  1
  C  C411  1  0.80510000  0.18630000  0.53480000  1
  C  C412  1  0.67908000  0.34711000  0.41597000  1
  C  C413  1  0.96030000  0.63820000  0.70530000  1
  C  C414  1  0.04930000  0.90470000  0.79620000  1
  C  C415  1  0.61989000  0.28149000  0.36740000  1
  C  C416  1  0.08591000  0.21851000  0.83840000  1
  C  C417  1  0.89150000  0.59530000  0.64460000  1
  C  C418  1  0.06710000  0.86180000  0.82210000  1
  C  C419  1  0.06886000  0.15289000  0.83197000  1
  C  C420  1  0.34850000  0.31370000  0.11880000  1
  C  C421  1  0.94590000  0.28320000  0.72210000  1
  C  C422  1  0.37130000  0.27870000  0.14900000  1
  C  C423  1  0.77620000  0.83730000  0.55410000  1
  C  C424  1  0.12870000  0.27770000  0.90740000  1
  C  C425  1  0.88011000  0.24751000  0.66160000  1
  C  C426  1  0.55410000  0.27620000  0.33730000  1
  C  C427  1  0.69460000  0.64360000  0.48080000  1
  C  C428  1  0.70990000  0.59710000  0.49800000  1
  C  C429  1  0.61280000  0.40090000  0.40290000  1
  C  C430  1  0.74500000  0.17790000  0.53970000  1
  C  C431  1  0.09530000  0.14460000  0.89150000  1
  C  C432  1  0.96520000  0.65150000  0.77030000  1
  C  C433  1  0.55100000  0.33720000  0.35640000  1
  C  C434  1  0.38200000  0.50400000  0.18960000  1
  C  C435  1  0.67610000  0.14550000  0.48380000  1
  C  C436  1  0.18560000  0.37800000  0.99600000  1
  C  C437  1  0.15150000  0.27030000  0.96520000  1
  C  C438  1  0.18960000  0.88200000  0.00400000  1
  C  C439  1  0.83197000  0.56886000  0.65289000  1
  C  C440  1  0.13820000  0.20530000  0.96030000  1
  C  C441  1  0.03060000  0.83830000  0.85450000  1
  C  C442  1  0.10450000  0.07210000  0.93500000  1
  C  C443  1  0.84711000  0.91597000  0.67908000  1
  C  C444  1  0.94900000  0.30540000  0.78620000  1
  C  C445  1  0.44590000  0.72210000  0.28320000  1
  C  C446  1  0.14550000  0.67610000  0.98380000  1
  C  C447  1  0.78149000  0.86740000  0.61989000  1
  C  C448  1  0.82092000  0.23689000  0.66803000  1
  C  C449  1  0.18630000  0.80510000  0.03480000  1
  C  C450  1  0.37030000  0.59260000  0.22130000  1
  C  C451  1  0.16170000  0.19230000  0.01620000  1
  C  C452  1  0.14210000  0.62400000  0.99690000  1
  C  C453  1  0.75310000  0.20380000  0.60850000  1
  C  C454  1  0.44900000  0.78620000  0.30540000  1
  C  C455  1  0.14520000  0.12710000  0.00310000  1
  C  C456  1  0.17790000  0.74500000  0.03970000  1
  C  C457  1  0.96760000  0.89550000  0.83050000  1
  C  C458  1  0.38011000  0.66160000  0.24751000  1
  C  C459  1  0.90740000  0.62870000  0.77770000  1
  C  C460  1  0.22130000  0.87030000  0.09260000  1
  C  C461  1  0.62400000  0.14210000  0.49690000  1
  C  C462  1  0.98190000  0.85480000  0.85790000  1
  C  C463  1  0.31440000  0.31040000  0.19240000  1
  C  C464  1  0.83840000  0.58591000  0.71851000  1
  C  C465  1  0.30510000  0.53480000  0.18630000  1
  C  C466  1  0.99600000  0.68560000  0.87800000  1
  C  C467  1  0.71190000  0.50200000  0.59910000  1
  C  C468  1  0.85540000  0.95070000  0.74690000  1
  C  C469  1  0.16950000  0.63710000  0.06500000  1
  C  C470  1  0.88720000  0.29010000  0.78810000  1
  C  C471  1  0.38720000  0.78810000  0.29010000  1
  C  C472  1  0.20380000  0.75310000  0.10850000  1
  C  C473  1  0.72230000  0.85100000  0.62970000  1
  C  C474  1  0.24751000  0.88011000  0.16160000  1
  C  C475  1  0.32092000  0.66803000  0.23689000  1
  C  C476  1  0.63710000  0.16950000  0.56500000  1
  C  C477  1  0.23689000  0.82092000  0.16803000  1
  C  C478  1  0.24500000  0.53970000  0.17790000  1
  C  C479  1  0.92790000  0.03240000  0.86290000  1
  C  C480  1  0.28320000  0.94590000  0.22210000  1
  C  C481  1  0.77790000  0.56110000  0.72380000  1
  C  C482  1  0.71380000  0.51920000  0.66280000  1
  C  C483  1  0.25310000  0.60850000  0.20380000  1
  C  C484  1  0.79470000  0.93290000  0.75500000  1
  C  C485  1  0.72970000  0.88120000  0.69490000  1
  C  C486  1  0.66950000  0.06500000  0.63710000  1
  C  C487  1  0.17610000  0.48380000  0.14550000  1
  C  C488  1  0.30540000  0.94900000  0.28620000  1
  C  C489  1  0.64210000  0.99690000  0.62400000  1
  C  C490  1  0.32390000  0.46940000  0.30770000  1
  C  C491  1  0.62200000  0.80760000  0.61800000  1
  C  C492  1  0.37600000  0.51810000  0.37290000  1
  C  C493  1  0.29010000  0.88720000  0.28810000  1
  N  N494  1  0.69843000  0.11918000  0.69959000  1
  N  N495  1  0.66351000  0.85371000  0.68780000  1
  N  N496  1  0.73116000  0.32451000  0.75773000  1
  N  N497  1  0.75773000  0.23116000  0.82451000  1
  N  N498  1  0.08060000  0.30340000  0.15360000  1
  N  N499  1  0.61918000  0.19959000  0.69843000  1
  N  N500  1  0.11918000  0.69843000  0.19959000  1
  N  N501  1  0.34640000  0.14980000  0.42700000  1
  N  N502  1  0.23116000  0.75773000  0.32451000  1
  N  N503  1  0.30041000  0.49884000  0.41959000  1
  N  N504  1  0.66591000  0.97571000  0.81220000  1
  N  N505  1  0.57300000  0.41940000  0.72280000  1
  N  N506  1  0.69660000  0.77720000  0.85020000  1
  N  N507  1  0.64629000  0.83409000  0.80980000  1
  N  N508  1  0.52429000  0.83649000  0.69020000  1
  N  N509  1  0.09335000  0.02657000  0.26884000  1
  N  N510  1  0.33649000  0.19020000  0.52429000  1
  N  N511  1  0.47571000  0.31220000  0.66591000  1
  N  N512  1  0.72280000  0.07300000  0.91940000  1
  N  N513  1  0.38082000  0.58041000  0.57925000  1
  N  N514  1  0.30157000  0.42075000  0.50116000  1
  N  N515  1  0.42700000  0.84640000  0.64980000  1
  N  N516  1  0.17549000  0.43322000  0.40665000  1
  N  N517  1  0.93322000  0.90665000  0.17549000  1
  N  N518  1  0.26884000  0.59335000  0.52657000  1
  N  N519  1  0.97343000  0.06678000  0.24227000  1
  N  N520  1  0.80340000  0.65360000  0.08060000  1
  N  N521  1  0.08041000  0.07925000  0.38082000  1
  N  N522  1  0.99884000  0.91959000  0.30041000  1
  N  N523  1  0.84640000  0.42700000  0.14980000  1
  N  N524  1  0.35371000  0.18780000  0.66351000  1
  N  N525  1  0.33409000  0.30980000  0.64629000  1
  N  N526  1  0.24227000  0.47343000  0.56678000  1
  N  N527  1  0.85371000  0.66351000  0.18780000  1
  N  N528  1  0.97571000  0.66591000  0.31220000  1
  N  N529  1  0.07300000  0.72280000  0.41940000  1
  N  N530  1  0.30340000  0.08060000  0.65360000  1
  N  N531  1  0.83649000  0.52429000  0.19020000  1
  N  N532  1  0.92075000  0.00116000  0.30157000  1
  N  N533  1  0.56678000  0.74227000  0.97343000  1
  N  N534  1  0.27720000  0.35020000  0.69660000  1
  N  N535  1  0.50116000  0.80157000  0.92075000  1
  N  N536  1  0.49884000  0.30041000  0.91959000  1
  N  N537  1  0.85020000  0.19660000  0.27720000  1
  N  N538  1  0.59335000  0.26884000  0.02657000  1
  N  N539  1  0.43322000  0.17549000  0.90665000  1
  N  N540  1  0.83409000  0.64629000  0.30980000  1
  N  N541  1  0.58041000  0.38082000  0.07925000  1
  N  N542  1  0.57925000  0.88082000  0.08041000  1
  N  N543  1  0.80980000  0.14629000  0.33409000  1
  N  N544  1  0.40665000  0.67549000  0.93322000  1
  N  N545  1  0.52657000  0.76884000  0.09335000  1
  N  N546  1  0.77720000  0.69660000  0.35020000  1
  N  N547  1  0.41959000  0.80041000  0.99884000  1
  N  N548  1  0.42075000  0.30157000  0.00116000  1
  N  N549  1  0.19660000  0.85020000  0.77720000  1
  N  N550  1  0.47343000  0.24227000  0.06678000  1
  N  N551  1  0.80157000  0.50116000  0.42075000  1
  N  N552  1  0.69020000  0.02429000  0.33649000  1
  N  N553  1  0.15360000  0.58060000  0.80340000  1
  N  N554  1  0.91940000  0.22280000  0.57300000  1
  N  N555  1  0.81220000  0.16591000  0.47571000  1
  N  N556  1  0.68780000  0.16351000  0.35371000  1
  N  N557  1  0.06678000  0.97343000  0.74227000  1
  N  N558  1  0.14629000  0.80980000  0.83409000  1
  N  N559  1  0.16351000  0.68780000  0.85371000  1
  N  N560  1  0.64980000  0.92700000  0.34640000  1
  N  N561  1  0.80041000  0.41959000  0.49884000  1
  N  N562  1  0.88082000  0.57925000  0.58041000  1
  N  N563  1  0.58060000  0.15360000  0.30340000  1
  N  N564  1  0.74227000  0.56678000  0.47343000  1
  N  N565  1  0.02657000  0.09335000  0.76884000  1
  N  N566  1  0.67549000  0.40665000  0.43322000  1
  N  N567  1  0.90665000  0.93322000  0.67549000  1
  N  N568  1  0.14980000  0.34640000  0.92700000  1
  N  N569  1  0.00116000  0.92075000  0.80157000  1
  N  N570  1  0.07925000  0.08041000  0.88082000  1
  N  N571  1  0.41940000  0.57300000  0.22280000  1
  N  N572  1  0.16591000  0.81220000  0.97571000  1
  N  N573  1  0.02429000  0.69020000  0.83649000  1
  N  N574  1  0.76884000  0.52657000  0.59335000  1
  N  N575  1  0.19020000  0.33649000  0.02429000  1
  N  N576  1  0.30980000  0.33409000  0.14629000  1
  N  N577  1  0.35020000  0.27720000  0.19660000  1
  N  N578  1  0.22280000  0.91940000  0.07300000  1
  N  N579  1  0.31220000  0.47571000  0.16591000  1
  N  N580  1  0.91959000  0.99884000  0.80041000  1
  N  N581  1  0.82451000  0.25773000  0.73116000  1
  N  N582  1  0.92700000  0.64980000  0.84640000  1
  N  N583  1  0.69959000  0.19843000  0.61918000  1
  N  N584  1  0.19843000  0.69959000  0.11918000  1
  N  N585  1  0.65360000  0.80340000  0.58060000  1
  N  N586  1  0.32451000  0.73116000  0.25773000  1
  N  N587  1  0.25773000  0.82451000  0.23116000  1
  N  N588  1  0.18780000  0.35371000  0.16351000  1
  N  N589  1  0.19959000  0.61918000  0.19843000  1
