# generated using pymatgen
data_Cu6H50C96O25
_symmetry_space_group_name_H-M   'P 1'
_cell_length_a   12.63250000
_cell_length_b   17.47260000
_cell_length_c   27.96670000
_cell_angle_alpha   91.27500000
_cell_angle_beta   92.43300000
_cell_angle_gamma   106.10000000
_symmetry_Int_Tables_number   1
_chemical_formula_structural   Cu6H50C96O25
_chemical_formula_sum   'Cu12 H100 C192 O50'
_cell_volume   5921.70803474
_cell_formula_units_Z   2
loop_
 _symmetry_equiv_pos_site_id
 _symmetry_equiv_pos_as_xyz
  1  'x, y, z'
loop_
 _atom_site_type_symbol
 _atom_site_label
 _atom_site_symmetry_multiplicity
 _atom_site_fract_x
 _atom_site_fract_y
 _atom_site_fract_z
 _atom_site_occupancy
  Cu  Cu0  1  0.03172000  0.51414000  0.14937000  1
  Cu  Cu1  1  0.10433000  0.00279000  0.64565000  1
  Cu  Cu2  1  0.31574000  0.00141000  0.33359000  1
  Cu  Cu3  1  0.31941000  0.51100000  0.82472000  1
  Cu  Cu4  1  0.42609000  0.50035000  0.18391000  1
  Cu  Cu5  1  0.45355000  0.00642000  0.68281000  1
  Cu  Cu6  1  0.54645000  0.99358000  0.31719000  1
  Cu  Cu7  1  0.57391000  0.49965000  0.81609000  1
  Cu  Cu8  1  0.68059000  0.48900000  0.17528000  1
  Cu  Cu9  1  0.68426000  0.99859000  0.66641000  1
  Cu  Cu10  1  0.89567000  0.99721000  0.35435000  1
  Cu  Cu11  1  0.96828000  0.48586000  0.85063000  1
  H  H12  1  0.00140000  0.58520000  0.33450000  1
  H  H13  1  0.00740000  0.41400000  0.41970000  1
  H  H14  1  0.01310000  0.13510000  0.03680000  1
  H  H15  1  0.02040000  0.77520000  0.43470000  1
  H  H16  1  0.02090000  0.99450000  0.90650000  1
  H  H17  1  0.03640000  0.34390000  0.52620000  1
  H  H18  1  0.04360000  0.75760000  0.11400000  1
  H  H19  1  0.04870000  0.01380000  0.17300000  1
  H  H20  1  0.07600000  0.88020000  0.07510000  1
  H  H21  1  0.07920000  0.58410000  0.41140000  1
  H  H22  1  0.09850000  0.69870000  0.62430000  1
  H  H23  1  0.10300000  0.25690000  0.07490000  1
  H  H24  1  0.11940000  0.44900000  0.80230000  1
  H  H25  1  0.14070000  0.19280000  0.39700000  1
  H  H26  1  0.15740000  0.17790000  0.92990000  1
  H  H27  1  0.16760000  0.47950000  0.61450000  1
  H  H28  1  0.17500000  0.50980000  0.83270000  1
  H  H29  1  0.18520000  0.72290000  0.88070000  1
  H  H30  1  0.19340000  0.70500000  0.47920000  1
  H  H31  1  0.19850000  0.07080000  0.11230000  1
  H  H32  1  0.20500000  0.29620000  0.88960000  1
  H  H33  1  0.20600000  0.46050000  0.69420000  1
  H  H34  1  0.21940000  0.48000000  0.28080000  1
  H  H35  1  0.22510000  0.66540000  0.57210000  1
  H  H36  1  0.23710000  0.82970000  0.44610000  1
  H  H37  1  0.24550000  0.07770000  0.19520000  1
  H  H38  1  0.24840000  0.30660000  0.44030000  1
  H  H39  1  0.24860000  0.21720000  0.03830000  1
  H  H40  1  0.25970000  0.03890000  0.78080000  1
  H  H41  1  0.27370000  0.84680000  0.91530000  1
  H  H42  1  0.29170000  0.47430000  0.35820000  1
  H  H43  1  0.29400000  0.22390000  0.58940000  1
  H  H44  1  0.29520000  0.78740000  0.61200000  1
  H  H45  1  0.32070000  0.72540000  0.06010000  1
  H  H46  1  0.32820000  0.03920000  0.86210000  1
  H  H47  1  0.33830000  0.33200000  0.08420000  1
  H  H48  1  0.34640000  0.84380000  0.01940000  1
  H  H49  1  0.35280000  0.34190000  0.54800000  1
  H  H50  1  0.38100000  0.73460000  0.91390000  1
  H  H51  1  0.39710000  0.22140000  0.41380000  1
  H  H52  1  0.44570000  0.65500000  0.41360000  1
  H  H53  1  0.45360000  0.98410000  0.08760000  1
  H  H54  1  0.47130000  0.33940000  0.45880000  1
  H  H55  1  0.47380000  0.51140000  0.33430000  1
  H  H56  1  0.47480000  0.17540000  0.93740000  1
  H  H57  1  0.47570000  0.85430000  0.95340000  1
  H  H58  1  0.47820000  0.70790000  0.10540000  1
  H  H59  1  0.48510000  0.50550000  0.58500000  1
  H  H60  1  0.49570000  0.78280000  0.38470000  1
  H  H61  1  0.49640000  0.00370000  0.82970000  1
  H  H62  1  0.50360000  0.99630000  0.17030000  1
  H  H63  1  0.50430000  0.21720000  0.61530000  1
  H  H64  1  0.51490000  0.49450000  0.41500000  1
  H  H65  1  0.52180000  0.29210000  0.89460000  1
  H  H66  1  0.52430000  0.14570000  0.04660000  1
  H  H67  1  0.52520000  0.82460000  0.06260000  1
  H  H68  1  0.52620000  0.48860000  0.66570000  1
  H  H69  1  0.52870000  0.66060000  0.54120000  1
  H  H70  1  0.54640000  0.01590000  0.91240000  1
  H  H71  1  0.55430000  0.34500000  0.58640000  1
  H  H72  1  0.60290000  0.77860000  0.58620000  1
  H  H73  1  0.61900000  0.26540000  0.08610000  1
  H  H74  1  0.64720000  0.65810000  0.45200000  1
  H  H75  1  0.65360000  0.15620000  0.98060000  1
  H  H76  1  0.66170000  0.66800000  0.91580000  1
  H  H77  1  0.67180000  0.96080000  0.13790000  1
  H  H78  1  0.67930000  0.27460000  0.93990000  1
  H  H79  1  0.70480000  0.21260000  0.38800000  1
  H  H80  1  0.70600000  0.77610000  0.41060000  1
  H  H81  1  0.70830000  0.52570000  0.64180000  1
  H  H82  1  0.72630000  0.15320000  0.08470000  1
  H  H83  1  0.74030000  0.96110000  0.21920000  1
  H  H84  1  0.75140000  0.78280000  0.96170000  1
  H  H85  1  0.75160000  0.69340000  0.55970000  1
  H  H86  1  0.75450000  0.92230000  0.80480000  1
  H  H87  1  0.76290000  0.17030000  0.55390000  1
  H  H88  1  0.77490000  0.33460000  0.42790000  1
  H  H89  1  0.78060000  0.52000000  0.71920000  1
  H  H90  1  0.79400000  0.53950000  0.30580000  1
  H  H91  1  0.79500000  0.70380000  0.11040000  1
  H  H92  1  0.80150000  0.92920000  0.88770000  1
  H  H93  1  0.80660000  0.29500000  0.52080000  1
  H  H94  1  0.81480000  0.27710000  0.11930000  1
  H  H95  1  0.82500000  0.49020000  0.16730000  1
  H  H96  1  0.83240000  0.52050000  0.38550000  1
  H  H97  1  0.84260000  0.82210000  0.07010000  1
  H  H98  1  0.85930000  0.80720000  0.60300000  1
  H  H99  1  0.88060000  0.55100000  0.19770000  1
  H  H100  1  0.89700000  0.74310000  0.92510000  1
  H  H101  1  0.90150000  0.30130000  0.37570000  1
  H  H102  1  0.92080000  0.41590000  0.58860000  1
  H  H103  1  0.92400000  0.11980000  0.92490000  1
  H  H104  1  0.95130000  0.98620000  0.82700000  1
  H  H105  1  0.95640000  0.24240000  0.88600000  1
  H  H106  1  0.96360000  0.65610000  0.47380000  1
  H  H107  1  0.97910000  0.00550000  0.09350000  1
  H  H108  1  0.97960000  0.22480000  0.56530000  1
  H  H109  1  0.98690000  0.86490000  0.96320000  1
  H  H110  1  0.99260000  0.58600000  0.58030000  1
  H  H111  1  0.99860000  0.41480000  0.66550000  1
  C  C112  1  0.01130000  0.23710000  0.38190000  1
  C  C113  1  0.02540000  0.23630000  0.07670000  1
  C  C114  1  0.02760000  0.69790000  0.61110000  1
  C  C115  1  0.02820000  0.83660000  0.94590000  1
  C  C116  1  0.02830000  0.36060000  0.12360000  1
  C  C117  1  0.02860000  0.99910000  0.83410000  1
  C  C118  1  0.03210000  0.72090000  0.89820000  1
  C  C119  1  0.03550000  0.36950000  0.41490000  1
  C  C120  1  0.04710000  0.53620000  0.25140000  1
  C  C121  1  0.05270000  0.00890000  0.74650000  1
  C  C122  1  0.05620000  0.24930000  0.56250000  1
  C  C123  1  0.06150000  0.56300000  0.33930000  1
  C  C124  1  0.06200000  0.83740000  0.64450000  1
  C  C125  1  0.06980000  0.00210000  0.88100000  1
  C  C126  1  0.08980000  0.32000000  0.53920000  1
  C  C127  1  0.09170000  0.13490000  0.60800000  1
  C  C128  1  0.10150000  0.01540000  0.79740000  1
  C  C129  1  0.10240000  0.53250000  0.30050000  1
  C  C130  1  0.10690000  0.77570000  0.09570000  1
  C  C131  1  0.10700000  0.56170000  0.38510000  1
  C  C132  1  0.11360000  0.23790000  0.40120000  1
  C  C133  1  0.12530000  0.84830000  0.07150000  1
  C  C134  1  0.13150000  0.21360000  0.58190000  1
  C  C135  1  0.13920000  0.37120000  0.43380000  1
  C  C136  1  0.14070000  0.86850000  0.94370000  1
  C  C137  1  0.14340000  0.75210000  0.89680000  1
  C  C138  1  0.16720000  0.65230000  0.11680000  1
  C  C139  1  0.17750000  0.30590000  0.42710000  1
  C  C140  1  0.18160000  0.73130000  0.09250000  1
  C  C141  1  0.18290000  0.01630000  0.89090000  1
  C  C142  1  0.18940000  0.50020000  0.30730000  1
  C  C143  1  0.19310000  0.52760000  0.39260000  1
  C  C144  1  0.19650000  0.82550000  0.91820000  1
  C  C145  1  0.20060000  0.35640000  0.53470000  1
  C  C146  1  0.20090000  0.94620000  0.96760000  1
  C  C147  1  0.20560000  0.44420000  0.46360000  1
  C  C148  1  0.21050000  0.02940000  0.80620000  1
  C  C149  1  0.21230000  0.87320000  0.04320000  1
  C  C150  1  0.22290000  0.01750000  0.94220000  1
  C  C151  1  0.23230000  0.20160000  0.92330000  1
  C  C152  1  0.23260000  0.49760000  0.35350000  1
  C  C153  1  0.23270000  0.51940000  0.44330000  1
  C  C154  1  0.23370000  0.95000000  0.01640000  1
  C  C155  1  0.23660000  0.43560000  0.51170000  1
  C  C156  1  0.24090000  0.48120000  0.62480000  1
  C  C157  1  0.24110000  0.24830000  0.57650000  1
  C  C158  1  0.25130000  0.02950000  0.85520000  1
  C  C159  1  0.25460000  0.72030000  0.45950000  1
  C  C160  1  0.26010000  0.05410000  0.12370000  1
  C  C161  1  0.26080000  0.27190000  0.89920000  1
  C  C162  1  0.26320000  0.46990000  0.67220000  1
  C  C163  1  0.27030000  0.75640000  0.06340000  1
  C  C164  1  0.27640000  0.31920000  0.55230000  1
  C  C165  1  0.28100000  0.79460000  0.44010000  1
  C  C166  1  0.28380000  0.09020000  0.96460000  1
  C  C167  1  0.28530000  0.82690000  0.03910000  1
  C  C168  1  0.28750000  0.58700000  0.47140000  1
  C  C169  1  0.28860000  0.02110000  0.03930000  1
  C  C170  1  0.28870000  0.05880000  0.17330000  1
  C  C171  1  0.29330000  0.50250000  0.53910000  1
  C  C172  1  0.30250000  0.68960000  0.57350000  1
  C  C173  1  0.31220000  0.16530000  0.93780000  1
  C  C174  1  0.31620000  0.09170000  0.01380000  1
  C  C175  1  0.31620000  0.66800000  0.45050000  1
  C  C176  1  0.31940000  0.57850000  0.51960000  1
  C  C177  1  0.32040000  0.02580000  0.09220000  1
  C  C178  1  0.32200000  0.49490000  0.59140000  1
  C  C179  1  0.32320000  0.22550000  0.04920000  1
  C  C180  1  0.34410000  0.76120000  0.59840000  1
  C  C181  1  0.36730000  0.30710000  0.88870000  1
  C  C182  1  0.36930000  0.65200000  0.55050000  1
  C  C183  1  0.36970000  0.47240000  0.68760000  1
  C  C184  1  0.37140000  0.81890000  0.41170000  1
  C  C185  1  0.37620000  0.16950000  0.03860000  1
  C  C186  1  0.37700000  0.03650000  0.18970000  1
  C  C187  1  0.37710000  0.29450000  0.07600000  1
  C  C188  1  0.39620000  0.46560000  0.74030000  1
  C  C189  1  0.39700000  0.89770000  0.38840000  1
  C  C190  1  0.39820000  0.38530000  0.86330000  1
  C  C191  1  0.40440000  0.69120000  0.42130000  1
  C  C192  1  0.40450000  0.03660000  0.24390000  1
  C  C193  1  0.41050000  0.00390000  0.10930000  1
  C  C194  1  0.41920000  0.19960000  0.92740000  1
  C  C195  1  0.42840000  0.49680000  0.60720000  1
  C  C196  1  0.43260000  0.76660000  0.40330000  1
  C  C197  1  0.43990000  0.01030000  0.15870000  1
  C  C198  1  0.44740000  0.26960000  0.90240000  1
  C  C199  1  0.45290000  0.48630000  0.65510000  1
  C  C200  1  0.45510000  0.79460000  0.60370000  1
  C  C201  1  0.45620000  0.61850000  0.87730000  1
  C  C202  1  0.45760000  0.74550000  0.92200000  1
  C  C203  1  0.47490000  0.24340000  0.41740000  1
  C  C204  1  0.48050000  0.68600000  0.55600000  1
  C  C205  1  0.48620000  0.30840000  0.09050000  1
  C  C206  1  0.48650000  0.18430000  0.05340000  1
  C  C207  1  0.49670000  0.12600000  0.36950000  1
  C  C208  1  0.50330000  0.87400000  0.63050000  1
  C  C209  1  0.51350000  0.81570000  0.94660000  1
  C  C210  1  0.51380000  0.69160000  0.90950000  1
  C  C211  1  0.51950000  0.31400000  0.44400000  1
  C  C212  1  0.52510000  0.75660000  0.58260000  1
  C  C213  1  0.54240000  0.25450000  0.07800000  1
  C  C214  1  0.54380000  0.38150000  0.12270000  1
  C  C215  1  0.54490000  0.20540000  0.39630000  1
  C  C216  1  0.54710000  0.51370000  0.34490000  1
  C  C217  1  0.55260000  0.73040000  0.09760000  1
  C  C218  1  0.56010000  0.98970000  0.84130000  1
  C  C219  1  0.56740000  0.23340000  0.59670000  1
  C  C220  1  0.57160000  0.50320000  0.39280000  1
  C  C221  1  0.58080000  0.80040000  0.07260000  1
  C  C222  1  0.58950000  0.99610000  0.89070000  1
  C  C223  1  0.59550000  0.96340000  0.75610000  1
  C  C224  1  0.59560000  0.30880000  0.57870000  1
  C  C225  1  0.60180000  0.61470000  0.13670000  1
  C  C226  1  0.60300000  0.10230000  0.61160000  1
  C  C227  1  0.60380000  0.53440000  0.25970000  1
  C  C228  1  0.62290000  0.70550000  0.92400000  1
  C  C229  1  0.62300000  0.96350000  0.81030000  1
  C  C230  1  0.62380000  0.83050000  0.96140000  1
  C  C231  1  0.62860000  0.18110000  0.58830000  1
  C  C232  1  0.63030000  0.52760000  0.31240000  1
  C  C233  1  0.63070000  0.34800000  0.44950000  1
  C  C234  1  0.63270000  0.69290000  0.11130000  1
  C  C235  1  0.65590000  0.23880000  0.40160000  1
  C  C236  1  0.67680000  0.77450000  0.95080000  1
  C  C237  1  0.67800000  0.50510000  0.40860000  1
  C  C238  1  0.67960000  0.97420000  0.90780000  1
  C  C239  1  0.68060000  0.42150000  0.48040000  1
  C  C240  1  0.68380000  0.33200000  0.54950000  1
  C  C241  1  0.68380000  0.90830000  0.98620000  1
  C  C242  1  0.68780000  0.83470000  0.06220000  1
  C  C243  1  0.69750000  0.31040000  0.42650000  1
  C  C244  1  0.70670000  0.49750000  0.46090000  1
  C  C245  1  0.71130000  0.94120000  0.82670000  1
  C  C246  1  0.71140000  0.97890000  0.96070000  1
  C  C247  1  0.71250000  0.41300000  0.52860000  1
  C  C248  1  0.71470000  0.17310000  0.96090000  1
  C  C249  1  0.71620000  0.90980000  0.03540000  1
  C  C250  1  0.71900000  0.20540000  0.55990000  1
  C  C251  1  0.72360000  0.68080000  0.44770000  1
  C  C252  1  0.72970000  0.24360000  0.93660000  1
  C  C253  1  0.73680000  0.53010000  0.32780000  1
  C  C254  1  0.73920000  0.72810000  0.10080000  1
  C  C255  1  0.73990000  0.94590000  0.87630000  1
  C  C256  1  0.74540000  0.27970000  0.54050000  1
  C  C257  1  0.74870000  0.97050000  0.14480000  1
  C  C258  1  0.75890000  0.75170000  0.42350000  1
  C  C259  1  0.75910000  0.51880000  0.37520000  1
  C  C260  1  0.76340000  0.56440000  0.48830000  1
  C  C261  1  0.76630000  0.05000000  0.98360000  1
  C  C262  1  0.76730000  0.48060000  0.55670000  1
  C  C263  1  0.76740000  0.50240000  0.64650000  1
  C  C264  1  0.76770000  0.79840000  0.07670000  1
  C  C265  1  0.77710000  0.98250000  0.05780000  1
  C  C266  1  0.78770000  0.12680000  0.95680000  1
  C  C267  1  0.78950000  0.97060000  0.19380000  1
  C  C268  1  0.79440000  0.55580000  0.53640000  1
  C  C269  1  0.79910000  0.05380000  0.03240000  1
  C  C270  1  0.79940000  0.64360000  0.46530000  1
  C  C271  1  0.80350000  0.17450000  0.08180000  1
  C  C272  1  0.80690000  0.47240000  0.60740000  1
  C  C273  1  0.81060000  0.49980000  0.69270000  1
  C  C274  1  0.81710000  0.98370000  0.10910000  1
  C  C275  1  0.81840000  0.26870000  0.90750000  1
  C  C276  1  0.82250000  0.69410000  0.57290000  1
  C  C277  1  0.83280000  0.34770000  0.88320000  1
  C  C278  1  0.85660000  0.24790000  0.10320000  1
  C  C279  1  0.85930000  0.13150000  0.05630000  1
  C  C280  1  0.86080000  0.62880000  0.56620000  1
  C  C281  1  0.86850000  0.78640000  0.41810000  1
  C  C282  1  0.87470000  0.15170000  0.92850000  1
  C  C283  1  0.88640000  0.76210000  0.59880000  1
  C  C284  1  0.89300000  0.43830000  0.61490000  1
  C  C285  1  0.89310000  0.22430000  0.90430000  1
  C  C286  1  0.89760000  0.46750000  0.69950000  1
  C  C287  1  0.89850000  0.98460000  0.20260000  1
  C  C288  1  0.90830000  0.86510000  0.39200000  1
  C  C289  1  0.91020000  0.68000000  0.46080000  1
  C  C290  1  0.93020000  0.99790000  0.11900000  1
  C  C291  1  0.93800000  0.16260000  0.35550000  1
  C  C292  1  0.93850000  0.43700000  0.66070000  1
  C  C293  1  0.94380000  0.75070000  0.43750000  1
  C  C294  1  0.94730000  0.99110000  0.25350000  1
  C  C295  1  0.95290000  0.46380000  0.74860000  1
  C  C296  1  0.96450000  0.63050000  0.58510000  1
  C  C297  1  0.96790000  0.27910000  0.10180000  1
  C  C298  1  0.97140000  0.00090000  0.16590000  1
  C  C299  1  0.97170000  0.63940000  0.87640000  1
  C  C300  1  0.97180000  0.16340000  0.05410000  1
  C  C301  1  0.97240000  0.30210000  0.38890000  1
  C  C302  1  0.97460000  0.76370000  0.92330000  1
  C  C303  1  0.98870000  0.76290000  0.61810000  1
  O  O304  1  0.00710000  0.90190000  0.39620000  1
  O  O305  1  0.01970000  0.89280000  0.65130000  1
  O  O306  1  0.02840000  0.60200000  0.85500000  1
  O  O307  1  0.03750000  0.44150000  0.74980000  1
  O  O308  1  0.04880000  0.01120000  0.26120000  1
  O  O309  1  0.08570000  0.63110000  0.14340000  1
  O  O310  1  0.09130000  0.51330000  0.21580000  1
  O  O311  1  0.12440000  0.02900000  0.71360000  1
  O  O312  1  0.12780000  0.38520000  0.11670000  1
  O  O313  1  0.13720000  0.46130000  0.83170000  1
  O  O314  1  0.15820000  0.83670000  0.65650000  1
  O  O315  1  0.16670000  0.11410000  0.63090000  1
  O  O316  1  0.23430000  0.61550000  0.10920000  1
  O  O317  1  0.31680000  0.44330000  0.76640000  1
  O  O318  1  0.32700000  0.93590000  0.38890000  1
  O  O319  1  0.33120000  0.42610000  0.86620000  1
  O  O320  1  0.33130000  0.04810000  0.27010000  1
  O  O321  1  0.35390000  0.59330000  0.87710000  1
  O  O322  1  0.39390000  0.09970000  0.36650000  1
  O  O323  1  0.43790000  0.90620000  0.64790000  1
  O  O324  1  0.48400000  0.40770000  0.14850000  1
  O  O325  1  0.48620000  0.40100000  0.84250000  1
  O  O326  1  0.49050000  0.91980000  0.36890000  1
  O  O327  1  0.49250000  0.02460000  0.25540000  1
  O  O328  1  0.49750000  0.48360000  0.75240000  1
  O  O329  1  0.50250000  0.51640000  0.24760000  1
  O  O330  1  0.50750000  0.97540000  0.74460000  1
  O  O331  1  0.50950000  0.08020000  0.63110000  1
  O  O332  1  0.51380000  0.59900000  0.15750000  1
  O  O333  1  0.51600000  0.59230000  0.85150000  1
  O  O334  1  0.56210000  0.09380000  0.35210000  1
  O  O335  1  0.60610000  0.90030000  0.63350000  1
  O  O336  1  0.64610000  0.40670000  0.12290000  1
  O  O337  1  0.66870000  0.95190000  0.72990000  1
  O  O338  1  0.66880000  0.57390000  0.13380000  1
  O  O339  1  0.67300000  0.06410000  0.61110000  1
  O  O340  1  0.68320000  0.55670000  0.23360000  1
  O  O341  1  0.76570000  0.38450000  0.89080000  1
  O  O342  1  0.83330000  0.88590000  0.36910000  1
  O  O343  1  0.84180000  0.16330000  0.34350000  1
  O  O344  1  0.86280000  0.53870000  0.16830000  1
  O  O345  1  0.87220000  0.61480000  0.88330000  1
  O  O346  1  0.87560000  0.97100000  0.28640000  1
  O  O347  1  0.90870000  0.48670000  0.78420000  1
  O  O348  1  0.91430000  0.36890000  0.85660000  1
  O  O349  1  0.95120000  0.98880000  0.73880000  1
  O  O350  1  0.96250000  0.55850000  0.25020000  1
  O  O351  1  0.97160000  0.39800000  0.14500000  1
  O  O352  1  0.98030000  0.10720000  0.34870000  1
  O  O353  1  0.99290000  0.09810000  0.60380000  1
