# generated using pymatgen
data_CuH4C7N4
_symmetry_space_group_name_H-M   'P 1'
_cell_length_a   10.35600000
_cell_length_b   14.69780000
_cell_length_c   19.39330000
_cell_angle_alpha   90.00000000
_cell_angle_beta   90.00000000
_cell_angle_gamma   90.00000000
_symmetry_Int_Tables_number   1
_chemical_formula_structural   CuH4C7N4
_chemical_formula_sum   'Cu16 H64 C112 N64'
_cell_volume   2951.86227613
_cell_formula_units_Z   16
loop_
 _symmetry_equiv_pos_site_id
 _symmetry_equiv_pos_as_xyz
  1  'x, y, z'
loop_
 _atom_site_type_symbol
 _atom_site_label
 _atom_site_symmetry_multiplicity
 _atom_site_fract_x
 _atom_site_fract_y
 _atom_site_fract_z
 _atom_site_occupancy
  Cu  Cu0  1  0.75000000  1.00000000  0.00941000  1
  Cu  Cu1  1  0.25000000  1.00000000  0.26499000  1
  Cu  Cu2  1  0.75000000  1.00000000  0.73501000  1
  Cu  Cu3  1  0.25000000  1.00000000  0.99059000  1
  Cu  Cu4  1  0.25452000  0.15448000  0.11785000  1
  Cu  Cu5  1  0.75452000  0.15448000  0.88215000  1
  Cu  Cu6  1  0.75452000  0.34552000  0.38215000  1
  Cu  Cu7  1  0.25452000  0.34552000  0.61785000  1
  Cu  Cu8  1  0.75000000  0.50000000  0.23501000  1
  Cu  Cu9  1  0.25000000  0.50000000  0.49059000  1
  Cu  Cu10  1  0.75000000  0.50000000  0.50941000  1
  Cu  Cu11  1  0.25000000  0.50000000  0.76499000  1
  Cu  Cu12  1  0.74548000  0.65448000  0.38215000  1
  Cu  Cu13  1  0.24548000  0.65448000  0.61785000  1
  Cu  Cu14  1  0.24548000  0.84552000  0.11785000  1
  Cu  Cu15  1  0.74548000  0.84552000  0.88215000  1
  H  H16  1  0.19130000  0.10370000  0.40450000  1
  H  H17  1  0.69130000  0.10370000  0.59550000  1
  H  H18  1  0.49210000  0.10380000  0.28600000  1
  H  H19  1  0.99210000  0.10380000  0.71400000  1
  H  H20  1  0.06330000  0.10890000  0.30530000  1
  H  H21  1  0.56330000  0.10890000  0.69470000  1
  H  H22  1  0.76650000  0.13460000  0.17490000  1
  H  H23  1  0.26650000  0.13460000  0.82510000  1
  H  H24  1  0.59460000  0.20700000  0.35530000  1
  H  H25  1  0.09460000  0.20700000  0.64470000  1
  H  H26  1  0.27830000  0.21450000  0.47300000  1
  H  H27  1  0.77830000  0.21450000  0.52700000  1
  H  H28  1  0.96830000  0.21610000  0.37500000  1
  H  H29  1  0.46830000  0.21610000  0.62500000  1
  H  H30  1  0.68420000  0.24400000  0.24640000  1
  H  H31  1  0.18420000  0.24400000  0.75360000  1
  H  H32  1  0.18420000  0.25600000  0.25360000  1
  H  H33  1  0.68420000  0.25600000  0.74640000  1
  H  H34  1  0.46830000  0.28390000  0.12500000  1
  H  H35  1  0.96830000  0.28390000  0.87500000  1
  H  H36  1  0.77830000  0.28550000  0.02700000  1
  H  H37  1  0.27830000  0.28550000  0.97300000  1
  H  H38  1  0.09460000  0.29300000  0.14470000  1
  H  H39  1  0.59460000  0.29300000  0.85530000  1
  H  H40  1  0.26650000  0.36540000  0.32510000  1
  H  H41  1  0.76650000  0.36540000  0.67490000  1
  H  H42  1  0.56330000  0.39110000  0.19470000  1
  H  H43  1  0.06330000  0.39110000  0.80530000  1
  H  H44  1  0.99210000  0.39620000  0.21400000  1
  H  H45  1  0.49210000  0.39620000  0.78600000  1
  H  H46  1  0.69130000  0.39630000  0.09550000  1
  H  H47  1  0.19130000  0.39630000  0.90450000  1
  H  H48  1  0.80870000  0.60370000  0.09550000  1
  H  H49  1  0.30870000  0.60370000  0.90450000  1
  H  H50  1  0.50790000  0.60380000  0.21400000  1
  H  H51  1  0.00790000  0.60380000  0.78600000  1
  H  H52  1  0.93670000  0.60890000  0.19470000  1
  H  H53  1  0.43670000  0.60890000  0.80530000  1
  H  H54  1  0.23350000  0.63460000  0.32510000  1
  H  H55  1  0.73350000  0.63460000  0.67490000  1
  H  H56  1  0.40540000  0.70700000  0.14470000  1
  H  H57  1  0.90540000  0.70700000  0.85530000  1
  H  H58  1  0.72170000  0.71450000  0.02700000  1
  H  H59  1  0.22170000  0.71450000  0.97300000  1
  H  H60  1  0.03170000  0.71610000  0.12500000  1
  H  H61  1  0.53170000  0.71610000  0.87500000  1
  H  H62  1  0.31580000  0.74400000  0.25360000  1
  H  H63  1  0.81580000  0.74400000  0.74640000  1
  H  H64  1  0.81580000  0.75600000  0.24640000  1
  H  H65  1  0.31580000  0.75600000  0.75360000  1
  H  H66  1  0.53170000  0.78390000  0.37500000  1
  H  H67  1  0.03170000  0.78390000  0.62500000  1
  H  H68  1  0.22170000  0.78550000  0.47300000  1
  H  H69  1  0.72170000  0.78550000  0.52700000  1
  H  H70  1  0.90540000  0.79300000  0.35530000  1
  H  H71  1  0.40540000  0.79300000  0.64470000  1
  H  H72  1  0.73350000  0.86540000  0.17490000  1
  H  H73  1  0.23350000  0.86540000  0.82510000  1
  H  H74  1  0.43670000  0.89110000  0.30530000  1
  H  H75  1  0.93670000  0.89110000  0.69470000  1
  H  H76  1  0.00790000  0.89620000  0.28600000  1
  H  H77  1  0.50790000  0.89620000  0.71400000  1
  H  H78  1  0.30870000  0.89630000  0.40450000  1
  H  H79  1  0.80870000  0.89630000  0.59550000  1
  C  C80  1  0.98220000  0.04080000  0.18510000  1
  C  C81  1  0.48220000  0.04080000  0.81490000  1
  C  C82  1  0.49780000  0.05140000  0.10490000  1
  C  C83  1  0.99780000  0.05140000  0.89510000  1
  C  C84  1  0.52290000  0.10660000  0.04310000  1
  C  C85  1  0.02290000  0.10660000  0.95690000  1
  C  C86  1  0.92630000  0.10860000  0.23190000  1
  C  C87  1  0.42630000  0.10860000  0.76810000  1
  C  C88  1  0.44810000  0.12600000  0.32430000  1
  C  C89  1  0.94810000  0.12600000  0.67570000  1
  C  C90  1  0.27190000  0.12710000  0.39290000  1
  C  C91  1  0.77190000  0.12710000  0.60710000  1
  C  C92  1  0.98520000  0.13490000  0.29230000  1
  C  C93  1  0.48520000  0.13490000  0.70770000  1
  C  C94  1  0.81040000  0.15050000  0.21500000  1
  C  C95  1  0.31040000  0.15050000  0.78500000  1
  C  C96  1  0.51040000  0.18940000  0.36530000  1
  C  C97  1  0.01040000  0.18940000  0.63470000  1
  C  C98  1  0.32470000  0.19300000  0.43530000  1
  C  C99  1  0.82470000  0.19300000  0.56470000  1
  C  C100  1  0.92780000  0.20050000  0.33390000  1
  C  C101  1  0.42780000  0.20050000  0.66610000  1
  C  C102  1  0.00360000  0.20080000  0.03580000  1
  C  C103  1  0.50360000  0.20080000  0.96420000  1
  C  C104  1  0.76140000  0.21600000  0.25870000  1
  C  C105  1  0.26140000  0.21600000  0.74130000  1
  C  C106  1  0.44650000  0.22660000  0.42160000  1
  C  C107  1  0.94650000  0.22660000  0.57840000  1
  C  C108  1  0.94650000  0.27340000  0.07840000  1
  C  C109  1  0.44650000  0.27340000  0.92160000  1
  C  C110  1  0.26140000  0.28400000  0.24130000  1
  C  C111  1  0.76140000  0.28400000  0.75870000  1
  C  C112  1  0.50360000  0.29920000  0.46420000  1
  C  C113  1  0.00360000  0.29920000  0.53580000  1
  C  C114  1  0.42780000  0.29950000  0.16610000  1
  C  C115  1  0.92780000  0.29950000  0.83390000  1
  C  C116  1  0.82470000  0.30700000  0.06470000  1
  C  C117  1  0.32470000  0.30700000  0.93530000  1
  C  C118  1  0.01040000  0.31060000  0.13470000  1
  C  C119  1  0.51040000  0.31060000  0.86530000  1
  C  C120  1  0.31040000  0.34950000  0.28500000  1
  C  C121  1  0.81040000  0.34950000  0.71500000  1
  C  C122  1  0.48520000  0.36510000  0.20770000  1
  C  C123  1  0.98520000  0.36510000  0.79230000  1
  C  C124  1  0.77190000  0.37290000  0.10710000  1
  C  C125  1  0.27190000  0.37290000  0.89290000  1
  C  C126  1  0.94810000  0.37400000  0.17570000  1
  C  C127  1  0.44810000  0.37400000  0.82430000  1
  C  C128  1  0.42630000  0.39140000  0.26810000  1
  C  C129  1  0.92630000  0.39140000  0.73190000  1
  C  C130  1  0.02290000  0.39340000  0.45690000  1
  C  C131  1  0.52290000  0.39340000  0.54310000  1
  C  C132  1  0.99780000  0.44860000  0.39510000  1
  C  C133  1  0.49780000  0.44860000  0.60490000  1
  C  C134  1  0.48220000  0.45920000  0.31490000  1
  C  C135  1  0.98220000  0.45920000  0.68510000  1
  C  C136  1  0.01780000  0.54080000  0.31490000  1
  C  C137  1  0.51780000  0.54080000  0.68510000  1
  C  C138  1  0.50220000  0.55140000  0.39510000  1
  C  C139  1  0.00220000  0.55140000  0.60490000  1
  C  C140  1  0.47710000  0.60660000  0.45690000  1
  C  C141  1  0.97710000  0.60660000  0.54310000  1
  C  C142  1  0.07370000  0.60860000  0.26810000  1
  C  C143  1  0.57370000  0.60860000  0.73190000  1
  C  C144  1  0.55190000  0.62600000  0.17570000  1
  C  C145  1  0.05190000  0.62600000  0.82430000  1
  C  C146  1  0.72810000  0.62710000  0.10710000  1
  C  C147  1  0.22810000  0.62710000  0.89290000  1
  C  C148  1  0.01480000  0.63490000  0.20770000  1
  C  C149  1  0.51480000  0.63490000  0.79230000  1
  C  C150  1  0.18960000  0.65050000  0.28500000  1
  C  C151  1  0.68960000  0.65050000  0.71500000  1
  C  C152  1  0.48960000  0.68940000  0.13470000  1
  C  C153  1  0.98960000  0.68940000  0.86530000  1
  C  C154  1  0.67530000  0.69300000  0.06470000  1
  C  C155  1  0.17530000  0.69300000  0.93530000  1
  C  C156  1  0.07220000  0.70050000  0.16610000  1
  C  C157  1  0.57220000  0.70050000  0.83390000  1
  C  C158  1  0.99640000  0.70080000  0.46420000  1
  C  C159  1  0.49640000  0.70080000  0.53580000  1
  C  C160  1  0.23860000  0.71600000  0.24130000  1
  C  C161  1  0.73860000  0.71600000  0.75870000  1
  C  C162  1  0.55350000  0.72660000  0.07840000  1
  C  C163  1  0.05350000  0.72660000  0.92160000  1
  C  C164  1  0.05350000  0.77340000  0.42160000  1
  C  C165  1  0.55350000  0.77340000  0.57840000  1
  C  C166  1  0.73860000  0.78400000  0.25870000  1
  C  C167  1  0.23860000  0.78400000  0.74130000  1
  C  C168  1  0.49640000  0.79920000  0.03580000  1
  C  C169  1  0.99640000  0.79920000  0.96420000  1
  C  C170  1  0.57220000  0.79950000  0.33390000  1
  C  C171  1  0.07220000  0.79950000  0.66610000  1
  C  C172  1  0.17530000  0.80700000  0.43530000  1
  C  C173  1  0.67530000  0.80700000  0.56470000  1
  C  C174  1  0.98960000  0.81060000  0.36530000  1
  C  C175  1  0.48960000  0.81060000  0.63470000  1
  C  C176  1  0.68960000  0.84950000  0.21500000  1
  C  C177  1  0.18960000  0.84950000  0.78500000  1
  C  C178  1  0.51480000  0.86510000  0.29230000  1
  C  C179  1  0.01480000  0.86510000  0.70770000  1
  C  C180  1  0.22810000  0.87290000  0.39290000  1
  C  C181  1  0.72810000  0.87290000  0.60710000  1
  C  C182  1  0.05190000  0.87400000  0.32430000  1
  C  C183  1  0.55190000  0.87400000  0.67570000  1
  C  C184  1  0.57370000  0.89140000  0.23190000  1
  C  C185  1  0.07370000  0.89140000  0.76810000  1
  C  C186  1  0.97710000  0.89340000  0.04310000  1
  C  C187  1  0.47710000  0.89340000  0.95690000  1
  C  C188  1  0.00220000  0.94860000  0.10490000  1
  C  C189  1  0.50220000  0.94860000  0.89510000  1
  C  C190  1  0.51780000  0.95920000  0.18510000  1
  C  C191  1  0.01780000  0.95920000  0.81490000  1
  N  N192  1  0.10000000  0.00330000  0.19355000  1
  N  N193  1  0.60000000  0.00330000  0.80645000  1
  N  N194  1  0.91780000  0.00970000  0.12976000  1
  N  N195  1  0.41780000  0.00970000  0.87024000  1
  N  N196  1  0.38830000  0.05770000  0.14023000  1
  N  N197  1  0.88830000  0.05770000  0.85977000  1
  N  N198  1  0.62510000  0.09350000  0.00304000  1
  N  N199  1  0.12510000  0.09350000  0.99696000  1
  N  N200  1  0.32960000  0.09470000  0.33589000  1
  N  N201  1  0.82960000  0.09470000  0.66411000  1
  N  N202  1  0.11340000  0.15580000  0.04998000  1
  N  N203  1  0.61340000  0.15580000  0.95002000  1
  N  N204  1  0.44490000  0.17240000  0.02242000  1
  N  N205  1  0.94490000  0.17240000  0.97758000  1
  N  N206  1  0.81760000  0.24210000  0.31770000  1
  N  N207  1  0.31760000  0.24210000  0.68230000  1
  N  N208  1  0.31760000  0.25790000  0.18230000  1
  N  N209  1  0.81760000  0.25790000  0.81770000  1
  N  N210  1  0.94490000  0.32760000  0.47758000  1
  N  N211  1  0.44490000  0.32760000  0.52242000  1
  N  N212  1  0.61340000  0.34420000  0.45002000  1
  N  N213  1  0.11340000  0.34420000  0.54998000  1
  N  N214  1  0.82960000  0.40530000  0.16411000  1
  N  N215  1  0.32960000  0.40530000  0.83589000  1
  N  N216  1  0.12510000  0.40650000  0.49696000  1
  N  N217  1  0.62510000  0.40650000  0.50304000  1
  N  N218  1  0.88830000  0.44230000  0.35977000  1
  N  N219  1  0.38830000  0.44230000  0.64023000  1
  N  N220  1  0.41780000  0.49030000  0.37024000  1
  N  N221  1  0.91780000  0.49030000  0.62976000  1
  N  N222  1  0.60000000  0.49670000  0.30645000  1
  N  N223  1  0.10000000  0.49670000  0.69355000  1
  N  N224  1  0.90000000  0.50330000  0.30645000  1
  N  N225  1  0.40000000  0.50330000  0.69355000  1
  N  N226  1  0.08220000  0.50970000  0.37024000  1
  N  N227  1  0.58220000  0.50970000  0.62976000  1
  N  N228  1  0.61170000  0.55770000  0.35977000  1
  N  N229  1  0.11170000  0.55770000  0.64023000  1
  N  N230  1  0.37490000  0.59350000  0.49696000  1
  N  N231  1  0.87490000  0.59350000  0.50304000  1
  N  N232  1  0.67040000  0.59470000  0.16411000  1
  N  N233  1  0.17040000  0.59470000  0.83589000  1
  N  N234  1  0.88660000  0.65580000  0.45002000  1
  N  N235  1  0.38660000  0.65580000  0.54998000  1
  N  N236  1  0.55510000  0.67240000  0.47758000  1
  N  N237  1  0.05510000  0.67240000  0.52242000  1
  N  N238  1  0.18240000  0.74210000  0.18230000  1
  N  N239  1  0.68240000  0.74210000  0.81770000  1
  N  N240  1  0.68240000  0.75790000  0.31770000  1
  N  N241  1  0.18240000  0.75790000  0.68230000  1
  N  N242  1  0.05510000  0.82760000  0.02242000  1
  N  N243  1  0.55510000  0.82760000  0.97758000  1
  N  N244  1  0.38660000  0.84420000  0.04998000  1
  N  N245  1  0.88660000  0.84420000  0.95002000  1
  N  N246  1  0.17040000  0.90530000  0.33589000  1
  N  N247  1  0.67040000  0.90530000  0.66411000  1
  N  N248  1  0.87490000  0.90650000  0.00304000  1
  N  N249  1  0.37490000  0.90650000  0.99696000  1
  N  N250  1  0.11170000  0.94230000  0.14023000  1
  N  N251  1  0.61170000  0.94230000  0.85977000  1
  N  N252  1  0.58220000  0.99030000  0.12976000  1
  N  N253  1  0.08220000  0.99030000  0.87024000  1
  N  N254  1  0.40000000  0.99670000  0.19355000  1
  N  N255  1  0.90000000  0.99670000  0.80645000  1
