# generated using pymatgen
data_Cr3C42O13
_symmetry_space_group_name_H-M   'P 1'
_cell_length_a   12.16470000
_cell_length_b   12.16470000
_cell_length_c   27.19710000
_cell_angle_alpha   90.00000000
_cell_angle_beta   90.00000000
_cell_angle_gamma   120.00000000
_symmetry_Int_Tables_number   1
_chemical_formula_structural   Cr3C42O13
_chemical_formula_sum   'Cr6 C84 O26'
_cell_volume   3485.42735895
_cell_formula_units_Z   2
loop_
 _symmetry_equiv_pos_site_id
 _symmetry_equiv_pos_as_xyz
  1  'x, y, z'
loop_
 _atom_site_type_symbol
 _atom_site_label
 _atom_site_symmetry_multiplicity
 _atom_site_fract_x
 _atom_site_fract_y
 _atom_site_fract_z
 _atom_site_occupancy
  Cr  Cr0  1  0.81310000  0.30040000  0.25000000  1
  Cr  Cr1  1  0.69960000  0.51270000  0.25000000  1
  Cr  Cr2  1  0.51270000  0.69960000  0.75000000  1
  Cr  Cr3  1  0.48730000  0.18690000  0.25000000  1
  Cr  Cr4  1  0.30040000  0.81310000  0.75000000  1
  Cr  Cr5  1  0.18690000  0.48730000  0.75000000  1
  C  C6  1  0.99810000  0.66100000  0.39270000  1
  C  C7  1  0.99810000  0.66100000  0.10730000  1
  C  C8  1  0.97980000  0.58400000  0.47410000  1
  C  C9  1  0.97980000  0.58400000  0.02590000  1
  C  C10  1  0.95020000  0.62180000  0.94120000  1
  C  C11  1  0.95020000  0.62180000  0.55880000  1
  C  C12  1  0.90940000  0.53790000  0.37350000  1
  C  C13  1  0.90940000  0.53790000  0.12650000  1
  C  C14  1  0.87460000  0.51630000  0.32120000  1
  C  C15  1  0.87460000  0.51630000  0.17880000  1
  C  C16  1  0.85440000  0.49460000  0.46260000  1
  C  C17  1  0.85440000  0.49460000  0.03740000  1
  C  C18  1  0.82350000  0.45340000  0.41180000  1
  C  C19  1  0.82350000  0.45340000  0.08820000  1
  C  C20  1  0.67160000  0.04980000  0.94120000  1
  C  C21  1  0.67160000  0.04980000  0.55880000  1
  C  C22  1  0.66290000  0.00190000  0.39270000  1
  C  C23  1  0.66290000  0.00190000  0.10730000  1
  C  C24  1  0.66100000  0.99810000  0.89270000  1
  C  C25  1  0.66100000  0.99810000  0.60730000  1
  C  C26  1  0.64170000  0.12540000  0.32120000  1
  C  C27  1  0.64170000  0.12540000  0.17880000  1
  C  C28  1  0.64020000  0.14560000  0.46260000  1
  C  C29  1  0.64020000  0.14560000  0.03740000  1
  C  C30  1  0.62990000  0.17650000  0.41180000  1
  C  C31  1  0.62990000  0.17650000  0.08820000  1
  C  C32  1  0.62850000  0.09060000  0.37350000  1
  C  C33  1  0.62850000  0.09060000  0.12650000  1
  C  C34  1  0.62180000  0.95020000  0.44120000  1
  C  C35  1  0.62180000  0.95020000  0.05880000  1
  C  C36  1  0.60420000  0.02020000  0.47410000  1
  C  C37  1  0.60420000  0.02020000  0.02590000  1
  C  C38  1  0.58400000  0.97980000  0.97410000  1
  C  C39  1  0.58400000  0.97980000  0.52590000  1
  C  C40  1  0.54660000  0.37010000  0.41180000  1
  C  C41  1  0.54660000  0.37010000  0.08820000  1
  C  C42  1  0.53790000  0.90940000  0.87350000  1
  C  C43  1  0.53790000  0.90940000  0.62650000  1
  C  C44  1  0.51630000  0.87460000  0.82120000  1
  C  C45  1  0.51630000  0.87460000  0.67880000  1
  C  C46  1  0.50540000  0.35980000  0.46260000  1
  C  C47  1  0.50540000  0.35980000  0.03740000  1
  C  C48  1  0.49460000  0.85440000  0.96260000  1
  C  C49  1  0.49460000  0.85440000  0.53740000  1
  C  C50  1  0.48370000  0.35830000  0.32120000  1
  C  C51  1  0.48370000  0.35830000  0.17880000  1
  C  C52  1  0.46210000  0.37150000  0.37350000  1
  C  C53  1  0.46210000  0.37150000  0.12650000  1
  C  C54  1  0.45340000  0.82350000  0.91180000  1
  C  C55  1  0.45340000  0.82350000  0.58820000  1
  C  C56  1  0.41600000  0.39580000  0.47410000  1
  C  C57  1  0.41600000  0.39580000  0.02590000  1
  C  C58  1  0.39580000  0.41600000  0.97410000  1
  C  C59  1  0.39580000  0.41600000  0.52590000  1
  C  C60  1  0.37820000  0.32840000  0.94120000  1
  C  C61  1  0.37820000  0.32840000  0.55880000  1
  C  C62  1  0.37150000  0.46210000  0.87350000  1
  C  C63  1  0.37150000  0.46210000  0.62650000  1
  C  C64  1  0.37010000  0.54660000  0.91180000  1
  C  C65  1  0.37010000  0.54660000  0.58820000  1
  C  C66  1  0.35980000  0.50540000  0.96260000  1
  C  C67  1  0.35980000  0.50540000  0.53740000  1
  C  C68  1  0.35830000  0.48370000  0.82120000  1
  C  C69  1  0.35830000  0.48370000  0.67880000  1
  C  C70  1  0.33900000  0.33710000  0.39270000  1
  C  C71  1  0.33900000  0.33710000  0.10730000  1
  C  C72  1  0.33710000  0.33900000  0.89270000  1
  C  C73  1  0.33710000  0.33900000  0.60730000  1
  C  C74  1  0.32840000  0.37820000  0.44120000  1
  C  C75  1  0.32840000  0.37820000  0.05880000  1
  C  C76  1  0.17650000  0.62990000  0.91180000  1
  C  C77  1  0.17650000  0.62990000  0.58820000  1
  C  C78  1  0.14560000  0.64020000  0.96260000  1
  C  C79  1  0.14560000  0.64020000  0.53740000  1
  C  C80  1  0.12540000  0.64170000  0.82120000  1
  C  C81  1  0.12540000  0.64170000  0.67880000  1
  C  C82  1  0.09060000  0.62850000  0.87350000  1
  C  C83  1  0.09060000  0.62850000  0.62650000  1
  C  C84  1  0.04980000  0.67160000  0.44120000  1
  C  C85  1  0.04980000  0.67160000  0.05880000  1
  C  C86  1  0.02020000  0.60420000  0.97410000  1
  C  C87  1  0.02020000  0.60420000  0.52590000  1
  C  C88  1  0.00190000  0.66290000  0.89270000  1
  C  C89  1  0.00190000  0.66290000  0.60730000  1
  O  O90  1  0.88180000  0.43230000  0.30180000  1
  O  O91  1  0.88180000  0.43230000  0.19820000  1
  O  O92  1  0.84710000  0.58770000  0.30110000  1
  O  O93  1  0.84710000  0.58770000  0.19890000  1
  O  O94  1  0.74060000  0.15290000  0.30110000  1
  O  O95  1  0.74060000  0.15290000  0.19890000  1
  O  O96  1  0.66666667  0.33333333  0.25000000  1
  O  O97  1  0.58770000  0.84710000  0.80110000  1
  O  O98  1  0.58770000  0.84710000  0.69890000  1
  O  O99  1  0.56770000  0.44950000  0.30180000  1
  O  O100  1  0.56770000  0.44950000  0.19820000  1
  O  O101  1  0.55050000  0.11820000  0.30180000  1
  O  O102  1  0.55050000  0.11820000  0.19820000  1
  O  O103  1  0.44950000  0.56770000  0.80180000  1
  O  O104  1  0.44950000  0.56770000  0.69820000  1
  O  O105  1  0.43230000  0.88180000  0.80180000  1
  O  O106  1  0.43230000  0.88180000  0.69820000  1
  O  O107  1  0.41230000  0.25940000  0.30110000  1
  O  O108  1  0.41230000  0.25940000  0.19890000  1
  O  O109  1  0.33333333  0.66666667  0.75000000  1
  O  O110  1  0.25940000  0.41230000  0.80110000  1
  O  O111  1  0.25940000  0.41230000  0.69890000  1
  O  O112  1  0.15290000  0.74060000  0.80110000  1
  O  O113  1  0.15290000  0.74060000  0.69890000  1
  O  O114  1  0.11820000  0.55050000  0.80180000  1
  O  O115  1  0.11820000  0.55050000  0.69820000  1
