# generated using pymatgen
data_Co2H18C24N4O9
_symmetry_space_group_name_H-M   'P 1'
_cell_length_a   11.47770000
_cell_length_b   13.31640000
_cell_length_c   26.03070000
_cell_angle_alpha   90.00000000
_cell_angle_beta   90.00000000
_cell_angle_gamma   90.00000000
_symmetry_Int_Tables_number   1
_chemical_formula_structural   Co2H18C24N4O9
_chemical_formula_sum   'Co8 H72 C96 N16 O36'
_cell_volume   3978.57498976
_cell_formula_units_Z   4
loop_
 _symmetry_equiv_pos_site_id
 _symmetry_equiv_pos_as_xyz
  1  'x, y, z'
loop_
 _atom_site_type_symbol
 _atom_site_label
 _atom_site_symmetry_multiplicity
 _atom_site_fract_x
 _atom_site_fract_y
 _atom_site_fract_z
 _atom_site_occupancy
  Co  Co0  1  0.10222000  0.95003000  0.13961000  1
  Co  Co1  1  0.15420000  0.55574000  0.42184000  1
  Co  Co2  1  0.34580000  0.44426000  0.92184000  1
  Co  Co3  1  0.39778000  0.04997000  0.63961000  1
  Co  Co4  1  0.60222000  0.54997000  0.86039000  1
  Co  Co5  1  0.65420000  0.94426000  0.57816000  1
  Co  Co6  1  0.84580000  0.05574000  0.07816000  1
  Co  Co7  1  0.89778000  0.45003000  0.36039000  1
  H  H8  1  0.00130000  0.38630000  0.85640000  1
  H  H9  1  0.00930000  0.63880000  0.00270000  1
  H  H10  1  0.01060000  0.68540000  0.83040000  1
  H  H11  1  0.02630000  0.25160000  0.33620000  1
  H  H12  1  0.06520000  0.14350000  0.26800000  1
  H  H13  1  0.07710000  0.14250000  0.94340000  1
  H  H14  1  0.08110000  0.37060000  0.40960000  1
  H  H15  1  0.09380000  0.40490000  0.51080000  1
  H  H16  1  0.10140000  0.51500000  0.95510000  1
  H  H17  1  0.12640000  0.41000000  0.35510000  1
  H  H18  1  0.13870000  0.81270000  0.32250000  1
  H  H19  1  0.16240000  0.92420000  0.25460000  1
  H  H20  1  0.17490000  0.64320000  0.52870000  1
  H  H21  1  0.17780000  0.26580000  0.90020000  1
  H  H22  1  0.17950000  0.28070000  0.56130000  1
  H  H23  1  0.19080000  0.18540000  0.66920000  1
  H  H24  1  0.19920000  0.89320000  0.64940000  1
  H  H25  1  0.23340000  0.23160000  0.07440000  1
  H  H26  1  0.26660000  0.76840000  0.57440000  1
  H  H27  1  0.30080000  0.10680000  0.14940000  1
  H  H28  1  0.30920000  0.81460000  0.16920000  1
  H  H29  1  0.32050000  0.71930000  0.06130000  1
  H  H30  1  0.32220000  0.73420000  0.40020000  1
  H  H31  1  0.32510000  0.35680000  0.02870000  1
  H  H32  1  0.33760000  0.07580000  0.75460000  1
  H  H33  1  0.36130000  0.18730000  0.82250000  1
  H  H34  1  0.37360000  0.59000000  0.85510000  1
  H  H35  1  0.39860000  0.48500000  0.45510000  1
  H  H36  1  0.40620000  0.59510000  0.01080000  1
  H  H37  1  0.41890000  0.62940000  0.90960000  1
  H  H38  1  0.42290000  0.85750000  0.44340000  1
  H  H39  1  0.43480000  0.85650000  0.76800000  1
  H  H40  1  0.47370000  0.74840000  0.83620000  1
  H  H41  1  0.48940000  0.31460000  0.33040000  1
  H  H42  1  0.49070000  0.36120000  0.50270000  1
  H  H43  1  0.49870000  0.61370000  0.35640000  1
  H  H44  1  0.50130000  0.11370000  0.14360000  1
  H  H45  1  0.50930000  0.86120000  0.99730000  1
  H  H46  1  0.51060000  0.81460000  0.16960000  1
  H  H47  1  0.52630000  0.24840000  0.66380000  1
  H  H48  1  0.56520000  0.35650000  0.73200000  1
  H  H49  1  0.57710000  0.35750000  0.05660000  1
  H  H50  1  0.58110000  0.12940000  0.59040000  1
  H  H51  1  0.59380000  0.09510000  0.48920000  1
  H  H52  1  0.60140000  0.98500000  0.04490000  1
  H  H53  1  0.62640000  0.09000000  0.64490000  1
  H  H54  1  0.63870000  0.68730000  0.67750000  1
  H  H55  1  0.66240000  0.57580000  0.74540000  1
  H  H56  1  0.67490000  0.85680000  0.47130000  1
  H  H57  1  0.67780000  0.23420000  0.09980000  1
  H  H58  1  0.67950000  0.21930000  0.43870000  1
  H  H59  1  0.69080000  0.31460000  0.33080000  1
  H  H60  1  0.69920000  0.60680000  0.35060000  1
  H  H61  1  0.73340000  0.26840000  0.92560000  1
  H  H62  1  0.76660000  0.73160000  0.42560000  1
  H  H63  1  0.80080000  0.39320000  0.85060000  1
  H  H64  1  0.80920000  0.68540000  0.83080000  1
  H  H65  1  0.82050000  0.78070000  0.93870000  1
  H  H66  1  0.82220000  0.76580000  0.59980000  1
  H  H67  1  0.82510000  0.14320000  0.97130000  1
  H  H68  1  0.83760000  0.42420000  0.24540000  1
  H  H69  1  0.86130000  0.31270000  0.17750000  1
  H  H70  1  0.87360000  0.91000000  0.14490000  1
  H  H71  1  0.89860000  0.01500000  0.54490000  1
  H  H72  1  0.90620000  0.90490000  0.98920000  1
  H  H73  1  0.91890000  0.87060000  0.09040000  1
  H  H74  1  0.92290000  0.64250000  0.55660000  1
  H  H75  1  0.93480000  0.64350000  0.23200000  1
  H  H76  1  0.97370000  0.75160000  0.16380000  1
  H  H77  1  0.98940000  0.18540000  0.66960000  1
  H  H78  1  0.99070000  0.13880000  0.49730000  1
  H  H79  1  0.99870000  0.88630000  0.64360000  1
  C  C80  1  0.00550000  0.76580000  0.19670000  1
  C  C81  1  0.01520000  0.19950000  0.26300000  1
  C  C82  1  0.02100000  0.63720000  0.32630000  1
  C  C83  1  0.03020000  0.53550000  0.84470000  1
  C  C84  1  0.03050000  0.12440000  0.66400000  1
  C  C85  1  0.03550000  0.71420000  0.28350000  1
  C  C86  1  0.03600000  0.94890000  0.64940000  1
  C  C87  1  0.08630000  0.08910000  0.04420000  1
  C  C88  1  0.09140000  0.63140000  0.00500000  1
  C  C89  1  0.09270000  0.77330000  0.06670000  1
  C  C90  1  0.10280000  0.79950000  0.29030000  1
  C  C91  1  0.11700000  0.86530000  0.24950000  1
  C  C92  1  0.12990000  0.18450000  0.96150000  1
  C  C93  1  0.14700000  0.55780000  0.97630000  1
  C  C94  1  0.14760000  0.17110000  0.01360000  1
  C  C95  1  0.15100000  0.12350000  0.66450000  1
  C  C96  1  0.15410000  0.69350000  0.03660000  1
  C  C97  1  0.15600000  0.95380000  0.65220000  1
  C  C98  1  0.16160000  0.53360000  0.85210000  1
  C  C99  1  0.17580000  0.39560000  0.50900000  1
  C  C100  1  0.18920000  0.25880000  0.93620000  1
  C  C101  1  0.22090000  0.23730000  0.03840000  1
  C  C102  1  0.22430000  0.68880000  0.51090000  1
  C  C103  1  0.22610000  0.32090000  0.53930000  1
  C  C104  1  0.27390000  0.67910000  0.03930000  1
  C  C105  1  0.27570000  0.31120000  0.01090000  1
  C  C106  1  0.27910000  0.76270000  0.53840000  1
  C  C107  1  0.31080000  0.74120000  0.43620000  1
  C  C108  1  0.32420000  0.60440000  0.00900000  1
  C  C109  1  0.33840000  0.46640000  0.35210000  1
  C  C110  1  0.34400000  0.04620000  0.15220000  1
  C  C111  1  0.34590000  0.30650000  0.53660000  1
  C  C112  1  0.34900000  0.87650000  0.16450000  1
  C  C113  1  0.35240000  0.82890000  0.51360000  1
  C  C114  1  0.35300000  0.44220000  0.47630000  1
  C  C115  1  0.37010000  0.81550000  0.46150000  1
  C  C116  1  0.38300000  0.13470000  0.74950000  1
  C  C117  1  0.39720000  0.20050000  0.79030000  1
  C  C118  1  0.40730000  0.22670000  0.56670000  1
  C  C119  1  0.40860000  0.36860000  0.50500000  1
  C  C120  1  0.41370000  0.91090000  0.54420000  1
  C  C121  1  0.46400000  0.05110000  0.14940000  1
  C  C122  1  0.46450000  0.28580000  0.78350000  1
  C  C123  1  0.46950000  0.87560000  0.16400000  1
  C  C124  1  0.46980000  0.46450000  0.34470000  1
  C  C125  1  0.47900000  0.36280000  0.82630000  1
  C  C126  1  0.48480000  0.80050000  0.76300000  1
  C  C127  1  0.49450000  0.23420000  0.69670000  1
  C  C128  1  0.50550000  0.73420000  0.80330000  1
  C  C129  1  0.51520000  0.30050000  0.73700000  1
  C  C130  1  0.52100000  0.86280000  0.67370000  1
  C  C131  1  0.53020000  0.96450000  0.15530000  1
  C  C132  1  0.53050000  0.37560000  0.33600000  1
  C  C133  1  0.53550000  0.78580000  0.71650000  1
  C  C134  1  0.53600000  0.55110000  0.35060000  1
  C  C135  1  0.58630000  0.41090000  0.95580000  1
  C  C136  1  0.59140000  0.86860000  0.99500000  1
  C  C137  1  0.59270000  0.72670000  0.93330000  1
  C  C138  1  0.60280000  0.70050000  0.70970000  1
  C  C139  1  0.61700000  0.63470000  0.75050000  1
  C  C140  1  0.62990000  0.31550000  0.03850000  1
  C  C141  1  0.64700000  0.94220000  0.02370000  1
  C  C142  1  0.64760000  0.32890000  0.98640000  1
  C  C143  1  0.65100000  0.37650000  0.33550000  1
  C  C144  1  0.65410000  0.80650000  0.96340000  1
  C  C145  1  0.65600000  0.54620000  0.34780000  1
  C  C146  1  0.66160000  0.96640000  0.14790000  1
  C  C147  1  0.67580000  0.10440000  0.49100000  1
  C  C148  1  0.68920000  0.24120000  0.06380000  1
  C  C149  1  0.72090000  0.26270000  0.96160000  1
  C  C150  1  0.72430000  0.81120000  0.48910000  1
  C  C151  1  0.72610000  0.17910000  0.46070000  1
  C  C152  1  0.77390000  0.82090000  0.96070000  1
  C  C153  1  0.77570000  0.18880000  0.98910000  1
  C  C154  1  0.77910000  0.73730000  0.46160000  1
  C  C155  1  0.81080000  0.75880000  0.56380000  1
  C  C156  1  0.82420000  0.89560000  0.99100000  1
  C  C157  1  0.83840000  0.03360000  0.64790000  1
  C  C158  1  0.84400000  0.45380000  0.84780000  1
  C  C159  1  0.84590000  0.19350000  0.46340000  1
  C  C160  1  0.84900000  0.62350000  0.83550000  1
  C  C161  1  0.85240000  0.67110000  0.48640000  1
  C  C162  1  0.85300000  0.05780000  0.52370000  1
  C  C163  1  0.87010000  0.68450000  0.53850000  1
  C  C164  1  0.88300000  0.36530000  0.25050000  1
  C  C165  1  0.89720000  0.29950000  0.20970000  1
  C  C166  1  0.90730000  0.27330000  0.43330000  1
  C  C167  1  0.90860000  0.13140000  0.49500000  1
  C  C168  1  0.91370000  0.58910000  0.45580000  1
  C  C169  1  0.96400000  0.44890000  0.85060000  1
  C  C170  1  0.96450000  0.21420000  0.21650000  1
  C  C171  1  0.96950000  0.62440000  0.83600000  1
  C  C172  1  0.96980000  0.03550000  0.65530000  1
  C  C173  1  0.97900000  0.13720000  0.17370000  1
  C  C174  1  0.98480000  0.69950000  0.23700000  1
  C  C175  1  0.99450000  0.26580000  0.30330000  1
  N  N176  1  0.06960000  0.84950000  0.20323000  1
  N  N177  1  0.21440000  0.03990000  0.65860000  1
  N  N178  1  0.23690000  0.45490000  0.47736000  1
  N  N179  1  0.23770000  0.67810000  0.45972000  1
  N  N180  1  0.26230000  0.32190000  0.95972000  1
  N  N181  1  0.26310000  0.54510000  0.97736000  1
  N  N182  1  0.28560000  0.96010000  0.15860000  1
  N  N183  1  0.43040000  0.15050000  0.70323000  1
  N  N184  1  0.56960000  0.65050000  0.79677000  1
  N  N185  1  0.71440000  0.46010000  0.34140000  1
  N  N186  1  0.73690000  0.04510000  0.52264000  1
  N  N187  1  0.73770000  0.82190000  0.54028000  1
  N  N188  1  0.76230000  0.17810000  0.04028000  1
  N  N189  1  0.76310000  0.95490000  0.02264000  1
  N  N190  1  0.78560000  0.53990000  0.84140000  1
  N  N191  1  0.93040000  0.34950000  0.29677000  1
  O  O192  1  0.01370000  0.27970000  0.43940000  1
  O  O193  1  0.01450000  0.56610000  0.47122000  1
  O  O194  1  0.05020000  0.06830000  0.18345000  1
  O  O195  1  0.07850000  0.42800000  0.38541000  1
  O  O196  1  0.07890000  0.65090000  0.36616000  1
  O  O197  1  0.14010000  0.05330000  0.08094000  1
  O  O198  1  0.15490000  0.82930000  0.09454000  1
  O  O199  1  0.20200000  0.45710000  0.87320000  1
  O  O200  1  0.21810000  0.60960000  0.83840000  1
  O  O201  1  0.28190000  0.39040000  0.33840000  1
  O  O202  1  0.29800000  0.54290000  0.37320000  1
  O  O203  1  0.34510000  0.17070000  0.59454000  1
  O  O204  1  0.35990000  0.94670000  0.58094000  1
  O  O205  1  0.42110000  0.34910000  0.86616000  1
  O  O206  1  0.42150000  0.57200000  0.88541000  1
  O  O207  1  0.44980000  0.93170000  0.68345000  1
  O  O208  1  0.48550000  0.43390000  0.97122000  1
  O  O209  1  0.48630000  0.72030000  0.93940000  1
  O  O210  1  0.51370000  0.22030000  0.56060000  1
  O  O211  1  0.51450000  0.93390000  0.52878000  1
  O  O212  1  0.55020000  0.43170000  0.81655000  1
  O  O213  1  0.57850000  0.07200000  0.61459000  1
  O  O214  1  0.57890000  0.84910000  0.63384000  1
  O  O215  1  0.64010000  0.44670000  0.91906000  1
  O  O216  1  0.65490000  0.67070000  0.90546000  1
  O  O217  1  0.70200000  0.04290000  0.12680000  1
  O  O218  1  0.71810000  0.89040000  0.16160000  1
  O  O219  1  0.78190000  0.10960000  0.66160000  1
  O  O220  1  0.79800000  0.95710000  0.62680000  1
  O  O221  1  0.84510000  0.32930000  0.40546000  1
  O  O222  1  0.85990000  0.55330000  0.41906000  1
  O  O223  1  0.92110000  0.15090000  0.13384000  1
  O  O224  1  0.92150000  0.92800000  0.11459000  1
  O  O225  1  0.94980000  0.56830000  0.31655000  1
  O  O226  1  0.98550000  0.06610000  0.02878000  1
  O  O227  1  0.98630000  0.77970000  0.06060000  1
