# generated using pymatgen
data_SmH24C48(NO2)4
_symmetry_space_group_name_H-M   'P 1'
_cell_length_a   9.61870000
_cell_length_b   13.89340000
_cell_length_c   17.23450000
_cell_angle_alpha   98.05800000
_cell_angle_beta   90.45700000
_cell_angle_gamma   90.59900000
_symmetry_Int_Tables_number   1
_chemical_formula_structural   SmH24C48(NO2)4
_chemical_formula_sum   'Sm2 H48 C96 N8 O16'
_cell_volume   2280.18921776
_cell_formula_units_Z   2
loop_
 _symmetry_equiv_pos_site_id
 _symmetry_equiv_pos_as_xyz
  1  'x, y, z'
loop_
 _atom_site_type_symbol
 _atom_site_label
 _atom_site_symmetry_multiplicity
 _atom_site_fract_x
 _atom_site_fract_y
 _atom_site_fract_z
 _atom_site_occupancy
  Sm  Sm0  1  0.22966000  0.09955000  0.98572000  1
  Sm  Sm1  1  0.77034000  0.90045000  0.01428000  1
  H  H2  1  0.01450000  0.73330000  0.38760000  1
  H  H3  1  0.03710000  0.47840000  0.25160000  1
  H  H4  1  0.04160000  0.85170000  0.30490000  1
  H  H5  1  0.06300000  0.16820000  0.81820000  1
  H  H6  1  0.07440000  0.94850000  0.55250000  1
  H  H7  1  0.08570000  0.30690000  0.26060000  1
  H  H8  1  0.09670000  0.86530000  0.75820000  1
  H  H9  1  0.18960000  0.13890000  0.41640000  1
  H  H10  1  0.22120000  0.42780000  0.77840000  1
  H  H11  1  0.24280000  0.94380000  0.44220000  1
  H  H12  1  0.26200000  0.98730000  0.20150000  1
  H  H13  1  0.27100000  0.24870000  0.58340000  1
  H  H14  1  0.30470000  0.83780000  0.68630000  1
  H  H15  1  0.30570000  0.01750000  0.62120000  1
  H  H16  1  0.31420000  0.33430000  0.23800000  1
  H  H17  1  0.32390000  0.02400000  0.75730000  1
  H  H18  1  0.33070000  0.03550000  0.33200000  1
  H  H19  1  0.34790000  0.79010000  0.23940000  1
  H  H20  1  0.38990000  0.70690000  0.60160000  1
  H  H21  1  0.39140000  0.23590000  0.45510000  1
  H  H22  1  0.41480000  0.88710000  0.80780000  1
  H  H23  1  0.46070000  0.10720000  0.55480000  1
  H  H24  1  0.47080000  0.51770000  0.73820000  1
  H  H25  1  0.47370000  0.33660000  0.72910000  1
  H  H26  1  0.52630000  0.66340000  0.27090000  1
  H  H27  1  0.52920000  0.48230000  0.26180000  1
  H  H28  1  0.53930000  0.89280000  0.44520000  1
  H  H29  1  0.58520000  0.11290000  0.19220000  1
  H  H30  1  0.60860000  0.76410000  0.54490000  1
  H  H31  1  0.61010000  0.29310000  0.39840000  1
  H  H32  1  0.65210000  0.20990000  0.76060000  1
  H  H33  1  0.66930000  0.96450000  0.66800000  1
  H  H34  1  0.67610000  0.97600000  0.24270000  1
  H  H35  1  0.68580000  0.66570000  0.76200000  1
  H  H36  1  0.69430000  0.98250000  0.37880000  1
  H  H37  1  0.69530000  0.16220000  0.31370000  1
  H  H38  1  0.72900000  0.75130000  0.41660000  1
  H  H39  1  0.73800000  0.01270000  0.79850000  1
  H  H40  1  0.75720000  0.05620000  0.55780000  1
  H  H41  1  0.77880000  0.57220000  0.22160000  1
  H  H42  1  0.81040000  0.86110000  0.58360000  1
  H  H43  1  0.90330000  0.13470000  0.24180000  1
  H  H44  1  0.91430000  0.69310000  0.73940000  1
  H  H45  1  0.92560000  0.05150000  0.44750000  1
  H  H46  1  0.93700000  0.83180000  0.18180000  1
  H  H47  1  0.95840000  0.14830000  0.69510000  1
  H  H48  1  0.96290000  0.52160000  0.74840000  1
  H  H49  1  0.98550000  0.26670000  0.61240000  1
  C  C50  1  0.00250000  0.44220000  0.29030000  1
  C  C51  1  0.00870000  0.88340000  0.74000000  1
  C  C52  1  0.01280000  0.20490000  0.71200000  1
  C  C53  1  0.02700000  0.01880000  0.12870000  1
  C  C54  1  0.02870000  0.34830000  0.29520000  1
  C  C55  1  0.02990000  0.27510000  0.66240000  1
  C  C56  1  0.03440000  0.15250000  0.33610000  1
  C  C57  1  0.04410000  0.67900000  0.63840000  1
  C  C58  1  0.04520000  0.77120000  0.61390000  1
  C  C59  1  0.07420000  0.05540000  0.21080000  1
  C  C60  1  0.07420000  0.21690000  0.78510000  1
  C  C61  1  0.08720000  0.52200000  0.64610000  1
  C  C62  1  0.11200000  0.35810000  0.68570000  1
  C  C63  1  0.11810000  0.79640000  0.54910000  1
  C  C64  1  0.12400000  0.89350000  0.52860000  1
  C  C65  1  0.14160000  0.42810000  0.62980000  1
  C  C66  1  0.15280000  0.30030000  0.81070000  1
  C  C67  1  0.16100000  0.11920000  0.36360000  1
  C  C68  1  0.16930000  0.37020000  0.76060000  1
  C  C69  1  0.20320000  0.02690000  0.23630000  1
  C  C70  1  0.21520000  0.89080000  0.46810000  1
  C  C71  1  0.21840000  0.31390000  0.89120000  1
  C  C72  1  0.22220000  0.39510000  0.56470000  1
  C  C73  1  0.24490000  0.05710000  0.31330000  1
  C  C74  1  0.26140000  0.79140000  0.45100000  1
  C  C75  1  0.27880000  0.29780000  0.55050000  1
  C  C76  1  0.33230000  0.38480000  0.45330000  1
  C  C77  1  0.34510000  0.29130000  0.48100000  1
  C  C78  1  0.35300000  0.75940000  0.39020000  1
  C  C79  1  0.36850000  0.18560000  0.12730000  1
  C  C80  1  0.37600000  0.05650000  0.64950000  1
  C  C81  1  0.38340000  0.80370000  0.70130000  1
  C  C82  1  0.38580000  0.66170000  0.36600000  1
  C  C83  1  0.38680000  0.06040000  0.73035000  1
  C  C84  1  0.38980000  0.40640000  0.38330000  1
  C  C85  1  0.39020000  0.29840000  0.25400000  1
  C  C86  1  0.39700000  0.50000000  0.36120000  1
  C  C87  1  0.41820000  0.82918000  0.26772000  1
  C  C88  1  0.42910000  0.83302000  0.34857000  1
  C  C89  1  0.43410000  0.72580000  0.65100000  1
  C  C90  1  0.44010000  0.21940000  0.20340000  1
  C  C91  1  0.44780000  0.83240000  0.77400000  1
  C  C92  1  0.45080000  0.32530000  0.32800000  1
  C  C93  1  0.46810000  0.10980000  0.61004000  1
  C  C94  1  0.47700000  0.62540000  0.30350000  1
  C  C95  1  0.48030000  0.52580000  0.29920000  1
  C  C96  1  0.48970000  0.11750000  0.77174000  1
  C  C97  1  0.49620000  0.88090000  0.14120000  1
  C  C98  1  0.50380000  0.11910000  0.85880000  1
  C  C99  1  0.51030000  0.88250000  0.22826000  1
  C  C100  1  0.51970000  0.47420000  0.70080000  1
  C  C101  1  0.52300000  0.37460000  0.69650000  1
  C  C102  1  0.53190000  0.89020000  0.38996000  1
  C  C103  1  0.54920000  0.67470000  0.67200000  1
  C  C104  1  0.55220000  0.16760000  0.22600000  1
  C  C105  1  0.55990000  0.78060000  0.79660000  1
  C  C106  1  0.56590000  0.27420000  0.34900000  1
  C  C107  1  0.57090000  0.16698000  0.65143000  1
  C  C108  1  0.58180000  0.17082000  0.73228000  1
  C  C109  1  0.60300000  0.50000000  0.63880000  1
  C  C110  1  0.60980000  0.70160000  0.74600000  1
  C  C111  1  0.61020000  0.59360000  0.61670000  1
  C  C112  1  0.61320000  0.93960000  0.26965000  1
  C  C113  1  0.61420000  0.33830000  0.63400000  1
  C  C114  1  0.61660000  0.19630000  0.29870000  1
  C  C115  1  0.62400000  0.94350000  0.35050000  1
  C  C116  1  0.63150000  0.81440000  0.87270000  1
  C  C117  1  0.64700000  0.24060000  0.60980000  1
  C  C118  1  0.65490000  0.70870000  0.51900000  1
  C  C119  1  0.66770000  0.61520000  0.54670000  1
  C  C120  1  0.72120000  0.70220000  0.44950000  1
  C  C121  1  0.73860000  0.20860000  0.54900000  1
  C  C122  1  0.75510000  0.94290000  0.68670000  1
  C  C123  1  0.77780000  0.60490000  0.43530000  1
  C  C124  1  0.78160000  0.68610000  0.10880000  1
  C  C125  1  0.78480000  0.10920000  0.53190000  1
  C  C126  1  0.79680000  0.97310000  0.76370000  1
  C  C127  1  0.83070000  0.62980000  0.23940000  1
  C  C128  1  0.83900000  0.88080000  0.63640000  1
  C  C129  1  0.84720000  0.69970000  0.18930000  1
  C  C130  1  0.85840000  0.57190000  0.37020000  1
  C  C131  1  0.87600000  0.10650000  0.47140000  1
  C  C132  1  0.88190000  0.20360000  0.45090000  1
  C  C133  1  0.88800000  0.64190000  0.31430000  1
  C  C134  1  0.91280000  0.47800000  0.35390000  1
  C  C135  1  0.92580000  0.78310000  0.21490000  1
  C  C136  1  0.92580000  0.94460000  0.78920000  1
  C  C137  1  0.95480000  0.22880000  0.38610000  1
  C  C138  1  0.95590000  0.32100000  0.36160000  1
  C  C139  1  0.96560000  0.84750000  0.66390000  1
  C  C140  1  0.97010000  0.72490000  0.33760000  1
  C  C141  1  0.97130000  0.65170000  0.70480000  1
  C  C142  1  0.97300000  0.98120000  0.87130000  1
  C  C143  1  0.98720000  0.79510000  0.28800000  1
  C  C144  1  0.99130000  0.11660000  0.26000000  1
  C  C145  1  0.99750000  0.55780000  0.70970000  1
  N  N146  1  0.11230000  0.59710000  0.60340000  1
  N  N147  1  0.20060000  0.73480000  0.50070000  1
  N  N148  1  0.25760000  0.44800000  0.50590000  1
  N  N149  1  0.33930000  0.58280000  0.39970000  1
  N  N150  1  0.66070000  0.41720000  0.60030000  1
  N  N151  1  0.74240000  0.55200000  0.49410000  1
  N  N152  1  0.79940000  0.26520000  0.49930000  1
  N  N153  1  0.88770000  0.40290000  0.39660000  1
  O  O154  1  0.09800000  0.00400000  0.88284000  1
  O  O155  1  0.11820000  0.01100000  0.07508000  1
  O  O156  1  0.21850000  0.24320000  0.92930000  1
  O  O157  1  0.25640000  0.22440000  0.10918000  1
  O  O158  1  0.26610000  0.39590000  0.91900000  1
  O  O159  1  0.38750000  0.84460000  0.10730000  1
  O  O160  1  0.40580000  0.08330000  0.89384000  1
  O  O161  1  0.42070000  0.11670000  0.08121000  1
  O  O162  1  0.57930000  0.88330000  0.91879000  1
  O  O163  1  0.59420000  0.91670000  0.10616000  1
  O  O164  1  0.61250000  0.15540000  0.89270000  1
  O  O165  1  0.73390000  0.60410000  0.08100000  1
  O  O166  1  0.74360000  0.77560000  0.89082000  1
  O  O167  1  0.78150000  0.75680000  0.07070000  1
  O  O168  1  0.88180000  0.98900000  0.92492000  1
  O  O169  1  0.90200000  0.99600000  0.11716000  1
