# generated using pymatgen
data_Sr3H6C14N2O11
_symmetry_space_group_name_H-M   'P 1'
_cell_length_a   6.89530000
_cell_length_b   10.12260000
_cell_length_c   20.24060000
_cell_angle_alpha   92.70300000
_cell_angle_beta   90.00000000
_cell_angle_gamma   109.91300000
_symmetry_Int_Tables_number   1
_chemical_formula_structural   Sr3H6C14N2O11
_chemical_formula_sum   'Sr6 H12 C28 N4 O22'
_cell_volume   1326.62112534
_cell_formula_units_Z   2
loop_
 _symmetry_equiv_pos_site_id
 _symmetry_equiv_pos_as_xyz
  1  'x, y, z'
loop_
 _atom_site_type_symbol
 _atom_site_label
 _atom_site_symmetry_multiplicity
 _atom_site_fract_x
 _atom_site_fract_y
 _atom_site_fract_z
 _atom_site_occupancy
  Sr  Sr0  1  0.00000000  0.50000000  0.50000000  1
  Sr  Sr1  1  0.09488000  0.84336000  0.68140000  1
  Sr  Sr2  1  0.25152000  0.15664000  0.81859000  1
  Sr  Sr3  1  0.50000000  0.50000000  0.00000000  1
  Sr  Sr4  1  0.74848000  0.84336000  0.18140000  1
  Sr  Sr5  1  0.90512000  0.15664000  0.31859000  1
  H  H6  1  0.03940000  0.70480000  0.26540000  1
  H  H7  1  0.07660000  0.54120000  0.90140000  1
  H  H8  1  0.14160000  0.96120000  0.28150000  1
  H  H9  1  0.18040000  0.03880000  0.21850000  1
  H  H10  1  0.33460000  0.29520000  0.23460000  1
  H  H11  1  0.46460000  0.54120000  0.40140000  1
  H  H12  1  0.53540000  0.45880000  0.59860000  1
  H  H13  1  0.66540000  0.70480000  0.76540000  1
  H  H14  1  0.81960000  0.96120000  0.78150000  1
  H  H15  1  0.85840000  0.03880000  0.71850000  1
  H  H16  1  0.92340000  0.45880000  0.09860000  1
  H  H17  1  0.96060000  0.29520000  0.73460000  1
  C  C18  1  0.00095000  0.61770000  0.24315000  1
  C  C19  1  0.01401000  0.39042000  0.82595000  1
  C  C20  1  0.02977000  0.49734000  0.64768000  1
  C  C21  1  0.04095000  0.50230000  0.72196000  1
  C  C22  1  0.06731000  0.52682000  0.85631000  1
  C  C23  1  0.10620000  0.64140000  0.81764000  1
  C  C24  1  0.16293000  0.79006000  0.84788000  1
  C  C25  1  0.37287000  0.20994000  0.65212000  1
  C  C26  1  0.37641000  0.39042000  0.32595000  1
  C  C27  1  0.38325000  0.38230000  0.25685000  1
  C  C28  1  0.45951000  0.52682000  0.35631000  1
  C  C29  1  0.46135000  0.50230000  0.22196000  1
  C  C30  1  0.46480000  0.35860000  0.68236000  1
  C  C31  1  0.46757000  0.49734000  0.14768000  1
  C  C32  1  0.53243000  0.50266000  0.85232000  1
  C  C33  1  0.53520000  0.64140000  0.31764000  1
  C  C34  1  0.53865000  0.49770000  0.77804000  1
  C  C35  1  0.54049000  0.47318000  0.64369000  1
  C  C36  1  0.61675000  0.61770000  0.74315000  1
  C  C37  1  0.62359000  0.60958000  0.67405000  1
  C  C38  1  0.62713000  0.79006000  0.34788000  1
  C  C39  1  0.83707000  0.20994000  0.15212000  1
  C  C40  1  0.89380000  0.35860000  0.18236000  1
  C  C41  1  0.93269000  0.47318000  0.14369000  1
  C  C42  1  0.95905000  0.49770000  0.27804000  1
  C  C43  1  0.97023000  0.50266000  0.35232000  1
  C  C44  1  0.98599000  0.60958000  0.17405000  1
  C  C45  1  0.99905000  0.38230000  0.75685000  1
  N  N46  1  0.09459000  0.63198000  0.75135000  1
  N  N47  1  0.46261000  0.36802000  0.74865000  1
  N  N48  1  0.53739000  0.63198000  0.25135000  1
  N  N49  1  0.90541000  0.36802000  0.24865000  1
  O  O50  1  0.01471000  0.72222000  0.14023000  1
  O  O51  1  0.01700000  0.61780000  0.38430000  1
  O  O52  1  0.06816000  0.61232000  0.62008000  1
  O  O53  1  0.09770000  0.00000000  0.25000000  1
  O  O54  1  0.17856000  0.80752000  0.90979000  1
  O  O55  1  0.18822000  0.88704000  0.80878000  1
  O  O56  1  0.29249000  0.27778000  0.35977000  1
  O  O57  1  0.30118000  0.11296000  0.69122000  1
  O  O58  1  0.37104000  0.19248000  0.59021000  1
  O  O59  1  0.39920000  0.38220000  0.11570000  1
  O  O60  1  0.45584000  0.38768000  0.87992000  1
  O  O61  1  0.54416000  0.61232000  0.12008000  1
  O  O62  1  0.60080000  0.61780000  0.88430000  1
  O  O63  1  0.62896000  0.80752000  0.40979000  1
  O  O64  1  0.69882000  0.88704000  0.30878000  1
  O  O65  1  0.70751000  0.72222000  0.64023000  1
  O  O66  1  0.81178000  0.11296000  0.19122000  1
  O  O67  1  0.82144000  0.19248000  0.09021000  1
  O  O68  1  0.90230000  0.00000000  0.75000000  1
  O  O69  1  0.93184000  0.38768000  0.37992000  1
  O  O70  1  0.98300000  0.38220000  0.61570000  1
  O  O71  1  0.98529000  0.27778000  0.85977000  1
