# generated using pymatgen
data_Zn23H144C252(N9O20)4
_symmetry_space_group_name_H-M   'P 1'
_cell_length_a   26.65500000
_cell_length_b   26.65500000
_cell_length_c   32.28100000
_cell_angle_alpha   65.61550000
_cell_angle_beta   65.61550000
_cell_angle_gamma   60.00000000
_symmetry_Int_Tables_number   1
_chemical_formula_structural   Zn23H144C252(N9O20)4
_chemical_formula_sum   'Zn46 H288 C504 N72 O160'
_cell_volume   17460.19723539
_cell_formula_units_Z   2
loop_
 _symmetry_equiv_pos_site_id
 _symmetry_equiv_pos_as_xyz
  1  'x, y, z'
loop_
 _atom_site_type_symbol
 _atom_site_label
 _atom_site_symmetry_multiplicity
 _atom_site_fract_x
 _atom_site_fract_y
 _atom_site_fract_z
 _atom_site_occupancy
  Zn  Zn0  1  0.17464000  0.93797000  0.26612000  1
  Zn  Zn1  1  0.24463000  0.90031000  0.73352000  1
  Zn  Zn2  1  0.32536000  0.87873000  0.23388000  1
  Zn  Zn3  1  0.09969000  0.87846000  0.26648000  1
  Zn  Zn4  1  0.72475000  0.85297000  0.59948000  1
  Zn  Zn5  1  0.83162000  0.83162000  0.50514000  1
  Zn  Zn6  1  0.37873000  0.82536000  0.73388000  1
  Zn  Zn7  1  0.85297000  0.82280000  0.59948000  1
  Zn  Zn8  1  0.25000000  0.78473000  0.25000000  1
  Zn  Zn9  1  0.64703000  0.77525000  0.90052000  1
  Zn  Zn10  1  0.87846000  0.75537000  0.26648000  1
  Zn  Zn11  1  0.28473000  0.75000000  0.75000000  1
  Zn  Zn12  1  0.40031000  0.74463000  0.23352000  1
  Zn  Zn13  1  0.82280000  0.72475000  0.59948000  1
  Zn  Zn14  1  0.78473000  0.71527000  0.25000000  1
  Zn  Zn15  1  0.77525000  0.67720000  0.90052000  1
  Zn  Zn16  1  0.43797000  0.67464000  0.76612000  1
  Zn  Zn17  1  0.66838000  0.66838000  0.99486000  1
  Zn  Zn18  1  0.67720000  0.64703000  0.90052000  1
  Zn  Zn19  1  0.74463000  0.62154000  0.23352000  1
  Zn  Zn20  1  0.93797000  0.62127000  0.26612000  1
  Zn  Zn21  1  0.37846000  0.59969000  0.76648000  1
  Zn  Zn22  1  0.87873000  0.56203000  0.23388000  1
  Zn  Zn23  1  0.12127000  0.43797000  0.76612000  1
  Zn  Zn24  1  0.62154000  0.40031000  0.23352000  1
  Zn  Zn25  1  0.06203000  0.37873000  0.73388000  1
  Zn  Zn26  1  0.25537000  0.37846000  0.76648000  1
  Zn  Zn27  1  0.32280000  0.35297000  0.09948000  1
  Zn  Zn28  1  0.33162000  0.33162000  0.00514000  1
  Zn  Zn29  1  0.56203000  0.32536000  0.23388000  1
  Zn  Zn30  1  0.22475000  0.32280000  0.09948000  1
  Zn  Zn31  1  0.21527000  0.28473000  0.75000000  1
  Zn  Zn32  1  0.17720000  0.27525000  0.40052000  1
  Zn  Zn33  1  0.59969000  0.25537000  0.76648000  1
  Zn  Zn34  1  0.71527000  0.25000000  0.25000000  1
  Zn  Zn35  1  0.12154000  0.24463000  0.73352000  1
  Zn  Zn36  1  0.35297000  0.22475000  0.09948000  1
  Zn  Zn37  1  0.75000000  0.21527000  0.75000000  1
  Zn  Zn38  1  0.14703000  0.17720000  0.40052000  1
  Zn  Zn39  1  0.62127000  0.17464000  0.26612000  1
  Zn  Zn40  1  0.16838000  0.16838000  0.49486000  1
  Zn  Zn41  1  0.27525000  0.14703000  0.40052000  1
  Zn  Zn42  1  0.90031000  0.12154000  0.73352000  1
  Zn  Zn43  1  0.67464000  0.12127000  0.76612000  1
  Zn  Zn44  1  0.75537000  0.09969000  0.26648000  1
  Zn  Zn45  1  0.82536000  0.06203000  0.73388000  1
  H  H46  1  0.82310000  0.99880000  0.01350000  1
  H  H47  1  0.82090000  0.99760000  0.43250000  1
  H  H48  1  0.59340000  0.99400000  0.87170000  1
  H  H49  1  0.73270000  0.99310000  0.41360000  1
  H  H50  1  0.77800000  0.99290000  0.51050000  1
  H  H51  1  0.43760000  0.98230000  0.36570000  1
  H  H52  1  0.18690000  0.98030000  0.44930000  1
  H  H53  1  0.59730000  0.97960000  0.52850000  1
  H  H54  1  0.37030000  0.97800000  0.94690000  1
  H  H55  1  0.33420000  0.97300000  0.39980000  1
  H  H56  1  0.10180000  0.97150000  0.60680000  1
  H  H57  1  0.95980000  0.96540000  0.66460000  1
  H  H58  1  0.81920000  0.96410000  0.85270000  1
  H  H59  1  0.78950000  0.96040000  0.67040000  1
  H  H60  1  0.41020000  0.95980000  0.66460000  1
  H  H61  1  0.90660000  0.95910000  0.62830000  1
  H  H62  1  0.05540000  0.95690000  0.75380000  1
  H  H63  1  0.61240000  0.95570000  0.31440000  1
  H  H64  1  0.70350000  0.94640000  0.02040000  1
  H  H65  1  0.76610000  0.94460000  0.24620000  1
  H  H66  1  0.06820000  0.94080000  0.56960000  1
  H  H67  1  0.39500000  0.93840000  0.09030000  1
  H  H68  1  0.48230000  0.93760000  0.86570000  1
  H  H69  1  0.38310000  0.93550000  0.79670000  1
  H  H70  1  0.58250000  0.93520000  0.61300000  1
  H  H71  1  0.79970000  0.93260000  0.00390000  1
  H  H72  1  0.57860000  0.93180000  0.43040000  1
  H  H73  1  0.25370000  0.92920000  0.94570000  1
  H  H74  1  0.10500000  0.92370000  0.40970000  1
  H  H75  1  0.56820000  0.92140000  0.06960000  1
  H  H76  1  0.71050000  0.92030000  0.82960000  1
  H  H77  1  0.56480000  0.91750000  0.88700000  1
  H  H78  1  0.45980000  0.91020000  0.16460000  1
  H  H79  1  0.50600000  0.90660000  0.62830000  1
  H  H80  1  0.52040000  0.90270000  0.97150000  1
  H  H81  1  0.68010000  0.89820000  0.39320000  1
  H  H82  1  0.43840000  0.89500000  0.59030000  1
  H  H83  1  0.97960000  0.89460000  0.52850000  1
  H  H84  1  0.67880000  0.89090000  0.20810000  1
  H  H85  1  0.54430000  0.88760000  0.18560000  1
  H  H86  1  0.93550000  0.88470000  0.79670000  1
  H  H87  1  0.68690000  0.88350000  0.94930000  1
  H  H88  1  0.43550000  0.88310000  0.29670000  1
  H  H89  1  0.04430000  0.88250000  0.68560000  1
  H  H90  1  0.92920000  0.87140000  0.94570000  1
  H  H91  1  0.47800000  0.87030000  0.44690000  1
  H  H92  1  0.93520000  0.86930000  0.61300000  1
  H  H93  1  0.31920000  0.86400000  0.35270000  1
  H  H94  1  0.99310000  0.86060000  0.41360000  1
  H  H95  1  0.00120000  0.83540000  0.98650000  1
  H  H96  1  0.47300000  0.83420000  0.89980000  1
  H  H97  1  0.20350000  0.82970000  0.52040000  1
  H  H98  1  0.16460000  0.82310000  0.01350000  1
  H  H99  1  0.60910000  0.82120000  0.29190000  1
  H  H100  1  0.74900000  0.82090000  0.43250000  1
  H  H101  1  0.60180000  0.81990000  0.10680000  1
  H  H102  1  0.36400000  0.81920000  0.85270000  1
  H  H103  1  0.61650000  0.81310000  0.55070000  1
  H  H104  1  0.26380000  0.79970000  0.00390000  1
  H  H105  1  0.55360000  0.79650000  0.47960000  1
  H  H106  1  0.12970000  0.79520000  0.55310000  1
  H  H107  1  0.83420000  0.79300000  0.89980000  1
  H  H108  1  0.57970000  0.78950000  0.67040000  1
  H  H109  1  0.01770000  0.78560000  0.63430000  1
  H  H110  1  0.72200000  0.78140000  0.98950000  1
  H  H111  1  0.71860000  0.77800000  0.51050000  1
  H  H112  1  0.10910000  0.77780000  0.79190000  1
  H  H113  1  0.50690000  0.76730000  0.08640000  1
  H  H114  1  0.04310000  0.76610000  0.24620000  1
  H  H115  1  0.29970000  0.76380000  0.50390000  1
  H  H116  1  0.42920000  0.75370000  0.44570000  1
  H  H117  1  0.67910000  0.75100000  0.06750000  1
  H  H118  1  0.99760000  0.74900000  0.43250000  1
  H  H119  1  0.12860000  0.74630000  0.05430000  1
  H  H120  1  0.06740000  0.73620000  0.99610000  1
  H  H121  1  0.55540000  0.73390000  0.25380000  1
  H  H122  1  0.86060000  0.73270000  0.41360000  1
  H  H123  1  0.17880000  0.72220000  0.70810000  1
  H  H124  1  0.50710000  0.72200000  0.98950000  1
  H  H125  1  0.99290000  0.71860000  0.51050000  1
  H  H126  1  0.93760000  0.71440000  0.86570000  1
  H  H127  1  0.53960000  0.71050000  0.82960000  1
  H  H128  1  0.02700000  0.70700000  0.60020000  1
  H  H129  1  0.97800000  0.70480000  0.94690000  1
  H  H130  1  0.32970000  0.70350000  0.02040000  1
  H  H131  1  0.56740000  0.70030000  0.49610000  1
  H  H132  1  0.48030000  0.68690000  0.94930000  1
  H  H133  1  0.53590000  0.68080000  0.64730000  1
  H  H134  1  0.02850000  0.68010000  0.39320000  1
  H  H135  1  0.50240000  0.67910000  0.06750000  1
  H  H136  1  0.22220000  0.67880000  0.20810000  1
  H  H137  1  0.50120000  0.67690000  0.48650000  1
  H  H138  1  0.05360000  0.67030000  0.97960000  1
  H  H139  1  0.70700000  0.66580000  0.60020000  1
  H  H140  1  0.32310000  0.66460000  0.51350000  1
  H  H141  1  0.76730000  0.63940000  0.08640000  1
  H  H142  1  0.03590000  0.63600000  0.14730000  1
  H  H143  1  0.91750000  0.63070000  0.88700000  1
  H  H144  1  0.29520000  0.62970000  0.05310000  1
  H  H145  1  0.24630000  0.62860000  0.55430000  1
  H  H146  1  0.11240000  0.61750000  0.81440000  1
  H  H147  1  0.11530000  0.61690000  0.20330000  1
  H  H148  1  0.01970000  0.61650000  0.55070000  1
  H  H149  1  0.11690000  0.61530000  0.70330000  1
  H  H150  1  0.11750000  0.61240000  0.31440000  1
  H  H151  1  0.27780000  0.60910000  0.29190000  1
  H  H152  1  0.90270000  0.60540000  0.97150000  1
  H  H153  1  0.42370000  0.60500000  0.90970000  1
  H  H154  1  0.47150000  0.60180000  0.10680000  1
  H  H155  1  0.89460000  0.59730000  0.52850000  1
  H  H156  1  0.54090000  0.59340000  0.87170000  1
  H  H157  1  0.03460000  0.58980000  0.33540000  1
  H  H158  1  0.86930000  0.58250000  0.61300000  1
  H  H159  1  0.96040000  0.57970000  0.67040000  1
  H  H160  1  0.05920000  0.57860000  0.43040000  1
  H  H161  1  0.93840000  0.57630000  0.09030000  1
  H  H162  1  0.62860000  0.57080000  0.55430000  1
  H  H163  1  0.44080000  0.56820000  0.06960000  1
  H  H164  1  0.23620000  0.56740000  0.49610000  1
  H  H165  1  0.63070000  0.56480000  0.88700000  1
  H  H166  1  0.61530000  0.56450000  0.70330000  1
  H  H167  1  0.78560000  0.56240000  0.63430000  1
  H  H168  1  0.92370000  0.56160000  0.40970000  1
  H  H169  1  0.07860000  0.55920000  0.93040000  1
  H  H170  1  0.45690000  0.55540000  0.25380000  1
  H  H171  1  0.17030000  0.55360000  0.47960000  1
  H  H172  1  0.38250000  0.54430000  0.18560000  1
  H  H173  1  0.26610000  0.54310000  0.74620000  1
  H  H174  1  0.99400000  0.54090000  0.87170000  1
  H  H175  1  0.53460000  0.54020000  0.83540000  1
  H  H176  1  0.92030000  0.53960000  0.82960000  1
  H  H177  1  0.13600000  0.53590000  0.64730000  1
  H  H178  1  0.08980000  0.53460000  0.83540000  1
  H  H179  1  0.18010000  0.52850000  0.89320000  1
  H  H180  1  0.20700000  0.52700000  0.10020000  1
  H  H181  1  0.79520000  0.52200000  0.55310000  1
  H  H182  1  0.60540000  0.52040000  0.97150000  1
  H  H183  1  0.11650000  0.51970000  0.05070000  1
  H  H184  1  0.28560000  0.51770000  0.13430000  1
  H  H185  1  0.78140000  0.50710000  0.98950000  1
  H  H186  1  0.63940000  0.50690000  0.08640000  1
  H  H187  1  0.95910000  0.50600000  0.62830000  1
  H  H188  1  0.75100000  0.50240000  0.06750000  1
  H  H189  1  0.33540000  0.50120000  0.48650000  1
  H  H190  1  0.66460000  0.49880000  0.51350000  1
  H  H191  1  0.24900000  0.49760000  0.93250000  1
  H  H192  1  0.04090000  0.49400000  0.37170000  1
  H  H193  1  0.36060000  0.49310000  0.91360000  1
  H  H194  1  0.21860000  0.49290000  0.01050000  1
  H  H195  1  0.71440000  0.48230000  0.86570000  1
  H  H196  1  0.88350000  0.48030000  0.94930000  1
  H  H197  1  0.39460000  0.47960000  0.02850000  1
  H  H198  1  0.20480000  0.47800000  0.44690000  1
  H  H199  1  0.79300000  0.47300000  0.89980000  1
  H  H200  1  0.81990000  0.47150000  0.10680000  1
  H  H201  1  0.91020000  0.46540000  0.16460000  1
  H  H202  1  0.86400000  0.46410000  0.35270000  1
  H  H203  1  0.07970000  0.46040000  0.17040000  1
  H  H204  1  0.46540000  0.45980000  0.16460000  1
  H  H205  1  0.00600000  0.45910000  0.12830000  1
  H  H206  1  0.73390000  0.45690000  0.25380000  1
  H  H207  1  0.61750000  0.45570000  0.81440000  1
  H  H208  1  0.82970000  0.44640000  0.52040000  1
  H  H209  1  0.54310000  0.44460000  0.74620000  1
  H  H210  1  0.92140000  0.44080000  0.06960000  1
  H  H211  1  0.07630000  0.43840000  0.59030000  1
  H  H212  1  0.21440000  0.43760000  0.36570000  1
  H  H213  1  0.38470000  0.43550000  0.29670000  1
  H  H214  1  0.36930000  0.43520000  0.11300000  1
  H  H215  1  0.76380000  0.43260000  0.50390000  1
  H  H216  1  0.55920000  0.43180000  0.93040000  1
  H  H217  1  0.37140000  0.42920000  0.44570000  1
  H  H218  1  0.06160000  0.42370000  0.90970000  1
  H  H219  1  0.94080000  0.42140000  0.56960000  1
  H  H220  1  0.03960000  0.42030000  0.32960000  1
  H  H221  1  0.13070000  0.41750000  0.38700000  1
  H  H222  1  0.96540000  0.41020000  0.66460000  1
  H  H223  1  0.45910000  0.40660000  0.12830000  1
  H  H224  1  0.10540000  0.40270000  0.47150000  1
  H  H225  1  0.52850000  0.39820000  0.89320000  1
  H  H226  1  0.57630000  0.39500000  0.09030000  1
  H  H227  1  0.09730000  0.39460000  0.02850000  1
  H  H228  1  0.72220000  0.39090000  0.70810000  1
  H  H229  1  0.88250000  0.38760000  0.68560000  1
  H  H230  1  0.88310000  0.38470000  0.29670000  1
  H  H231  1  0.98030000  0.38350000  0.44930000  1
  H  H232  1  0.88470000  0.38310000  0.79670000  1
  H  H233  1  0.88760000  0.38250000  0.18560000  1
  H  H234  1  0.75370000  0.37140000  0.44570000  1
  H  H235  1  0.70480000  0.37030000  0.94690000  1
  H  H236  1  0.08250000  0.36930000  0.11300000  1
  H  H237  1  0.96410000  0.36400000  0.85270000  1
  H  H238  1  0.23270000  0.36060000  0.91360000  1
  H  H239  1  0.67690000  0.33540000  0.48650000  1
  H  H240  1  0.29300000  0.33420000  0.39980000  1
  H  H241  1  0.94640000  0.32970000  0.02040000  1
  H  H242  1  0.49880000  0.32310000  0.51350000  1
  H  H243  1  0.77780000  0.32120000  0.79190000  1
  H  H244  1  0.49760000  0.32090000  0.93250000  1
  H  H245  1  0.97150000  0.31990000  0.60680000  1
  H  H246  1  0.46410000  0.31920000  0.35270000  1
  H  H247  1  0.51970000  0.31310000  0.05070000  1
  H  H248  1  0.43260000  0.29970000  0.50390000  1
  H  H249  1  0.67030000  0.29650000  0.97960000  1
  H  H250  1  0.02200000  0.29520000  0.05310000  1
  H  H251  1  0.97300000  0.29300000  0.39980000  1
  H  H252  1  0.46040000  0.28950000  0.17040000  1
  H  H253  1  0.06240000  0.28560000  0.13430000  1
  H  H254  1  0.00710000  0.28140000  0.48950000  1
  H  H255  1  0.49290000  0.27800000  0.01050000  1
  H  H256  1  0.82120000  0.27780000  0.29190000  1
  H  H257  1  0.13940000  0.26730000  0.58640000  1
  H  H258  1  0.44460000  0.26610000  0.74620000  1
  H  H259  1  0.93260000  0.26380000  0.00390000  1
  H  H260  1  0.87140000  0.25370000  0.94570000  1
  H  H261  1  0.00240000  0.25100000  0.56750000  1
  H  H262  1  0.32090000  0.24900000  0.93250000  1
  H  H263  1  0.57080000  0.24630000  0.55430000  1
  H  H264  1  0.70030000  0.23620000  0.49610000  1
  H  H265  1  0.95690000  0.23390000  0.75380000  1
  H  H266  1  0.49310000  0.23270000  0.91360000  1
  H  H267  1  0.89090000  0.22220000  0.20810000  1
  H  H268  1  0.28140000  0.22200000  0.48950000  1
  H  H269  1  0.27800000  0.21860000  0.01050000  1
  H  H270  1  0.98230000  0.21440000  0.36570000  1
  H  H271  1  0.42030000  0.21050000  0.32960000  1
  H  H272  1  0.16580000  0.20700000  0.10020000  1
  H  H273  1  0.87030000  0.20480000  0.44690000  1
  H  H274  1  0.44640000  0.20350000  0.52040000  1
  H  H275  1  0.73620000  0.20030000  0.99610000  1
  H  H276  1  0.38350000  0.18690000  0.44930000  1
  H  H277  1  0.63600000  0.18080000  0.14730000  1
  H  H278  1  0.39820000  0.18010000  0.89320000  1
  H  H279  1  0.25100000  0.17910000  0.56750000  1
  H  H280  1  0.39090000  0.17880000  0.70810000  1
  H  H281  1  0.83540000  0.17690000  0.98650000  1
  H  H282  1  0.79650000  0.17030000  0.47960000  1
  H  H283  1  0.52700000  0.16580000  0.10020000  1
  H  H284  1  0.99880000  0.16460000  0.01350000  1
  H  H285  1  0.00690000  0.13940000  0.58640000  1
  H  H286  1  0.68080000  0.13600000  0.64730000  1
  H  H287  1  0.06480000  0.13070000  0.38700000  1
  H  H288  1  0.52200000  0.12970000  0.55310000  1
  H  H289  1  0.07080000  0.12860000  0.05430000  1
  H  H290  1  0.95570000  0.11750000  0.31440000  1
  H  H291  1  0.56450000  0.11690000  0.70330000  1
  H  H292  1  0.31310000  0.11650000  0.05070000  1
  H  H293  1  0.06450000  0.11530000  0.20330000  1
  H  H294  1  0.45570000  0.11240000  0.81440000  1
  H  H295  1  0.32120000  0.10910000  0.79190000  1
  H  H296  1  0.02040000  0.10540000  0.47150000  1
  H  H297  1  0.56160000  0.10500000  0.40970000  1
  H  H298  1  0.31990000  0.10180000  0.60680000  1
  H  H299  1  0.47960000  0.09730000  0.02850000  1
  H  H300  1  0.49400000  0.09340000  0.37170000  1
  H  H301  1  0.54020000  0.08980000  0.83540000  1
  H  H302  1  0.43520000  0.08250000  0.11300000  1
  H  H303  1  0.28950000  0.07970000  0.17040000  1
  H  H304  1  0.43180000  0.07860000  0.93040000  1
  H  H305  1  0.89500000  0.07630000  0.59030000  1
  H  H306  1  0.74630000  0.07080000  0.05430000  1
  H  H307  1  0.42140000  0.06820000  0.56960000  1
  H  H308  1  0.20030000  0.06740000  0.99610000  1
  H  H309  1  0.41750000  0.06480000  0.38700000  1
  H  H310  1  0.61690000  0.06450000  0.20330000  1
  H  H311  1  0.51770000  0.06240000  0.13430000  1
  H  H312  1  0.60500000  0.06160000  0.90970000  1
  H  H313  1  0.93180000  0.05920000  0.43040000  1
  H  H314  1  0.23390000  0.05540000  0.75380000  1
  H  H315  1  0.29650000  0.05360000  0.97960000  1
  H  H316  1  0.38760000  0.04430000  0.68560000  1
  H  H317  1  0.94460000  0.04310000  0.24620000  1
  H  H318  1  0.09340000  0.04090000  0.37170000  1
  H  H319  1  0.58980000  0.04020000  0.33540000  1
  H  H320  1  0.21050000  0.03960000  0.32960000  1
  H  H321  1  0.18080000  0.03590000  0.14730000  1
  H  H322  1  0.04020000  0.03460000  0.33540000  1
  H  H323  1  0.89820000  0.02850000  0.39320000  1
  H  H324  1  0.66580000  0.02700000  0.60020000  1
  H  H325  1  0.62970000  0.02200000  0.05310000  1
  H  H326  1  0.40270000  0.02040000  0.47150000  1
  H  H327  1  0.81310000  0.01970000  0.55070000  1
  H  H328  1  0.56240000  0.01770000  0.63430000  1
  H  H329  1  0.22200000  0.00710000  0.48950000  1
  H  H330  1  0.26730000  0.00690000  0.58640000  1
  H  H331  1  0.40660000  0.00600000  0.12830000  1
  H  H332  1  0.17910000  0.00240000  0.56750000  1
  H  H333  1  0.17690000  0.00120000  0.98650000  1
  C  C334  1  0.61087000  0.99827000  0.49709000  1
  C  C335  1  0.21604000  0.99824000  0.97588000  1
  C  C336  1  0.43980000  0.99750000  0.13700000  1
  C  C337  1  0.19064000  0.99424000  0.50558000  1
  C  C338  1  0.46825000  0.99405000  0.35895000  1
  C  C339  1  0.30821000  0.99381000  0.57167000  1
  C  C340  1  0.75820000  0.99280000  0.65840000  1
  C  C341  1  0.93940000  0.99220000  0.76325000  1
  C  C342  1  0.16542000  0.99152000  0.55154000  1
  C  C343  1  0.30767000  0.98795000  0.77408000  1
  C  C344  1  0.73008000  0.98548000  0.63416000  1
  C  C345  1  0.26629000  0.98544000  0.19173000  1
  C  C346  1  0.33056000  0.98536000  0.95182000  1
  C  C347  1  0.64000000  0.97988000  0.20303000  1
  C  C348  1  0.57293000  0.97823000  0.32811000  1
  C  C349  1  0.67157000  0.97817000  0.47489000  1
  C  C350  1  0.16980000  0.97790000  0.48140000  1
  C  C351  1  0.35491000  0.97472000  0.79031000  1
  C  C352  1  0.53735000  0.97335000  0.16445000  1
  C  C353  1  0.11961000  0.97251000  0.57497000  1
  C  C354  1  0.44072000  0.97142000  0.65854000  1
  C  C355  1  0.71270000  0.97100000  0.02730000  1
  C  C356  1  0.49405000  0.96825000  0.85895000  1
  C  C357  1  0.31538000  0.96698000  0.38456000  1
  C  C358  1  0.76900000  0.96410000  0.01680000  1
  C  C359  1  0.52665000  0.96265000  0.33555000  1
  C  C360  1  0.12439000  0.95839000  0.50573000  1
  C  C361  1  0.54339000  0.95689000  0.62803000  1
  C  C362  1  0.54311000  0.95661000  0.87197000  1
  C  C363  1  0.26207000  0.95507000  0.95179000  1
  C  C364  1  0.09877000  0.95477000  0.55289000  1
  C  C365  1  0.43002000  0.95352000  0.52754000  1
  C  C366  1  0.73449000  0.95343000  0.23546000  1
  C  C367  1  0.76139000  0.95199000  0.83593000  1
  C  C368  1  0.31978000  0.95168000  0.93736000  1
  C  C369  1  0.26139000  0.95069000  0.33593000  1
  C  C370  1  0.34969000  0.94569000  0.59633000  1
  C  C371  1  0.23371000  0.94346000  0.30827000  1
  C  C372  1  0.47142000  0.94072000  0.15854000  1
  C  C373  1  0.49750000  0.93980000  0.63700000  1
  C  C374  1  0.30515000  0.93940000  0.76325000  1
  C  C375  1  0.80673000  0.93553000  0.85591000  1
  C  C376  1  0.98795000  0.93030000  0.77408000  1
  C  C377  1  0.45352000  0.93002000  0.02754000  1
  C  C378  1  0.97142000  0.92932000  0.65854000  1
  C  C379  1  0.52177000  0.92707000  0.17189000  1
  C  C380  1  0.41071000  0.92641000  0.57377000  1
  C  C381  1  0.93980000  0.92570000  0.63700000  1
  C  C382  1  0.71458000  0.92538000  0.50186000  1
  C  C383  1  0.75140000  0.92470000  0.62750000  1
  C  C384  1  0.04657000  0.92338000  0.76454000  1
  C  C385  1  0.68216000  0.92125000  0.21260000  1
  C  C386  1  0.32870000  0.91520000  0.64730000  1
  C  C387  1  0.62439000  0.91149000  0.00573000  1
  C  C388  1  0.04648000  0.91108000  0.47246000  1
  C  C389  1  0.07359000  0.91089000  0.42623000  1
  C  C390  1  0.42641000  0.91071000  0.07377000  1
  C  C391  1  0.33333333  0.90973000  0.38081000  1
  C  C392  1  0.74180000  0.90940000  0.84160000  1
  C  C393  1  0.72941000  0.90803000  0.22880000  1
  C  C394  1  0.30673000  0.90183000  0.35591000  1
  C  C395  1  0.60643000  0.90123000  0.44711000  1
  C  C396  1  0.99827000  0.89377000  0.49709000  1
  C  C397  1  0.59877000  0.89357000  0.05289000  1
  C  C398  1  0.05431000  0.89171000  0.40367000  1
  C  C399  1  0.08480000  0.89120000  0.35270000  1
  C  C400  1  0.50173000  0.88913000  0.00291000  1
  C  C401  1  0.66709000  0.88039000  0.42503000  1
  C  C402  1  0.97472000  0.88006000  0.79031000  1
  C  C403  1  0.02177000  0.87927000  0.67189000  1
  C  C404  1  0.83333000  0.87613000  0.88081000  1
  C  C405  1  0.58851000  0.87561000  0.49427000  1
  C  C406  1  0.97817000  0.87537000  0.47489000  1
  C  C407  1  0.00619000  0.87369000  0.42833000  1
  C  C408  1  0.95689000  0.87169000  0.62803000  1
  C  C409  1  0.66980000  0.87090000  0.98140000  1
  C  C410  1  0.09197000  0.86624000  0.77120000  1
  C  C411  1  0.52012000  0.86000000  0.29697000  1
  C  C412  1  0.92538000  0.85818000  0.50186000  1
  C  C413  1  0.15608000  0.85758000  0.75896000  1
  C  C414  1  0.47472000  0.85491000  0.29031000  1
  C  C415  1  0.76992000  0.84972000  0.86584000  1
  C  C416  1  0.44569000  0.84969000  0.09633000  1
  C  C417  1  0.77262000  0.84392000  0.24104000  1
  C  C418  1  0.70848000  0.83458000  0.44846000  1
  C  C419  1  0.40973000  0.83333000  0.88081000  1
  C  C420  1  0.81538000  0.83308000  0.88456000  1
  C  C421  1  0.61961000  0.83291000  0.07497000  1
  C  C422  1  0.95507000  0.83107000  0.95179000  1
  C  C423  1  0.48536000  0.83056000  0.45182000  1
  C  C424  1  0.62910000  0.83020000  0.51860000  1
  C  C425  1  0.41520000  0.82870000  0.14730000  1
  C  C426  1  0.52183000  0.82843000  0.02511000  1
  C  C427  1  0.03735000  0.82485000  0.66445000  1
  C  C428  1  0.02012000  0.82291000  0.79697000  1
  C  C429  1  0.00595000  0.82125000  0.64105000  1
  C  C430  1  0.45168000  0.81978000  0.43736000  1
  C  C431  1  0.57875000  0.81784000  0.28740000  1
  C  C432  1  0.07875000  0.81601000  0.78740000  1
  C  C433  1  0.46698000  0.81538000  0.88456000  1
  C  C434  1  0.99824000  0.80984000  0.97588000  1
  C  C435  1  0.69064000  0.80954000  0.00558000  1
  C  C436  1  0.69046000  0.80936000  0.49442000  1
  C  C437  1  0.49381000  0.80821000  0.07167000  1
  C  C438  1  0.48795000  0.80767000  0.27408000  1
  C  C439  1  0.40183000  0.80673000  0.85591000  1
  C  C440  1  0.43940000  0.80515000  0.26325000  1
  C  C441  1  0.74860000  0.80360000  0.87250000  1
  C  C442  1  0.66542000  0.79152000  0.05154000  1
  C  C443  1  0.95168000  0.79118000  0.93736000  1
  C  C444  1  0.21270000  0.78900000  0.52730000  1
  C  C445  1  0.52900000  0.78730000  0.47270000  1
  C  C446  1  0.57462000  0.78542000  0.99814000  1
  C  C447  1  0.19016000  0.78396000  0.02412000  1
  C  C448  1  0.14242000  0.77262000  0.24104000  1
  C  C449  1  0.59197000  0.77059000  0.27120000  1
  C  C450  1  0.51452000  0.76992000  0.86584000  1
  C  C451  1  0.25010000  0.76900000  0.01680000  1
  C  C452  1  0.16944000  0.76774000  0.54818000  1
  C  C453  1  0.48544000  0.76629000  0.69173000  1
  C  C454  1  0.54657000  0.76551000  0.26454000  1
  C  C455  1  0.45507000  0.76207000  0.45179000  1
  C  C456  1  0.45069000  0.76139000  0.83593000  1
  C  C457  1  0.59060000  0.75820000  0.65840000  1
  C  C458  1  0.69640000  0.75140000  0.62750000  1
  C  C459  1  0.26900000  0.75010000  0.51680000  1
  C  C460  1  0.03590000  0.74990000  0.98320000  1
  C  C461  1  0.57530000  0.74860000  0.87250000  1
  C  C462  1  0.50720000  0.74180000  0.84160000  1
  C  C463  1  0.54801000  0.73861000  0.66407000  1
  C  C464  1  0.16893000  0.73793000  0.04821000  1
  C  C465  1  0.07662000  0.73449000  0.23546000  1
  C  C466  1  0.44346000  0.73371000  0.80827000  1
  C  C467  1  0.98536000  0.73226000  0.95182000  1
  C  C468  1  0.53590000  0.73100000  0.48320000  1
  C  C469  1  0.65028000  0.73008000  0.63416000  1
  C  C470  1  0.13376000  0.72941000  0.22880000  1
  C  C471  1  0.65608000  0.72738000  0.25896000  1
  C  C472  1  0.49824000  0.71604000  0.47588000  1
  C  C473  1  0.85818000  0.71458000  0.50186000  1
  C  C474  1  0.28900000  0.71270000  0.02730000  1
  C  C475  1  0.02900000  0.71100000  0.97270000  1
  C  C476  1  0.18022000  0.70882000  0.56264000  1
  C  C477  1  0.00848000  0.70848000  0.44846000  1
  C  C478  1  0.92470000  0.69640000  0.62750000  1
  C  C479  1  0.00780000  0.69485000  0.23675000  1
  C  C480  1  0.56447000  0.69327000  0.64409000  1
  C  C481  1  0.06970000  0.69233000  0.22592000  1
  C  C482  1  0.87369000  0.69179000  0.42833000  1
  C  C483  1  0.49424000  0.69064000  0.00558000  1
  C  C484  1  0.00576000  0.69046000  0.49442000  1
  C  C485  1  0.28396000  0.69016000  0.52412000  1
  C  C486  1  0.66692000  0.68462000  0.61544000  1
  C  C487  1  0.18216000  0.68399000  0.71260000  1
  C  C488  1  0.18399000  0.68216000  0.21260000  1
  C  C489  1  0.20882000  0.68022000  0.06264000  1
  C  C490  1  0.96825000  0.67875000  0.85895000  1
  C  C491  1  0.14000000  0.67709000  0.70303000  1
  C  C492  1  0.02665000  0.67515000  0.83555000  1
  C  C493  1  0.87537000  0.67157000  0.47489000  1
  C  C494  1  0.89120000  0.67130000  0.35270000  1
  C  C495  1  0.47790000  0.66980000  0.98140000  1
  C  C496  1  0.26774000  0.66944000  0.04818000  1
  C  C497  1  0.23793000  0.66893000  0.54821000  1
  C  C498  1  0.02749000  0.66709000  0.42503000  1
  C  C499  1  0.03302000  0.66692000  0.61544000  1
  C  C500  1  0.62387000  0.66666667  0.61919000  1
  C  C501  1  0.49152000  0.66542000  0.05154000  1
  C  C502  1  0.35758000  0.65608000  0.25896000  1
  C  C503  1  0.89171000  0.65031000  0.40367000  1
  C  C504  1  0.98548000  0.65028000  0.63416000  1
  C  C505  1  0.11994000  0.64509000  0.20969000  1
  C  C506  1  0.27262000  0.64242000  0.74104000  1
  C  C507  1  0.78542000  0.64182000  0.99814000  1
  C  C508  1  0.17709000  0.64000000  0.20303000  1
  C  C509  1  0.22941000  0.63376000  0.72880000  1
  C  C510  1  0.02210000  0.62910000  0.51860000  1
  C  C511  1  0.95661000  0.62831000  0.87197000  1
  C  C512  1  0.80821000  0.62631000  0.07167000  1
  C  C513  1  0.82843000  0.62463000  0.02511000  1
  C  C514  1  0.45839000  0.62439000  0.00573000  1
  C  C515  1  0.09027000  0.62387000  0.61919000  1
  C  C516  1  0.07293000  0.62073000  0.82811000  1
  C  C517  1  0.14509000  0.61994000  0.70969000  1
  C  C518  1  0.47251000  0.61961000  0.07497000  1
  C  C519  1  0.89377000  0.61087000  0.49709000  1
  C  C520  1  0.82870000  0.60880000  0.14730000  1
  C  C521  1  0.84969000  0.60829000  0.09633000  1
  C  C522  1  0.04523000  0.60643000  0.44711000  1
  C  C523  1  0.88913000  0.60623000  0.00291000  1
  C  C524  1  0.45477000  0.59877000  0.05289000  1
  C  C525  1  0.06447000  0.59817000  0.14409000  1
  C  C526  1  0.36624000  0.59197000  0.27120000  1
  C  C527  1  0.99280000  0.59060000  0.65840000  1
  C  C528  1  0.12387000  0.59027000  0.11919000  1
  C  C529  1  0.91089000  0.58929000  0.42623000  1
  C  C530  1  0.91071000  0.58911000  0.07377000  1
  C  C531  1  0.93002000  0.58892000  0.02754000  1
  C  C532  1  0.04161000  0.58851000  0.49427000  1
  C  C533  1  0.39120000  0.58480000  0.85270000  1
  C  C534  1  0.31601000  0.57875000  0.28740000  1
  C  C535  1  0.23449000  0.57662000  0.73546000  1
  C  C536  1  0.80360000  0.57530000  0.87250000  1
  C  C537  1  0.64182000  0.57462000  0.99814000  1
  C  C538  1  0.00250000  0.57430000  0.86300000  1
  C  C539  1  0.41089000  0.57359000  0.92623000  1
  C  C540  1  0.12073000  0.57293000  0.32811000  1
  C  C541  1  0.05928000  0.57068000  0.84146000  1
  C  C542  1  0.91108000  0.56998000  0.47246000  1
  C  C543  1  0.19233000  0.56970000  0.72592000  1
  C  C544  1  0.09817000  0.56447000  0.64409000  1
  C  C545  1  0.50780000  0.56060000  0.73675000  1
  C  C546  1  0.57430000  0.56020000  0.86300000  1
  C  C547  1  0.07068000  0.55928000  0.34146000  1
  C  C548  1  0.98544000  0.55654000  0.19173000  1
  C  C549  1  0.39171000  0.55431000  0.90367000  1
  C  C550  1  0.04801000  0.54931000  0.16407000  1
  C  C551  1  0.70882000  0.54832000  0.56264000  1
  C  C552  1  0.04931000  0.54801000  0.66407000  1
  C  C553  1  0.42338000  0.54657000  0.26454000  1
  C  C554  1  0.41108000  0.54648000  0.97246000  1
  C  C555  1  0.10643000  0.54523000  0.94711000  1
  C  C556  1  0.66893000  0.54493000  0.54821000  1
  C  C557  1  0.87169000  0.54339000  0.62803000  1
  C  C558  1  0.62831000  0.54311000  0.87197000  1
  C  C559  1  0.08851000  0.54161000  0.99427000  1
  C  C560  1  0.32485000  0.53735000  0.16445000  1
  C  C561  1  0.24990000  0.53590000  0.48320000  1
  C  C562  1  0.16692000  0.53302000  0.11544000  1
  C  C563  1  0.82125000  0.53175000  0.64105000  1
  C  C564  1  0.21100000  0.52900000  0.47270000  1
  C  C565  1  0.57068000  0.52858000  0.84146000  1
  C  C566  1  0.16709000  0.52749000  0.92503000  1
  C  C567  1  0.17515000  0.52665000  0.33555000  1
  C  C568  1  0.61994000  0.52528000  0.70969000  1
  C  C569  1  0.12910000  0.52210000  0.01860000  1
  C  C570  1  0.62463000  0.52183000  0.02511000  1
  C  C571  1  0.37927000  0.52177000  0.17189000  1
  C  C572  1  0.32291000  0.52012000  0.29697000  1
  C  C573  1  0.76774000  0.51464000  0.54818000  1
  C  C574  1  0.94346000  0.51456000  0.30827000  1
  C  C575  1  0.84972000  0.51452000  0.86584000  1
  C  C576  1  0.56970000  0.51205000  0.72592000  1
  C  C577  1  0.20848000  0.50848000  0.94846000  1
  C  C578  1  0.19485000  0.50780000  0.73675000  1
  C  C579  1  0.90940000  0.50720000  0.84160000  1
  C  C580  1  0.37369000  0.50619000  0.92833000  1
  C  C581  1  0.32125000  0.50595000  0.14105000  1
  C  C582  1  0.19046000  0.50576000  0.99442000  1
  C  C583  1  0.07430000  0.50250000  0.36300000  1
  C  C584  1  0.69016000  0.50176000  0.52412000  1
  C  C585  1  0.60623000  0.50173000  0.00291000  1
  C  C586  1  0.39377000  0.49827000  0.99709000  1
  C  C587  1  0.30984000  0.49824000  0.47588000  1
  C  C588  1  0.92570000  0.49750000  0.63700000  1
  C  C589  1  0.80954000  0.49424000  0.00558000  1
  C  C590  1  0.67875000  0.49405000  0.85895000  1
  C  C591  1  0.62631000  0.49381000  0.07167000  1
  C  C592  1  0.09060000  0.49280000  0.15840000  1
  C  C593  1  0.80515000  0.49220000  0.26325000  1
  C  C594  1  0.79152000  0.49152000  0.05154000  1
  C  C595  1  0.43030000  0.48795000  0.27408000  1
  C  C596  1  0.15028000  0.48548000  0.13416000  1
  C  C597  1  0.05654000  0.48544000  0.69173000  1
  C  C598  1  0.23226000  0.48536000  0.45182000  1
  C  C599  1  0.67709000  0.47988000  0.70303000  1
  C  C600  1  0.62073000  0.47823000  0.82811000  1
  C  C601  1  0.37537000  0.47817000  0.97489000  1
  C  C602  1  0.87090000  0.47790000  0.98140000  1
  C  C603  1  0.38006000  0.47472000  0.29031000  1
  C  C604  1  0.82485000  0.47335000  0.66445000  1
  C  C605  1  0.83291000  0.47251000  0.07497000  1
  C  C606  1  0.42932000  0.47142000  0.15854000  1
  C  C607  1  0.78900000  0.47100000  0.52730000  1
  C  C608  1  0.17875000  0.46825000  0.35895000  1
  C  C609  1  0.83308000  0.46698000  0.88456000  1
  C  C610  1  0.75010000  0.46410000  0.51680000  1
  C  C611  1  0.67515000  0.46265000  0.83555000  1
  C  C612  1  0.91149000  0.45839000  0.00573000  1
  C  C613  1  0.37169000  0.45689000  0.12803000  1
  C  C614  1  0.12831000  0.45661000  0.37197000  1
  C  C615  1  0.33107000  0.45507000  0.45179000  1
  C  C616  1  0.89357000  0.45477000  0.05289000  1
  C  C617  1  0.58892000  0.45352000  0.02754000  1
  C  C618  1  0.57662000  0.45343000  0.73546000  1
  C  C619  1  0.95069000  0.45199000  0.33593000  1
  C  C620  1  0.29118000  0.45168000  0.43736000  1
  C  C621  1  0.95199000  0.45069000  0.83593000  1
  C  C622  1  0.60829000  0.44569000  0.09633000  1
  C  C623  1  0.01456000  0.44346000  0.80827000  1
  C  C624  1  0.92932000  0.44072000  0.65854000  1
  C  C625  1  0.42570000  0.43980000  0.13700000  1
  C  C626  1  0.49220000  0.43940000  0.26325000  1
  C  C627  1  0.90183000  0.43553000  0.35591000  1
  C  C628  1  0.80767000  0.43030000  0.27408000  1
  C  C629  1  0.08892000  0.43002000  0.52754000  1
  C  C630  1  0.94072000  0.42932000  0.15854000  1
  C  C631  1  0.87927000  0.42707000  0.67189000  1
  C  C632  1  0.58911000  0.42641000  0.07377000  1
  C  C633  1  0.99750000  0.42570000  0.13700000  1
  C  C634  1  0.35818000  0.42538000  0.00186000  1
  C  C635  1  0.19640000  0.42470000  0.12750000  1
  C  C636  1  0.76551000  0.42338000  0.26454000  1
  C  C637  1  0.68399000  0.42125000  0.71260000  1
  C  C638  1  0.60880000  0.41520000  0.14730000  1
  C  C639  1  0.95839000  0.41149000  0.50573000  1
  C  C640  1  0.06998000  0.41108000  0.97246000  1
  C  C641  1  0.08929000  0.41089000  0.92623000  1
  C  C642  1  0.08911000  0.41071000  0.57377000  1
  C  C643  1  0.87613000  0.40973000  0.88081000  1
  C  C644  1  0.00720000  0.40940000  0.34160000  1
  C  C645  1  0.63376000  0.40803000  0.72880000  1
  C  C646  1  0.93553000  0.40183000  0.85591000  1
  C  C647  1  0.54523000  0.40123000  0.94711000  1
  C  C648  1  0.11087000  0.39377000  0.99709000  1
  C  C649  1  0.95477000  0.39357000  0.55289000  1
  C  C650  1  0.15031000  0.39171000  0.90367000  1
  C  C651  1  0.17130000  0.39120000  0.85270000  1
  C  C652  1  0.10623000  0.38913000  0.50291000  1
  C  C653  1  0.52749000  0.38039000  0.92503000  1
  C  C654  1  0.85491000  0.38006000  0.29031000  1
  C  C655  1  0.92707000  0.37927000  0.17189000  1
  C  C656  1  0.90973000  0.37613000  0.38081000  1
  C  C657  1  0.54161000  0.37561000  0.99427000  1
  C  C658  1  0.17157000  0.37537000  0.97489000  1
  C  C659  1  0.19179000  0.37369000  0.92833000  1
  C  C660  1  0.04339000  0.37169000  0.12803000  1
  C  C661  1  0.97790000  0.37090000  0.48140000  1
  C  C662  1  0.77059000  0.36624000  0.27120000  1
  C  C663  1  0.82291000  0.36000000  0.79697000  1
  C  C664  1  0.21458000  0.35818000  0.00186000  1
  C  C665  1  0.72738000  0.35758000  0.25896000  1
  C  C666  1  0.88006000  0.35491000  0.79031000  1
  C  C667  1  0.01452000  0.34972000  0.36584000  1
  C  C668  1  0.10829000  0.34969000  0.59633000  1
  C  C669  1  0.64242000  0.34392000  0.74104000  1
  C  C670  1  0.50848000  0.33458000  0.94846000  1
  C  C671  1  0.37613000  0.33333333  0.38081000  1
  C  C672  1  0.96698000  0.33308000  0.38456000  1
  C  C673  1  0.97251000  0.33291000  0.57497000  1
  C  C674  1  0.76207000  0.33107000  0.45179000  1
  C  C675  1  0.73226000  0.33056000  0.95182000  1
  C  C676  1  0.52210000  0.33020000  0.01860000  1
  C  C677  1  0.10880000  0.32870000  0.64730000  1
  C  C678  1  0.12463000  0.32843000  0.52511000  1
  C  C679  1  0.97335000  0.32485000  0.16445000  1
  C  C680  1  0.86000000  0.32291000  0.29697000  1
  C  C681  1  0.03175000  0.32125000  0.14105000  1
  C  C682  1  0.79118000  0.31978000  0.93736000  1
  C  C683  1  0.81601000  0.31784000  0.78740000  1
  C  C684  1  0.81784000  0.31601000  0.28740000  1
  C  C685  1  0.33308000  0.31538000  0.38456000  1
  C  C686  1  0.71604000  0.30984000  0.47588000  1
  C  C687  1  0.99424000  0.30954000  0.50558000  1
  C  C688  1  0.50576000  0.30936000  0.99442000  1
  C  C689  1  0.12631000  0.30821000  0.57167000  1
  C  C690  1  0.93030000  0.30767000  0.77408000  1
  C  C691  1  0.43553000  0.30673000  0.35591000  1
  C  C692  1  0.99220000  0.30515000  0.76325000  1
  C  C693  1  0.07530000  0.30360000  0.37250000  1
  C  C694  1  0.99152000  0.29152000  0.55154000  1
  C  C695  1  0.81978000  0.29118000  0.43736000  1
  C  C696  1  0.97100000  0.28900000  0.02730000  1
  C  C697  1  0.71100000  0.28730000  0.97270000  1
  C  C698  1  0.14182000  0.28542000  0.49814000  1
  C  C699  1  0.50176000  0.28396000  0.52412000  1
  C  C700  1  0.34392000  0.27262000  0.74104000  1
  C  C701  1  0.86624000  0.27059000  0.77120000  1
  C  C702  1  0.34972000  0.26992000  0.36584000  1
  C  C703  1  0.46410000  0.26900000  0.51680000  1
  C  C704  1  0.01464000  0.26774000  0.04818000  1
  C  C705  1  0.55654000  0.26629000  0.19173000  1
  C  C706  1  0.92338000  0.26551000  0.76454000  1
  C  C707  1  0.83107000  0.26207000  0.95179000  1
  C  C708  1  0.45199000  0.26139000  0.33593000  1
  C  C709  1  0.49280000  0.25820000  0.15840000  1
  C  C710  1  0.42470000  0.25140000  0.12750000  1
  C  C711  1  0.96410000  0.25010000  0.01680000  1
  C  C712  1  0.73100000  0.24990000  0.48320000  1
  C  C713  1  0.30360000  0.24860000  0.37250000  1
  C  C714  1  0.40940000  0.24180000  0.34160000  1
  C  C715  1  0.54931000  0.23861000  0.16407000  1
  C  C716  1  0.54493000  0.23793000  0.54821000  1
  C  C717  1  0.45343000  0.23449000  0.73546000  1
  C  C718  1  0.51456000  0.23371000  0.30827000  1
  C  C719  1  0.83056000  0.23226000  0.45182000  1
  C  C720  1  0.74990000  0.23100000  0.98320000  1
  C  C721  1  0.48548000  0.23008000  0.13416000  1
  C  C722  1  0.40803000  0.22941000  0.72880000  1
  C  C723  1  0.85758000  0.22738000  0.75896000  1
  C  C724  1  0.80984000  0.21604000  0.97588000  1
  C  C725  1  0.42538000  0.21458000  0.00186000  1
  C  C726  1  0.47100000  0.21270000  0.52730000  1
  C  C727  1  0.78730000  0.21100000  0.47270000  1
  C  C728  1  0.04832000  0.20882000  0.06264000  1
  C  C729  1  0.33458000  0.20848000  0.94846000  1
  C  C730  1  0.25140000  0.19640000  0.12750000  1
  C  C731  1  0.56060000  0.19485000  0.73675000  1
  C  C732  1  0.59817000  0.19327000  0.14409000  1
  C  C733  1  0.51205000  0.19233000  0.72592000  1
  C  C734  1  0.50619000  0.19179000  0.92833000  1
  C  C735  1  0.30954000  0.19064000  0.50558000  1
  C  C736  1  0.30936000  0.19046000  0.99442000  1
  C  C737  1  0.00176000  0.19016000  0.02412000  1
  C  C738  1  0.53302000  0.18462000  0.11544000  1
  C  C739  1  0.92125000  0.18399000  0.21260000  1
  C  C740  1  0.42125000  0.18216000  0.71260000  1
  C  C741  1  0.54832000  0.18022000  0.56264000  1
  C  C742  1  0.99405000  0.17875000  0.35895000  1
  C  C743  1  0.97988000  0.17709000  0.20303000  1
  C  C744  1  0.96265000  0.17515000  0.33555000  1
  C  C745  1  0.47817000  0.17157000  0.97489000  1
  C  C746  1  0.58480000  0.17130000  0.85270000  1
  C  C747  1  0.37090000  0.16980000  0.48140000  1
  C  C748  1  0.51464000  0.16944000  0.54818000  1
  C  C749  1  0.04493000  0.16893000  0.04821000  1
  C  C750  1  0.38039000  0.16709000  0.92503000  1
  C  C751  1  0.18462000  0.16692000  0.11544000  1
  C  C752  1  0.59027000  0.16667000  0.11919000  1
  C  C753  1  0.29152000  0.16542000  0.55154000  1
  C  C754  1  0.22738000  0.15608000  0.75896000  1
  C  C755  1  0.55431000  0.15031000  0.90367000  1
  C  C756  1  0.23008000  0.15028000  0.13416000  1
  C  C757  1  0.52528000  0.14509000  0.70969000  1
  C  C758  1  0.84392000  0.14242000  0.24104000  1
  C  C759  1  0.07462000  0.14182000  0.49814000  1
  C  C760  1  0.47988000  0.14000000  0.70303000  1
  C  C761  1  0.90803000  0.13376000  0.22880000  1
  C  C762  1  0.33020000  0.12910000  0.01860000  1
  C  C763  1  0.04311000  0.12831000  0.37197000  1
  C  C764  1  0.99381000  0.12631000  0.57167000  1
  C  C765  1  0.02183000  0.12463000  0.52511000  1
  C  C766  1  0.41149000  0.12439000  0.50573000  1
  C  C767  1  0.16667000  0.12387000  0.11919000  1
  C  C768  1  0.97823000  0.12073000  0.32811000  1
  C  C769  1  0.02528000  0.11994000  0.20969000  1
  C  C770  1  0.33291000  0.11961000  0.57497000  1
  C  C771  1  0.49827000  0.11087000  0.99709000  1
  C  C772  1  0.91520000  0.10880000  0.64730000  1
  C  C773  1  0.94569000  0.10829000  0.59633000  1
  C  C774  1  0.40123000  0.10643000  0.94711000  1
  C  C775  1  0.00173000  0.10623000  0.50291000  1
  C  C776  1  0.39357000  0.09877000  0.55289000  1
  C  C777  1  0.69327000  0.09817000  0.64409000  1
  C  C778  1  0.27059000  0.09197000  0.77120000  1
  C  C779  1  0.25820000  0.09060000  0.15840000  1
  C  C780  1  0.66666667  0.09027000  0.61919000  1
  C  C781  1  0.57359000  0.08929000  0.92623000  1
  C  C782  1  0.92641000  0.08911000  0.57377000  1
  C  C783  1  0.95352000  0.08892000  0.52754000  1
  C  C784  1  0.37561000  0.08851000  0.99427000  1
  C  C785  1  0.67130000  0.08480000  0.35270000  1
  C  C786  1  0.31784000  0.07875000  0.78740000  1
  C  C787  1  0.95343000  0.07662000  0.23546000  1
  C  C788  1  0.24860000  0.07530000  0.37250000  1
  C  C789  1  0.28542000  0.07462000  0.49814000  1
  C  C790  1  0.06020000  0.07430000  0.36300000  1
  C  C791  1  0.58929000  0.07359000  0.42623000  1
  C  C792  1  0.47823000  0.07293000  0.82811000  1
  C  C793  1  0.02858000  0.07068000  0.34146000  1
  C  C794  1  0.54648000  0.06998000  0.97246000  1
  C  C795  1  0.01205000  0.06970000  0.22592000  1
  C  C796  1  0.19327000  0.06447000  0.14409000  1
  C  C797  1  0.69485000  0.06060000  0.23675000  1
  C  C798  1  0.50250000  0.06020000  0.36300000  1
  C  C799  1  0.52858000  0.05928000  0.84146000  1
  C  C800  1  0.76629000  0.05654000  0.69173000  1
  C  C801  1  0.65031000  0.05431000  0.40367000  1
  C  C802  1  0.73861000  0.04931000  0.66407000  1
  C  C803  1  0.68022000  0.04832000  0.06264000  1
  C  C804  1  0.23861000  0.04801000  0.16407000  1
  C  C805  1  0.26551000  0.04657000  0.76454000  1
  C  C806  1  0.56998000  0.04648000  0.47246000  1
  C  C807  1  0.90123000  0.04523000  0.44711000  1
  C  C808  1  0.73793000  0.04493000  0.04821000  1
  C  C809  1  0.45689000  0.04339000  0.12803000  1
  C  C810  1  0.45661000  0.04311000  0.37197000  1
  C  C811  1  0.87561000  0.04161000  0.49427000  1
  C  C812  1  0.47335000  0.03735000  0.66445000  1
  C  C813  1  0.23100000  0.03590000  0.98320000  1
  C  C814  1  0.68462000  0.03302000  0.61544000  1
  C  C815  1  0.50595000  0.03175000  0.14105000  1
  C  C816  1  0.28730000  0.02900000  0.97270000  1
  C  C817  1  0.55928000  0.02858000  0.34146000  1
  C  C818  1  0.88039000  0.02749000  0.42503000  1
  C  C819  1  0.46265000  0.02665000  0.83555000  1
  C  C820  1  0.64509000  0.02528000  0.20969000  1
  C  C821  1  0.83020000  0.02210000  0.51860000  1
  C  C822  1  0.32843000  0.02183000  0.52511000  1
  C  C823  1  0.42707000  0.02177000  0.67189000  1
  C  C824  1  0.36000000  0.02012000  0.79697000  1
  C  C825  1  0.66944000  0.01464000  0.04818000  1
  C  C826  1  0.73371000  0.01456000  0.80827000  1
  C  C827  1  0.26992000  0.01452000  0.36584000  1
  C  C828  1  0.69233000  0.01205000  0.22592000  1
  C  C829  1  0.83458000  0.00848000  0.44846000  1
  C  C830  1  0.06060000  0.00780000  0.23675000  1
  C  C831  1  0.24180000  0.00720000  0.34160000  1
  C  C832  1  0.69179000  0.00619000  0.42833000  1
  C  C833  1  0.53175000  0.00595000  0.64105000  1
  C  C834  1  0.80936000  0.00576000  0.49442000  1
  C  C835  1  0.56020000  0.00250000  0.86300000  1
  C  C836  1  0.78396000  0.00176000  0.02412000  1
  C  C837  1  0.38913000  0.00173000  0.50291000  1
  N  N838  1  0.59055000  0.99785000  0.18545000  1
  N  N839  1  0.43568000  0.99148000  0.00036000  1
  N  N840  1  0.60620000  0.97300000  0.97840000  1
  N  N841  1  0.58736000  0.95626000  0.18062000  1
  N  N842  1  0.10620000  0.94240000  0.47840000  1
  N  N843  1  0.49148000  0.93568000  0.50036000  1
  N  N844  1  0.06432000  0.92752000  0.49964000  1
  N  N845  1  0.54374000  0.91264000  0.31938000  1
  N  N846  1  0.50215000  0.90945000  0.31455000  1
  N  N847  1  0.36967000  0.90577000  0.91669000  1
  N  N848  1  0.52700000  0.89380000  0.52160000  1
  N  N849  1  0.35866000  0.87906000  0.89992000  1
  N  N850  1  0.40577000  0.86967000  0.41669000  1
  N  N851  1  0.87906000  0.86236000  0.89992000  1
  N  N852  1  0.37906000  0.85866000  0.39992000  1
  N  N853  1  0.90577000  0.80787000  0.91669000  1
  N  N854  1  0.08736000  0.77576000  0.68062000  1
  N  N855  1  0.00215000  0.77385000  0.81455000  1
  N  N856  1  0.09055000  0.72615000  0.68545000  1
  N  N857  1  0.04374000  0.72424000  0.81938000  1
  N  N858  1  0.13033000  0.69213000  0.58331000  1
  N  N859  1  0.13764000  0.64134000  0.10008000  1
  N  N860  1  0.14134000  0.63764000  0.60008000  1
  N  N861  1  0.19213000  0.63033000  0.08331000  1
  N  N862  1  0.63764000  0.62094000  0.60008000  1
  N  N863  1  0.44240000  0.60620000  0.97840000  1
  N  N864  1  0.69213000  0.59423000  0.58331000  1
  N  N865  1  0.22615000  0.59055000  0.18545000  1
  N  N866  1  0.27576000  0.58736000  0.18062000  1
  N  N867  1  0.99148000  0.57248000  0.00036000  1
  N  N868  1  0.42752000  0.56432000  0.99964000  1
  N  N869  1  0.02700000  0.55760000  0.02160000  1
  N  N870  1  0.22424000  0.54374000  0.31938000  1
  N  N871  1  0.05760000  0.52700000  0.52160000  1
  N  N872  1  0.92752000  0.50852000  0.49964000  1
  N  N873  1  0.27385000  0.50215000  0.31455000  1
  N  N874  1  0.72615000  0.49785000  0.68545000  1
  N  N875  1  0.07248000  0.49148000  0.50036000  1
  N  N876  1  0.94240000  0.47300000  0.47840000  1
  N  N877  1  0.77576000  0.45626000  0.68062000  1
  N  N878  1  0.97300000  0.44240000  0.97840000  1
  N  N879  1  0.57248000  0.43568000  0.00036000  1
  N  N880  1  0.00852000  0.42752000  0.99964000  1
  N  N881  1  0.72424000  0.41264000  0.81938000  1
  N  N882  1  0.77385000  0.40945000  0.81455000  1
  N  N883  1  0.30787000  0.40577000  0.41669000  1
  N  N884  1  0.55760000  0.39380000  0.02160000  1
  N  N885  1  0.36236000  0.37906000  0.39992000  1
  N  N886  1  0.80787000  0.36967000  0.91669000  1
  N  N887  1  0.85866000  0.36236000  0.39992000  1
  N  N888  1  0.86236000  0.35866000  0.89992000  1
  N  N889  1  0.86967000  0.30787000  0.41669000  1
  N  N890  1  0.95626000  0.27576000  0.18062000  1
  N  N891  1  0.90945000  0.27385000  0.31455000  1
  N  N892  1  0.99785000  0.22615000  0.18545000  1
  N  N893  1  0.91264000  0.22424000  0.31938000  1
  N  N894  1  0.09423000  0.19213000  0.08331000  1
  N  N895  1  0.62094000  0.14134000  0.60008000  1
  N  N896  1  0.12094000  0.13764000  0.10008000  1
  N  N897  1  0.59423000  0.13033000  0.58331000  1
  N  N898  1  0.64134000  0.12094000  0.10008000  1
  N  N899  1  0.47300000  0.10620000  0.47840000  1
  N  N900  1  0.63033000  0.09423000  0.08331000  1
  N  N901  1  0.49785000  0.09055000  0.68545000  1
  N  N902  1  0.45626000  0.08736000  0.68062000  1
  N  N903  1  0.93568000  0.07248000  0.50036000  1
  N  N904  1  0.50852000  0.06432000  0.49964000  1
  N  N905  1  0.89380000  0.05760000  0.52160000  1
  N  N906  1  0.41264000  0.04374000  0.81938000  1
  N  N907  1  0.39380000  0.02700000  0.02160000  1
  N  N908  1  0.56432000  0.00852000  0.99964000  1
  N  N909  1  0.40945000  0.00215000  0.81455000  1
  O  O910  1  0.89161000  0.99449000  0.76292000  1
  O  O911  1  0.19015000  0.98645000  0.29372000  1
  O  O912  1  0.30985000  0.97032000  0.20628000  1
  O  O913  1  0.04929000  0.96375000  0.24494000  1
  O  O914  1  0.25798000  0.95071000  0.75506000  1
  O  O915  1  0.24419000  0.94803000  0.20091000  1
  O  O916  1  0.27348000  0.92688000  0.66434000  1
  O  O917  1  0.11971000  0.91748000  0.33137000  1
  O  O918  1  0.71262000  0.91455000  0.62234000  1
  O  O919  1  0.76874000  0.90555000  0.47987000  1
  O  O920  1  0.69224000  0.90493000  0.54431000  1
  O  O921  1  0.16557000  0.90325000  0.74972000  1
  O  O922  1  0.25581000  0.89313000  0.29909000  1
  O  O923  1  0.35098000  0.89161000  0.76292000  1
  O  O924  1  0.80496000  0.88933000  0.62807000  1
  O  O925  1  0.36856000  0.88029000  0.66863000  1
  O  O926  1  0.18391000  0.87211000  0.24443000  1
  O  O927  1  0.38029000  0.86856000  0.16863000  1
  O  O928  1  0.07312000  0.86470000  0.33566000  1
  O  O929  1  0.90493000  0.85852000  0.54431000  1
  O  O930  1  0.39161000  0.85098000  0.26292000  1
  O  O931  1  0.90555000  0.84584000  0.47987000  1
  O  O932  1  0.81854000  0.83443000  0.25028000  1
  O  O933  1  0.69504000  0.82236000  0.87193000  1
  O  O934  1  0.09675000  0.81854000  0.25028000  1
  O  O935  1  0.30045000  0.81609000  0.75557000  1
  O  O936  1  0.47032000  0.80985000  0.70628000  1
  O  O937  1  0.80875000  0.80875000  0.57375000  1
  O  O938  1  0.59507000  0.80776000  0.95569000  1
  O  O939  1  0.19482000  0.80635000  0.75791000  1
  O  O940  1  0.75908000  0.80518000  0.24209000  1
  O  O941  1  0.67764000  0.80496000  0.62807000  1
  O  O942  1  0.31609000  0.80045000  0.25557000  1
  O  O943  1  0.58545000  0.78738000  0.87766000  1
  O  O944  1  0.42688000  0.77348000  0.16434000  1
  O  O945  1  0.84584000  0.76874000  0.47987000  1
  O  O946  1  0.19365000  0.75908000  0.24209000  1
  O  O947  1  0.45071000  0.75798000  0.25506000  1
  O  O948  1  0.39313000  0.75581000  0.79909000  1
  O  O949  1  0.91455000  0.75049000  0.62234000  1
  O  O950  1  0.78738000  0.74951000  0.87766000  1
  O  O951  1  0.44803000  0.74419000  0.70091000  1
  O  O952  1  0.96375000  0.74202000  0.24494000  1
  O  O953  1  0.69482000  0.74092000  0.25791000  1
  O  O954  1  0.59445000  0.73126000  0.02013000  1
  O  O955  1  0.86470000  0.72652000  0.33566000  1
  O  O956  1  0.75049000  0.71262000  0.62234000  1
  O  O957  1  0.87211000  0.69955000  0.24443000  1
  O  O958  1  0.61067000  0.69504000  0.87193000  1
  O  O959  1  0.30635000  0.69482000  0.25791000  1
  O  O960  1  0.25908000  0.69365000  0.74209000  1
  O  O961  1  0.85852000  0.69224000  0.54431000  1
  O  O962  1  0.69125000  0.69125000  0.92625000  1
  O  O963  1  0.48645000  0.69015000  0.79372000  1
  O  O964  1  0.37211000  0.68391000  0.74443000  1
  O  O965  1  0.66557000  0.68146000  0.24972000  1
  O  O966  1  0.88933000  0.67764000  0.62807000  1
  O  O967  1  0.40325000  0.66557000  0.24972000  1
  O  O968  1  0.73126000  0.65416000  0.02013000  1
  O  O969  1  0.00551000  0.64902000  0.23708000  1
  O  O970  1  0.80776000  0.64148000  0.95569000  1
  O  O971  1  0.77348000  0.63530000  0.16434000  1
  O  O972  1  0.91748000  0.63144000  0.33137000  1
  O  O973  1  0.80045000  0.62789000  0.25557000  1
  O  O974  1  0.41748000  0.61971000  0.83137000  1
  O  O975  1  0.82236000  0.61067000  0.87193000  1
  O  O976  1  0.50551000  0.60839000  0.73708000  1
  O  O977  1  0.94803000  0.60687000  0.20091000  1
  O  O978  1  0.31854000  0.59675000  0.75028000  1
  O  O979  1  0.64148000  0.59507000  0.95569000  1
  O  O980  1  0.65416000  0.59445000  0.02013000  1
  O  O981  1  0.74951000  0.58545000  0.87766000  1
  O  O982  1  0.86856000  0.58252000  0.16863000  1
  O  O983  1  0.36470000  0.57312000  0.83566000  1
  O  O984  1  0.89313000  0.55197000  0.29909000  1
  O  O985  1  0.46375000  0.54929000  0.74494000  1
  O  O986  1  0.75798000  0.53625000  0.25506000  1
  O  O987  1  0.98645000  0.52968000  0.29372000  1
  O  O988  1  0.97032000  0.51355000  0.20628000  1
  O  O989  1  0.14902000  0.50551000  0.73708000  1
  O  O990  1  0.85098000  0.49449000  0.26292000  1
  O  O991  1  0.02968000  0.48645000  0.79372000  1
  O  O992  1  0.01355000  0.47032000  0.70628000  1
  O  O993  1  0.24202000  0.46375000  0.74494000  1
  O  O994  1  0.53625000  0.45071000  0.25506000  1
  O  O995  1  0.10687000  0.44803000  0.70091000  1
  O  O996  1  0.63530000  0.42688000  0.16434000  1
  O  O997  1  0.13144000  0.41748000  0.83137000  1
  O  O998  1  0.25049000  0.41455000  0.12234000  1
  O  O999  1  0.34584000  0.40555000  0.97987000  1
  O  O1000  1  0.35852000  0.40493000  0.04431000  1
  O  O1001  1  0.68146000  0.40325000  0.24972000  1
  O  O1002  1  0.05197000  0.39313000  0.79909000  1
  O  O1003  1  0.49449000  0.39161000  0.26292000  1
  O  O1004  1  0.17764000  0.38933000  0.12807000  1
  O  O1005  1  0.58252000  0.38029000  0.16863000  1
  O  O1006  1  0.19955000  0.37211000  0.74443000  1
  O  O1007  1  0.08252000  0.36856000  0.66863000  1
  O  O1008  1  0.22652000  0.36470000  0.83566000  1
  O  O1009  1  0.19224000  0.35852000  0.04431000  1
  O  O1010  1  0.99449000  0.35098000  0.76292000  1
  O  O1011  1  0.26874000  0.34584000  0.97987000  1
  O  O1012  1  0.59675000  0.33443000  0.75028000  1
  O  O1013  1  0.11067000  0.32236000  0.37193000  1
  O  O1014  1  0.33443000  0.31854000  0.75028000  1
  O  O1015  1  0.62789000  0.31609000  0.25557000  1
  O  O1016  1  0.51355000  0.30985000  0.20628000  1
  O  O1017  1  0.30875000  0.30875000  0.07375000  1
  O  O1018  1  0.14148000  0.30776000  0.45569000  1
  O  O1019  1  0.74092000  0.30635000  0.25791000  1
  O  O1020  1  0.69365000  0.30518000  0.74209000  1
  O  O1021  1  0.38933000  0.30496000  0.12807000  1
  O  O1022  1  0.12789000  0.30045000  0.75557000  1
  O  O1023  1  0.24951000  0.28738000  0.37766000  1
  O  O1024  1  0.13530000  0.27348000  0.66434000  1
  O  O1025  1  0.40555000  0.26874000  0.97987000  1
  O  O1026  1  0.30518000  0.25908000  0.74209000  1
  O  O1027  1  0.03625000  0.25798000  0.75506000  1
  O  O1028  1  0.55197000  0.25581000  0.29909000  1
  O  O1029  1  0.21262000  0.25049000  0.12234000  1
  O  O1030  1  0.08545000  0.24951000  0.37766000  1
  O  O1031  1  0.60687000  0.24419000  0.20091000  1
  O  O1032  1  0.54929000  0.24202000  0.74494000  1
  O  O1033  1  0.80635000  0.24092000  0.75791000  1
  O  O1034  1  0.15416000  0.23126000  0.52013000  1
  O  O1035  1  0.57312000  0.22652000  0.83566000  1
  O  O1036  1  0.41455000  0.21262000  0.12234000  1
  O  O1037  1  0.68391000  0.19955000  0.74443000  1
  O  O1038  1  0.32236000  0.19504000  0.37193000  1
  O  O1039  1  0.24092000  0.19482000  0.75791000  1
  O  O1040  1  0.80518000  0.19365000  0.24209000  1
  O  O1041  1  0.40493000  0.19224000  0.04431000  1
  O  O1042  1  0.19125000  0.19125000  0.42625000  1
  O  O1043  1  0.52968000  0.19015000  0.29372000  1
  O  O1044  1  0.69955000  0.18391000  0.24443000  1
  O  O1045  1  0.90325000  0.18146000  0.74972000  1
  O  O1046  1  0.30496000  0.17764000  0.12807000  1
  O  O1047  1  0.18146000  0.16557000  0.74972000  1
  O  O1048  1  0.09445000  0.15416000  0.52013000  1
  O  O1049  1  0.60839000  0.14902000  0.73708000  1
  O  O1050  1  0.09507000  0.14148000  0.45569000  1
  O  O1051  1  0.92688000  0.13530000  0.66434000  1
  O  O1052  1  0.61971000  0.13144000  0.83137000  1
  O  O1053  1  0.81609000  0.12789000  0.75557000  1
  O  O1054  1  0.63144000  0.11971000  0.33137000  1
  O  O1055  1  0.19504000  0.11067000  0.37193000  1
  O  O1056  1  0.64902000  0.10839000  0.23708000  1
  O  O1057  1  0.74419000  0.10687000  0.70091000  1
  O  O1058  1  0.83443000  0.09675000  0.25028000  1
  O  O1059  1  0.30776000  0.09507000  0.45569000  1
  O  O1060  1  0.23126000  0.09445000  0.52013000  1
  O  O1061  1  0.28738000  0.08545000  0.37766000  1
  O  O1062  1  0.88029000  0.08252000  0.66863000  1
  O  O1063  1  0.72652000  0.07312000  0.33566000  1
  O  O1064  1  0.75581000  0.05197000  0.79909000  1
  O  O1065  1  0.74202000  0.04929000  0.24494000  1
  O  O1066  1  0.95071000  0.03625000  0.75506000  1
  O  O1067  1  0.69015000  0.02968000  0.79372000  1
  O  O1068  1  0.80985000  0.01355000  0.70628000  1
  O  O1069  1  0.10839000  0.00551000  0.23708000  1
