# generated using pymatgen
data_TbV6H42C44(N2O7)3
_symmetry_space_group_name_H-M   'P 1'
_cell_length_a   13.10200000
_cell_length_b   26.10400000
_cell_length_c   26.27900000
_cell_angle_alpha   90.00000000
_cell_angle_beta   90.00000000
_cell_angle_gamma   93.92300000
_symmetry_Int_Tables_number   1
_chemical_formula_structural   TbV6H42C44(N2O7)3
_chemical_formula_sum   'Tb4 V24 H168 C176 N24 O84'
_cell_volume   8966.74252337
_cell_formula_units_Z   4
loop_
 _symmetry_equiv_pos_site_id
 _symmetry_equiv_pos_as_xyz
  1  'x, y, z'
loop_
 _atom_site_type_symbol
 _atom_site_label
 _atom_site_symmetry_multiplicity
 _atom_site_fract_x
 _atom_site_fract_y
 _atom_site_fract_z
 _atom_site_occupancy
  Tb  Tb0  1  0.47276000  0.38343000  0.29012000  1
  Tb  Tb1  1  0.47276000  0.88343000  0.20988000  1
  Tb  Tb2  1  0.52724000  0.11657000  0.79012000  1
  Tb  Tb3  1  0.52724000  0.61657000  0.70988000  1
  V  V4  1  0.06751000  0.20543000  0.24429000  1
  V  V5  1  0.06751000  0.70543000  0.25571000  1
  V  V6  1  0.06815000  0.15156000  0.34590000  1
  V  V7  1  0.06815000  0.65156000  0.15410000  1
  V  V8  1  0.08573000  0.08160000  0.25539000  1
  V  V9  1  0.08573000  0.58160000  0.24461000  1
  V  V10  1  0.12083000  0.42886000  0.80663000  1
  V  V11  1  0.12083000  0.92886000  0.69337000  1
  V  V12  1  0.12121000  0.37497000  0.70503000  1
  V  V13  1  0.12121000  0.87497000  0.79497000  1
  V  V14  1  0.13884000  0.30448000  0.79611000  1
  V  V15  1  0.13884000  0.80448000  0.70389000  1
  V  V16  1  0.86116000  0.19552000  0.29611000  1
  V  V17  1  0.86116000  0.69552000  0.20389000  1
  V  V18  1  0.87879000  0.12503000  0.20503000  1
  V  V19  1  0.87879000  0.62503000  0.29497000  1
  V  V20  1  0.87917000  0.07114000  0.30663000  1
  V  V21  1  0.87917000  0.57114000  0.19337000  1
  V  V22  1  0.91427000  0.41840000  0.75539000  1
  V  V23  1  0.91427000  0.91840000  0.74461000  1
  V  V24  1  0.93185000  0.34844000  0.84590000  1
  V  V25  1  0.93185000  0.84844000  0.65410000  1
  V  V26  1  0.93249000  0.29457000  0.74429000  1
  V  V27  1  0.93249000  0.79457000  0.75571000  1
  H  H28  1  0.01070000  0.42330000  0.61570000  1
  H  H29  1  0.01070000  0.92330000  0.88430000  1
  H  H30  1  0.02360000  0.32710000  0.60780000  1
  H  H31  1  0.02360000  0.82710000  0.89220000  1
  H  H32  1  0.02600000  0.47010000  0.29500000  1
  H  H33  1  0.02600000  0.97010000  0.20500000  1
  H  H34  1  0.02820000  0.39570000  0.94290000  1
  H  H35  1  0.02820000  0.89570000  0.55710000  1
  H  H36  1  0.04790000  0.29860000  0.93320000  1
  H  H37  1  0.04790000  0.79860000  0.56680000  1
  H  H38  1  0.05200000  0.32510000  0.25320000  1
  H  H39  1  0.05200000  0.82510000  0.24680000  1
  H  H40  1  0.06910000  0.21130000  0.12740000  1
  H  H41  1  0.06910000  0.71130000  0.37260000  1
  H  H42  1  0.09100000  0.05360000  0.13790000  1
  H  H43  1  0.09100000  0.55360000  0.36210000  1
  H  H44  1  0.11160000  0.18570000  0.77410000  1
  H  H45  1  0.11160000  0.68570000  0.72590000  1
  H  H46  1  0.11270000  0.03430000  0.74490000  1
  H  H47  1  0.11270000  0.53430000  0.75510000  1
  H  H48  1  0.11730000  0.43670000  0.92430000  1
  H  H49  1  0.11730000  0.93670000  0.57570000  1
  H  H50  1  0.13740000  0.10090000  0.06060000  1
  H  H51  1  0.13740000  0.60090000  0.43940000  1
  H  H52  1  0.14940000  0.19990000  0.06010000  1
  H  H53  1  0.14940000  0.69990000  0.43990000  1
  H  H54  1  0.14970000  0.27980000  0.90750000  1
  H  H55  1  0.14970000  0.77980000  0.59250000  1
  H  H56  1  0.15110000  0.18960000  0.96370000  1
  H  H57  1  0.15110000  0.68960000  0.53630000  1
  H  H58  1  0.17770000  0.38610000  0.99110000  1
  H  H59  1  0.17770000  0.88610000  0.50890000  1
  H  H60  1  0.19140000  0.47460000  0.32500000  1
  H  H61  1  0.19140000  0.97460000  0.17500000  1
  H  H62  1  0.22070000  0.33160000  0.27820000  1
  H  H63  1  0.22070000  0.83160000  0.22180000  1
  H  H64  1  0.22460000  0.17670000  0.16480000  1
  H  H65  1  0.22460000  0.67670000  0.33520000  1
  H  H66  1  0.23400000  0.11620000  0.17200000  1
  H  H67  1  0.23400000  0.61620000  0.32800000  1
  H  H68  1  0.23910000  0.16680000  0.88850000  1
  H  H69  1  0.23910000  0.66680000  0.61150000  1
  H  H70  1  0.24200000  0.27580000  0.06460000  1
  H  H71  1  0.24200000  0.77580000  0.43540000  1
  H  H72  1  0.24770000  0.18400000  0.09110000  1
  H  H73  1  0.24770000  0.68400000  0.40890000  1
  H  H74  1  0.25030000  0.29480000  0.98780000  1
  H  H75  1  0.25030000  0.79480000  0.51220000  1
  H  H76  1  0.27820000  0.40400000  0.88440000  1
  H  H77  1  0.27820000  0.90400000  0.61560000  1
  H  H78  1  0.28580000  0.19420000  0.76160000  1
  H  H79  1  0.28580000  0.69420000  0.73840000  1
  H  H80  1  0.28690000  0.04760000  0.72670000  1
  H  H81  1  0.28690000  0.54760000  0.77330000  1
  H  H82  1  0.28850000  0.23830000  0.29660000  1
  H  H83  1  0.28850000  0.73830000  0.20340000  1
  H  H84  1  0.28990000  0.34350000  0.88130000  1
  H  H85  1  0.28990000  0.84350000  0.61870000  1
  H  H86  1  0.29120000  0.29540000  0.15510000  1
  H  H87  1  0.29120000  0.79540000  0.34490000  1
  H  H88  1  0.31150000  0.15690000  0.26950000  1
  H  H89  1  0.31150000  0.65690000  0.23050000  1
  H  H90  1  0.33370000  0.46070000  0.72430000  1
  H  H91  1  0.33370000  0.96070000  0.77570000  1
  H  H92  1  0.33880000  0.33500000  0.96640000  1
  H  H93  1  0.33880000  0.83500000  0.53360000  1
  H  H94  1  0.33900000  0.08020000  0.26520000  1
  H  H95  1  0.33900000  0.58020000  0.23480000  1
  H  H96  1  0.36110000  0.38090000  0.75100000  1
  H  H97  1  0.36110000  0.88090000  0.74900000  1
  H  H98  1  0.36470000  0.42470000  0.03910000  1
  H  H99  1  0.36470000  0.92470000  0.46090000  1
  H  H100  1  0.36700000  0.49750000  0.26770000  1
  H  H101  1  0.36700000  0.99750000  0.23230000  1
  H  H102  1  0.37020000  0.13320000  0.05120000  1
  H  H103  1  0.37020000  0.63320000  0.44880000  1
  H  H104  1  0.38630000  0.31590000  0.79530000  1
  H  H105  1  0.38630000  0.81590000  0.70470000  1
  H  H106  1  0.40810000  0.43660000  0.13220000  1
  H  H107  1  0.40810000  0.93660000  0.36780000  1
  H  H108  1  0.41490000  0.23440000  0.82020000  1
  H  H109  1  0.41490000  0.73440000  0.67980000  1
  H  H110  1  0.45850000  0.11020000  0.97710000  1
  H  H111  1  0.45850000  0.61020000  0.52290000  1
  H  H112  1  0.54150000  0.38980000  0.47710000  1
  H  H113  1  0.54150000  0.88980000  0.02290000  1
  H  H114  1  0.58510000  0.26560000  0.32020000  1
  H  H115  1  0.58510000  0.76560000  0.17980000  1
  H  H116  1  0.59190000  0.06340000  0.63220000  1
  H  H117  1  0.59190000  0.56340000  0.86780000  1
  H  H118  1  0.61370000  0.18410000  0.29530000  1
  H  H119  1  0.61370000  0.68410000  0.20470000  1
  H  H120  1  0.62980000  0.36680000  0.55120000  1
  H  H121  1  0.62980000  0.86680000  0.94880000  1
  H  H122  1  0.63300000  0.00250000  0.76770000  1
  H  H123  1  0.63300000  0.50250000  0.73230000  1
  H  H124  1  0.63530000  0.07530000  0.53910000  1
  H  H125  1  0.63530000  0.57530000  0.96090000  1
  H  H126  1  0.63890000  0.11910000  0.25100000  1
  H  H127  1  0.63890000  0.61910000  0.24900000  1
  H  H128  1  0.66100000  0.41980000  0.76520000  1
  H  H129  1  0.66100000  0.91980000  0.73480000  1
  H  H130  1  0.66120000  0.16500000  0.46640000  1
  H  H131  1  0.66120000  0.66500000  0.03360000  1
  H  H132  1  0.66630000  0.03930000  0.22430000  1
  H  H133  1  0.66630000  0.53930000  0.27570000  1
  H  H134  1  0.68850000  0.34310000  0.76950000  1
  H  H135  1  0.68850000  0.84310000  0.73050000  1
  H  H136  1  0.70880000  0.20460000  0.65510000  1
  H  H137  1  0.70880000  0.70460000  0.84490000  1
  H  H138  1  0.71010000  0.15650000  0.38130000  1
  H  H139  1  0.71010000  0.65650000  0.11870000  1
  H  H140  1  0.71150000  0.26170000  0.79660000  1
  H  H141  1  0.71150000  0.76170000  0.70340000  1
  H  H142  1  0.71310000  0.45240000  0.22670000  1
  H  H143  1  0.71310000  0.95240000  0.27330000  1
  H  H144  1  0.71420000  0.30580000  0.26160000  1
  H  H145  1  0.71420000  0.80580000  0.23840000  1
  H  H146  1  0.72180000  0.09600000  0.38440000  1
  H  H147  1  0.72180000  0.59600000  0.11560000  1
  H  H148  1  0.74970000  0.20520000  0.48780000  1
  H  H149  1  0.74970000  0.70520000  0.01220000  1
  H  H150  1  0.75230000  0.31600000  0.59110000  1
  H  H151  1  0.75230000  0.81600000  0.90890000  1
  H  H152  1  0.75800000  0.22420000  0.56460000  1
  H  H153  1  0.75800000  0.72420000  0.93540000  1
  H  H154  1  0.76090000  0.33320000  0.38850000  1
  H  H155  1  0.76090000  0.83320000  0.11150000  1
  H  H156  1  0.76600000  0.38380000  0.67200000  1
  H  H157  1  0.76600000  0.88380000  0.82800000  1
  H  H158  1  0.77540000  0.32330000  0.66480000  1
  H  H159  1  0.77540000  0.82330000  0.83520000  1
  H  H160  1  0.77930000  0.16840000  0.77820000  1
  H  H161  1  0.77930000  0.66840000  0.72180000  1
  H  H162  1  0.80860000  0.02540000  0.82500000  1
  H  H163  1  0.80860000  0.52540000  0.67500000  1
  H  H164  1  0.82230000  0.11390000  0.49110000  1
  H  H165  1  0.82230000  0.61390000  0.00890000  1
  H  H166  1  0.84890000  0.31040000  0.46370000  1
  H  H167  1  0.84890000  0.81040000  0.03630000  1
  H  H168  1  0.85030000  0.22020000  0.40750000  1
  H  H169  1  0.85030000  0.72020000  0.09250000  1
  H  H170  1  0.85060000  0.30010000  0.56010000  1
  H  H171  1  0.85060000  0.80010000  0.93990000  1
  H  H172  1  0.86260000  0.39910000  0.56060000  1
  H  H173  1  0.86260000  0.89910000  0.93940000  1
  H  H174  1  0.88270000  0.06330000  0.42430000  1
  H  H175  1  0.88270000  0.56330000  0.07570000  1
  H  H176  1  0.88730000  0.46570000  0.24490000  1
  H  H177  1  0.88730000  0.96570000  0.25510000  1
  H  H178  1  0.88840000  0.31430000  0.27410000  1
  H  H179  1  0.88840000  0.81430000  0.22590000  1
  H  H180  1  0.90900000  0.44640000  0.63790000  1
  H  H181  1  0.90900000  0.94640000  0.86210000  1
  H  H182  1  0.93090000  0.28870000  0.62740000  1
  H  H183  1  0.93090000  0.78870000  0.87260000  1
  H  H184  1  0.94800000  0.17490000  0.75320000  1
  H  H185  1  0.94800000  0.67490000  0.74680000  1
  H  H186  1  0.95210000  0.20140000  0.43320000  1
  H  H187  1  0.95210000  0.70140000  0.06680000  1
  H  H188  1  0.97180000  0.10430000  0.44290000  1
  H  H189  1  0.97180000  0.60430000  0.05710000  1
  H  H190  1  0.97400000  0.02990000  0.79500000  1
  H  H191  1  0.97400000  0.52990000  0.70500000  1
  H  H192  1  0.97640000  0.17290000  0.10780000  1
  H  H193  1  0.97640000  0.67290000  0.39220000  1
  H  H194  1  0.98930000  0.07670000  0.11570000  1
  H  H195  1  0.98930000  0.57670000  0.38430000  1
  C  C196  1  0.02090000  0.39710000  0.27390000  1
  C  C197  1  0.02090000  0.89710000  0.22610000  1
  C  C198  1  0.02880000  0.17870000  0.13470000  1
  C  C199  1  0.02880000  0.67870000  0.36530000  1
  C  C200  1  0.04370000  0.08140000  0.14170000  1
  C  C201  1  0.04370000  0.58140000  0.35830000  1
  C  C202  1  0.06480000  0.44070000  0.29280000  1
  C  C203  1  0.06480000  0.94070000  0.20720000  1
  C  C204  1  0.08060000  0.35620000  0.26770000  1
  C  C205  1  0.08060000  0.85620000  0.23230000  1
  C  C206  1  0.08110000  0.40310000  0.91650000  1
  C  C207  1  0.08110000  0.90310000  0.58350000  1
  C  C208  1  0.09230000  0.11020000  0.76070000  1
  C  C209  1  0.09230000  0.61020000  0.73930000  1
  C  C210  1  0.09940000  0.30630000  0.90620000  1
  C  C211  1  0.09940000  0.80630000  0.59380000  1
  C  C212  1  0.10060000  0.13310000  0.13590000  1
  C  C213  1  0.10060000  0.63310000  0.36410000  1
  C  C214  1  0.14610000  0.06770000  0.74690000  1
  C  C215  1  0.14610000  0.56770000  0.75310000  1
  C  C216  1  0.14650000  0.15640000  0.76480000  1
  C  C217  1  0.14650000  0.65640000  0.73520000  1
  C  C218  1  0.15650000  0.36140000  0.91670000  1
  C  C219  1  0.15650000  0.86140000  0.58330000  1
  C  C220  1  0.16310000  0.44420000  0.30900000  1
  C  C221  1  0.16310000  0.94420000  0.19100000  1
  C  C222  1  0.17990000  0.36000000  0.28220000  1
  C  C223  1  0.17990000  0.86000000  0.21780000  1
  C  C224  1  0.18620000  0.14390000  0.17370000  1
  C  C225  1  0.18620000  0.64390000  0.32630000  1
  C  C226  1  0.19700000  0.17260000  0.06460000  1
  C  C227  1  0.19700000  0.67260000  0.43540000  1
  C  C228  1  0.21370000  0.17350000  0.96660000  1
  C  C229  1  0.21370000  0.67350000  0.53340000  1
  C  C230  1  0.24080000  0.37050000  0.87760000  1
  C  C231  1  0.24080000  0.87050000  0.62240000  1
  C  C232  1  0.24910000  0.16210000  0.75580000  1
  C  C233  1  0.24910000  0.66210000  0.74420000  1
  C  C234  1  0.24950000  0.07600000  0.73620000  1
  C  C235  1  0.24950000  0.57600000  0.76380000  1
  C  C236  1  0.25210000  0.16380000  0.01540000  1
  C  C237  1  0.25210000  0.66380000  0.48460000  1
  C  C238  1  0.26580000  0.15990000  0.92120000  1
  C  C239  1  0.26580000  0.65990000  0.57880000  1
  C  C240  1  0.27420000  0.30770000  0.07540000  1
  C  C241  1  0.27420000  0.80770000  0.42460000  1
  C  C242  1  0.27700000  0.33120000  0.98780000  1
  C  C243  1  0.27700000  0.83120000  0.51220000  1
  C  C244  1  0.30000000  0.35010000  0.04300000  1
  C  C245  1  0.30000000  0.85010000  0.45700000  1
  C  C246  1  0.30510000  0.32070000  0.12960000  1
  C  C247  1  0.30510000  0.82070000  0.37040000  1
  C  C248  1  0.34280000  0.14030000  0.01870000  1
  C  C249  1  0.34280000  0.64030000  0.48130000  1
  C  C250  1  0.34850000  0.36350000  0.14270000  1
  C  C251  1  0.34850000  0.86350000  0.35730000  1
  C  C252  1  0.34900000  0.39750000  0.06200000  1
  C  C253  1  0.34900000  0.89750000  0.43800000  1
  C  C254  1  0.35560000  0.22660000  0.29570000  1
  C  C255  1  0.35560000  0.72660000  0.20430000  1
  C  C256  1  0.35790000  0.13610000  0.92690000  1
  C  C257  1  0.35790000  0.63610000  0.57310000  1
  C  C258  1  0.36830000  0.17910000  0.27980000  1
  C  C259  1  0.36830000  0.67910000  0.22020000  1
  C  C260  1  0.37600000  0.40610000  0.11800000  1
  C  C261  1  0.37600000  0.90610000  0.38200000  1
  C  C262  1  0.38250000  0.37020000  0.19470000  1
  C  C263  1  0.38250000  0.87020000  0.30530000  1
  C  C264  1  0.39600000  0.12640000  0.97410000  1
  C  C265  1  0.39600000  0.62640000  0.52590000  1
  C  C266  1  0.40180000  0.45250000  0.73150000  1
  C  C267  1  0.40180000  0.95250000  0.76850000  1
  C  C268  1  0.40630000  0.07210000  0.25630000  1
  C  C269  1  0.40630000  0.57210000  0.24370000  1
  C  C270  1  0.41350000  0.12390000  0.87930000  1
  C  C271  1  0.41350000  0.62390000  0.62070000  1
  C  C272  1  0.41740000  0.40570000  0.74840000  1
  C  C273  1  0.41740000  0.90570000  0.75160000  1
  C  C274  1  0.42290000  0.02230000  0.23660000  1
  C  C275  1  0.42290000  0.52230000  0.26340000  1
  C  C276  1  0.45400000  0.30500000  0.79460000  1
  C  C277  1  0.45400000  0.80500000  0.70540000  1
  C  C278  1  0.46950000  0.16250000  0.27870000  1
  C  C279  1  0.46950000  0.66250000  0.22130000  1
  C  C280  1  0.47090000  0.25700000  0.80990000  1
  C  C281  1  0.47090000  0.75700000  0.69010000  1
  C  C282  1  0.48510000  0.10790000  0.26240000  1
  C  C283  1  0.48510000  0.60790000  0.23760000  1
  C  C284  1  0.51490000  0.39210000  0.76240000  1
  C  C285  1  0.51490000  0.89210000  0.73760000  1
  C  C286  1  0.52910000  0.24300000  0.30990000  1
  C  C287  1  0.52910000  0.74300000  0.19010000  1
  C  C288  1  0.53050000  0.33750000  0.77870000  1
  C  C289  1  0.53050000  0.83750000  0.72130000  1
  C  C290  1  0.54600000  0.19500000  0.29460000  1
  C  C291  1  0.54600000  0.69500000  0.20540000  1
  C  C292  1  0.57710000  0.47770000  0.73660000  1
  C  C293  1  0.57710000  0.97770000  0.76340000  1
  C  C294  1  0.58260000  0.09430000  0.24840000  1
  C  C295  1  0.58260000  0.59430000  0.25160000  1
  C  C296  1  0.58650000  0.37610000  0.37930000  1
  C  C297  1  0.58650000  0.87610000  0.12070000  1
  C  C298  1  0.59370000  0.42790000  0.75630000  1
  C  C299  1  0.59370000  0.92790000  0.74370000  1
  C  C300  1  0.59820000  0.04750000  0.23150000  1
  C  C301  1  0.59820000  0.54750000  0.26850000  1
  C  C302  1  0.60400000  0.37360000  0.47410000  1
  C  C303  1  0.60400000  0.87360000  0.02590000  1
  C  C304  1  0.61750000  0.12980000  0.69470000  1
  C  C305  1  0.61750000  0.62980000  0.80530000  1
  C  C306  1  0.62400000  0.09390000  0.61800000  1
  C  C307  1  0.62400000  0.59390000  0.88200000  1
  C  C308  1  0.63170000  0.32090000  0.77980000  1
  C  C309  1  0.63170000  0.82090000  0.72020000  1
  C  C310  1  0.64210000  0.36390000  0.42690000  1
  C  C311  1  0.64210000  0.86390000  0.07310000  1
  C  C312  1  0.64440000  0.27340000  0.79570000  1
  C  C313  1  0.64440000  0.77340000  0.70430000  1
  C  C314  1  0.65100000  0.10250000  0.56200000  1
  C  C315  1  0.65100000  0.60250000  0.93800000  1
  C  C316  1  0.65150000  0.13650000  0.64270000  1
  C  C317  1  0.65150000  0.63650000  0.85730000  1
  C  C318  1  0.65720000  0.35970000  0.51870000  1
  C  C319  1  0.65720000  0.85970000  0.98130000  1
  C  C320  1  0.69490000  0.17930000  0.62960000  1
  C  C321  1  0.69490000  0.67930000  0.87040000  1
  C  C322  1  0.70000000  0.14990000  0.54300000  1
  C  C323  1  0.70000000  0.64990000  0.95700000  1
  C  C324  1  0.72300000  0.16880000  0.48780000  1
  C  C325  1  0.72300000  0.66880000  0.01220000  1
  C  C326  1  0.72580000  0.19230000  0.57540000  1
  C  C327  1  0.72580000  0.69230000  0.92460000  1
  C  C328  1  0.73420000  0.34010000  0.42120000  1
  C  C329  1  0.73420000  0.84010000  0.07880000  1
  C  C330  1  0.74790000  0.33620000  0.51540000  1
  C  C331  1  0.74790000  0.83620000  0.98460000  1
  C  C332  1  0.75050000  0.42400000  0.23620000  1
  C  C333  1  0.75050000  0.92400000  0.26380000  1
  C  C334  1  0.75090000  0.33790000  0.25580000  1
  C  C335  1  0.75090000  0.83790000  0.24420000  1
  C  C336  1  0.75920000  0.12950000  0.37760000  1
  C  C337  1  0.75920000  0.62950000  0.12240000  1
  C  C338  1  0.78630000  0.32650000  0.46660000  1
  C  C339  1  0.78630000  0.82650000  0.03340000  1
  C  C340  1  0.80300000  0.32740000  0.56460000  1
  C  C341  1  0.80300000  0.82740000  0.93540000  1
  C  C342  1  0.81380000  0.35610000  0.67370000  1
  C  C343  1  0.81380000  0.85610000  0.82630000  1
  C  C344  1  0.82010000  0.14000000  0.78220000  1
  C  C345  1  0.82010000  0.64000000  0.71780000  1
  C  C346  1  0.83690000  0.05580000  0.80900000  1
  C  C347  1  0.83690000  0.55580000  0.69100000  1
  C  C348  1  0.84350000  0.13860000  0.41670000  1
  C  C349  1  0.84350000  0.63860000  0.08330000  1
  C  C350  1  0.85350000  0.34360000  0.26480000  1
  C  C351  1  0.85350000  0.84360000  0.23520000  1
  C  C352  1  0.85390000  0.43230000  0.24690000  1
  C  C353  1  0.85390000  0.93230000  0.25310000  1
  C  C354  1  0.89940000  0.36690000  0.63590000  1
  C  C355  1  0.89940000  0.86690000  0.86410000  1
  C  C356  1  0.90060000  0.19370000  0.40620000  1
  C  C357  1  0.90060000  0.69370000  0.09380000  1
  C  C358  1  0.90770000  0.38980000  0.26070000  1
  C  C359  1  0.90770000  0.88980000  0.23930000  1
  C  C360  1  0.91890000  0.09690000  0.41650000  1
  C  C361  1  0.91890000  0.59690000  0.08350000  1
  C  C362  1  0.91940000  0.14380000  0.76770000  1
  C  C363  1  0.91940000  0.64380000  0.73230000  1
  C  C364  1  0.93520000  0.05930000  0.79280000  1
  C  C365  1  0.93520000  0.55930000  0.70720000  1
  C  C366  1  0.95630000  0.41860000  0.64170000  1
  C  C367  1  0.95630000  0.91860000  0.85830000  1
  C  C368  1  0.97120000  0.32130000  0.63470000  1
  C  C369  1  0.97120000  0.82130000  0.86530000  1
  C  C370  1  0.97910000  0.10290000  0.77390000  1
  C  C371  1  0.97910000  0.60290000  0.72610000  1
  N  N372  1  0.14550000  0.12860000  0.07960000  1
  N  N373  1  0.14550000  0.62860000  0.42040000  1
  N  N374  1  0.20040000  0.36350000  0.96980000  1
  N  N375  1  0.20040000  0.86350000  0.53020000  1
  N  N376  1  0.22010000  0.40370000  0.30200000  1
  N  N377  1  0.22010000  0.90370000  0.19800000  1
  N  N378  1  0.29760000  0.12190000  0.73890000  1
  N  N379  1  0.29760000  0.62190000  0.76110000  1
  N  N380  1  0.43530000  0.25890000  0.31060000  1
  N  N381  1  0.43530000  0.75890000  0.18940000  1
  N  N382  1  0.48020000  0.48960000  0.72400000  1
  N  N383  1  0.48020000  0.98960000  0.77600000  1
  N  N384  1  0.51980000  0.01040000  0.22400000  1
  N  N385  1  0.51980000  0.51040000  0.27600000  1
  N  N386  1  0.56470000  0.24110000  0.81060000  1
  N  N387  1  0.56470000  0.74110000  0.68940000  1
  N  N388  1  0.70240000  0.37810000  0.23890000  1
  N  N389  1  0.70240000  0.87810000  0.26110000  1
  N  N390  1  0.77990000  0.09630000  0.80200000  1
  N  N391  1  0.77990000  0.59630000  0.69800000  1
  N  N392  1  0.79960000  0.13650000  0.46980000  1
  N  N393  1  0.79960000  0.63650000  0.03020000  1
  N  N394  1  0.85450000  0.37140000  0.57960000  1
  N  N395  1  0.85450000  0.87140000  0.92040000  1
  O  O396  1  0.00150000  0.41950000  0.69380000  1
  O  O397  1  0.00150000  0.91950000  0.80620000  1
  O  O398  1  0.00710000  0.46190000  0.78590000  1
  O  O399  1  0.00710000  0.96190000  0.71410000  1
  O  O400  1  0.01990000  0.31880000  0.68430000  1
  O  O401  1  0.01990000  0.81880000  0.81570000  1
  O  O402  1  0.02590000  0.36250000  0.77550000  1
  O  O403  1  0.02590000  0.86250000  0.72450000  1
  O  O404  1  0.03350000  0.40520000  0.86720000  1
  O  O405  1  0.03350000  0.90520000  0.63280000  1
  O  O406  1  0.04580000  0.26140000  0.76550000  1
  O  O407  1  0.04580000  0.76140000  0.73450000  1
  O  O408  1  0.04970000  0.30450000  0.85760000  1
  O  O409  1  0.04970000  0.80450000  0.64240000  1
  O  O410  1  0.12450000  0.20440000  0.30650000  1
  O  O411  1  0.12450000  0.70440000  0.19350000  1
  O  O412  1  0.14340000  0.10500000  0.31450000  1
  O  O413  1  0.14340000  0.60500000  0.18550000  1
  O  O414  1  0.14750000  0.14710000  0.22350000  1
  O  O415  1  0.14750000  0.64710000  0.27650000  1
  O  O416  1  0.17630000  0.42940000  0.74530000  1
  O  O417  1  0.17630000  0.92940000  0.75470000  1
  O  O418  1  0.19870000  0.32820000  0.73610000  1
  O  O419  1  0.19870000  0.82820000  0.76390000  1
  O  O420  1  0.20290000  0.37000000  0.82650000  1
  O  O421  1  0.20290000  0.87000000  0.67350000  1
  O  O422  1  0.31720000  0.40850000  0.31780000  1
  O  O423  1  0.31720000  0.90850000  0.18220000  1
  O  O424  1  0.37660000  0.13570000  0.83690000  1
  O  O425  1  0.37660000  0.63570000  0.66310000  1
  O  O426  1  0.38820000  0.33390000  0.22560000  1
  O  O427  1  0.38820000  0.83390000  0.27440000  1
  O  O428  1  0.39940000  0.12810000  0.73020000  1
  O  O429  1  0.39940000  0.62810000  0.76980000  1
  O  O430  1  0.40390000  0.41630000  0.21240000  1
  O  O431  1  0.40390000  0.91630000  0.28760000  1
  O  O432  1  0.41720000  0.30450000  0.32930000  1
  O  O433  1  0.41720000  0.80450000  0.17070000  1
  O  O434  1  0.46010000  0.03320000  0.79670000  1
  O  O435  1  0.46010000  0.53320000  0.70330000  1
  O  O436  1  0.49990000  0.10430000  0.88170000  1
  O  O437  1  0.49990000  0.60430000  0.61830000  1
  O  O438  1  0.50010000  0.39570000  0.38170000  1
  O  O439  1  0.50010000  0.89570000  0.11830000  1
  O  O440  1  0.53990000  0.46680000  0.29670000  1
  O  O441  1  0.53990000  0.96680000  0.20330000  1
  O  O442  1  0.58280000  0.19550000  0.82930000  1
  O  O443  1  0.58280000  0.69550000  0.67070000  1
  O  O444  1  0.59610000  0.08370000  0.71240000  1
  O  O445  1  0.59610000  0.58370000  0.78760000  1
  O  O446  1  0.60060000  0.37190000  0.23020000  1
  O  O447  1  0.60060000  0.87190000  0.26980000  1
  O  O448  1  0.61180000  0.16610000  0.72560000  1
  O  O449  1  0.61180000  0.66610000  0.77440000  1
  O  O450  1  0.62340000  0.36430000  0.33690000  1
  O  O451  1  0.62340000  0.86430000  0.16310000  1
  O  O452  1  0.68280000  0.09150000  0.81780000  1
  O  O453  1  0.68280000  0.59150000  0.68220000  1
  O  O454  1  0.79710000  0.13000000  0.32650000  1
  O  O455  1  0.79710000  0.63000000  0.17350000  1
  O  O456  1  0.80130000  0.17180000  0.23610000  1
  O  O457  1  0.80130000  0.67180000  0.26390000  1
  O  O458  1  0.82370000  0.07060000  0.24530000  1
  O  O459  1  0.82370000  0.57060000  0.25470000  1
  O  O460  1  0.85250000  0.35290000  0.72350000  1
  O  O461  1  0.85250000  0.85290000  0.77650000  1
  O  O462  1  0.85660000  0.39500000  0.81450000  1
  O  O463  1  0.85660000  0.89500000  0.68550000  1
  O  O464  1  0.87550000  0.29560000  0.80650000  1
  O  O465  1  0.87550000  0.79560000  0.69350000  1
  O  O466  1  0.95030000  0.19550000  0.35760000  1
  O  O467  1  0.95030000  0.69550000  0.14240000  1
  O  O468  1  0.95420000  0.23860000  0.26550000  1
  O  O469  1  0.95420000  0.73860000  0.23450000  1
  O  O470  1  0.96650000  0.09480000  0.36720000  1
  O  O471  1  0.96650000  0.59480000  0.13280000  1
  O  O472  1  0.97410000  0.13750000  0.27550000  1
  O  O473  1  0.97410000  0.63750000  0.22450000  1
  O  O474  1  0.98010000  0.18120000  0.18430000  1
  O  O475  1  0.98010000  0.68120000  0.31570000  1
  O  O476  1  0.99290000  0.03810000  0.28590000  1
  O  O477  1  0.99290000  0.53810000  0.21410000  1
  O  O478  1  0.99850000  0.08050000  0.19380000  1
  O  O479  1  0.99850000  0.58050000  0.30620000  1
