# generated using pymatgen
data_MnH16(C17N5)2
_symmetry_space_group_name_H-M   'P 1'
_cell_length_a   11.61600000
_cell_length_b   12.50300000
_cell_length_c   14.89100000
_cell_angle_alpha   90.00000000
_cell_angle_beta   90.00000000
_cell_angle_gamma   90.00000000
_symmetry_Int_Tables_number   1
_chemical_formula_structural   MnH16(C17N5)2
_chemical_formula_sum   'Mn2 H32 C68 N20'
_cell_volume   2162.69212157
_cell_formula_units_Z   2
loop_
 _symmetry_equiv_pos_site_id
 _symmetry_equiv_pos_as_xyz
  1  'x, y, z'
loop_
 _atom_site_type_symbol
 _atom_site_label
 _atom_site_symmetry_multiplicity
 _atom_site_fract_x
 _atom_site_fract_y
 _atom_site_fract_z
 _atom_site_occupancy
  Mn  Mn0  1  0.50000000  0.50000000  0.25000000  1
  Mn  Mn1  1  0.50000000  0.50000000  0.75000000  1
  H  H2  1  0.08670000  0.34290000  0.28080000  1
  H  H3  1  0.08670000  0.34290000  0.71920000  1
  H  H4  1  0.08670000  0.65710000  0.21920000  1
  H  H5  1  0.08670000  0.65710000  0.78080000  1
  H  H6  1  0.16350000  0.08200000  0.13520000  1
  H  H7  1  0.16350000  0.08200000  0.86480000  1
  H  H8  1  0.16350000  0.91800000  0.36480000  1
  H  H9  1  0.16350000  0.91800000  0.63520000  1
  H  H10  1  0.28600000  0.34810000  0.28130000  1
  H  H11  1  0.28600000  0.34810000  0.71870000  1
  H  H12  1  0.28600000  0.65190000  0.21870000  1
  H  H13  1  0.28600000  0.65190000  0.78130000  1
  H  H14  1  0.30060000  0.21740000  0.13590000  1
  H  H15  1  0.30060000  0.21740000  0.86410000  1
  H  H16  1  0.30060000  0.78260000  0.36410000  1
  H  H17  1  0.30060000  0.78260000  0.63590000  1
  H  H18  1  0.69940000  0.21740000  0.36410000  1
  H  H19  1  0.69940000  0.21740000  0.63590000  1
  H  H20  1  0.69940000  0.78260000  0.13590000  1
  H  H21  1  0.69940000  0.78260000  0.86410000  1
  H  H22  1  0.71400000  0.34810000  0.21870000  1
  H  H23  1  0.71400000  0.34810000  0.78130000  1
  H  H24  1  0.71400000  0.65190000  0.28130000  1
  H  H25  1  0.71400000  0.65190000  0.71870000  1
  H  H26  1  0.83650000  0.08200000  0.36480000  1
  H  H27  1  0.83650000  0.08200000  0.63520000  1
  H  H28  1  0.83650000  0.91800000  0.13520000  1
  H  H29  1  0.83650000  0.91800000  0.86480000  1
  H  H30  1  0.91330000  0.34290000  0.21920000  1
  H  H31  1  0.91330000  0.34290000  0.78080000  1
  H  H32  1  0.91330000  0.65710000  0.28080000  1
  H  H33  1  0.91330000  0.65710000  0.71920000  1
  C  C34  1  0.06380000  0.02720000  0.50000000  1
  C  C35  1  0.06380000  0.97280000  0.00000000  1
  C  C36  1  0.06420000  0.50000000  0.25000000  1
  C  C37  1  0.06420000  0.50000000  0.75000000  1
  C  C38  1  0.07710000  0.09200000  0.42030000  1
  C  C39  1  0.07710000  0.09200000  0.57970000  1
  C  C40  1  0.07710000  0.90800000  0.07970000  1
  C  C41  1  0.07710000  0.90800000  0.92030000  1
  C  C42  1  0.12570000  0.40800000  0.26810000  1
  C  C43  1  0.12570000  0.40800000  0.73190000  1
  C  C44  1  0.12570000  0.59200000  0.23190000  1
  C  C45  1  0.12570000  0.59200000  0.76810000  1
  C  C46  1  0.15650000  0.06380000  0.00000000  1
  C  C47  1  0.15650000  0.93620000  0.50000000  1
  C  C48  1  0.19420000  0.10740000  0.08000000  1
  C  C49  1  0.19420000  0.10740000  0.92000000  1
  C  C50  1  0.19420000  0.89260000  0.42000000  1
  C  C51  1  0.19420000  0.89260000  0.58000000  1
  C  C52  1  0.24490000  0.41180000  0.26780000  1
  C  C53  1  0.24490000  0.41180000  0.73220000  1
  C  C54  1  0.24490000  0.58820000  0.23220000  1
  C  C55  1  0.24490000  0.58820000  0.76780000  1
  C  C56  1  0.27570000  0.18800000  0.08040000  1
  C  C57  1  0.27570000  0.18800000  0.91960000  1
  C  C58  1  0.27570000  0.81200000  0.41960000  1
  C  C59  1  0.27570000  0.81200000  0.58040000  1
  C  C60  1  0.32320000  0.22640000  0.00000000  1
  C  C61  1  0.32320000  0.77360000  0.50000000  1
  C  C62  1  0.41730000  0.30210000  0.00000000  1
  C  C63  1  0.41730000  0.69790000  0.50000000  1
  C  C64  1  0.46320000  0.34170000  0.07980000  1
  C  C65  1  0.46320000  0.34170000  0.92020000  1
  C  C66  1  0.46320000  0.65830000  0.42020000  1
  C  C67  1  0.46320000  0.65830000  0.57980000  1
  C  C68  1  0.53680000  0.34170000  0.42020000  1
  C  C69  1  0.53680000  0.34170000  0.57980000  1
  C  C70  1  0.53680000  0.65830000  0.07980000  1
  C  C71  1  0.53680000  0.65830000  0.92020000  1
  C  C72  1  0.58270000  0.30210000  0.50000000  1
  C  C73  1  0.58270000  0.69790000  0.00000000  1
  C  C74  1  0.67680000  0.22640000  0.50000000  1
  C  C75  1  0.67680000  0.77360000  0.00000000  1
  C  C76  1  0.72430000  0.18800000  0.41960000  1
  C  C77  1  0.72430000  0.18800000  0.58040000  1
  C  C78  1  0.72430000  0.81200000  0.08040000  1
  C  C79  1  0.72430000  0.81200000  0.91960000  1
  C  C80  1  0.75510000  0.41180000  0.23220000  1
  C  C81  1  0.75510000  0.41180000  0.76780000  1
  C  C82  1  0.75510000  0.58820000  0.26780000  1
  C  C83  1  0.75510000  0.58820000  0.73220000  1
  C  C84  1  0.80580000  0.10740000  0.42000000  1
  C  C85  1  0.80580000  0.10740000  0.58000000  1
  C  C86  1  0.80580000  0.89260000  0.08000000  1
  C  C87  1  0.80580000  0.89260000  0.92000000  1
  C  C88  1  0.84350000  0.06380000  0.50000000  1
  C  C89  1  0.84350000  0.93620000  0.00000000  1
  C  C90  1  0.87430000  0.40800000  0.23190000  1
  C  C91  1  0.87430000  0.40800000  0.76810000  1
  C  C92  1  0.87430000  0.59200000  0.26810000  1
  C  C93  1  0.87430000  0.59200000  0.73190000  1
  C  C94  1  0.92290000  0.09200000  0.07970000  1
  C  C95  1  0.92290000  0.09200000  0.92030000  1
  C  C96  1  0.92290000  0.90800000  0.42030000  1
  C  C97  1  0.92290000  0.90800000  0.57970000  1
  C  C98  1  0.93580000  0.50000000  0.25000000  1
  C  C99  1  0.93580000  0.50000000  0.75000000  1
  C  C100  1  0.93620000  0.02720000  0.00000000  1
  C  C101  1  0.93620000  0.97280000  0.50000000  1
  N  N102  1  0.09410000  0.13960000  0.35730000  1
  N  N103  1  0.09410000  0.13960000  0.64270000  1
  N  N104  1  0.09410000  0.86040000  0.14270000  1
  N  N105  1  0.09410000  0.86040000  0.85730000  1
  N  N106  1  0.30450000  0.50000000  0.25000000  1
  N  N107  1  0.30450000  0.50000000  0.75000000  1
  N  N108  1  0.49860000  0.37470000  0.35420000  1
  N  N109  1  0.49860000  0.37470000  0.64580000  1
  N  N110  1  0.49860000  0.62530000  0.14580000  1
  N  N111  1  0.49860000  0.62530000  0.85420000  1
  N  N112  1  0.50140000  0.37470000  0.14580000  1
  N  N113  1  0.50140000  0.37470000  0.85420000  1
  N  N114  1  0.50140000  0.62530000  0.35420000  1
  N  N115  1  0.50140000  0.62530000  0.64580000  1
  N  N116  1  0.69550000  0.50000000  0.25000000  1
  N  N117  1  0.69550000  0.50000000  0.75000000  1
  N  N118  1  0.90590000  0.13960000  0.14270000  1
  N  N119  1  0.90590000  0.13960000  0.85730000  1
  N  N120  1  0.90590000  0.86040000  0.35730000  1
  N  N121  1  0.90590000  0.86040000  0.64270000  1
