# generated using pymatgen
data_Cu13H36C32(N12O)4
_symmetry_space_group_name_H-M   'P 1'
_cell_length_a   15.32500000
_cell_length_b   16.47200000
_cell_length_c   17.07200000
_cell_angle_alpha   70.14400000
_cell_angle_beta   64.56700000
_cell_angle_gamma   67.51600000
_symmetry_Int_Tables_number   1
_chemical_formula_structural   Cu13H36C32(N12O)4
_chemical_formula_sum   'Cu13 H36 C32 N48 O4'
_cell_volume   3515.69652512
_cell_formula_units_Z   1
loop_
 _symmetry_equiv_pos_site_id
 _symmetry_equiv_pos_as_xyz
  1  'x, y, z'
loop_
 _atom_site_type_symbol
 _atom_site_label
 _atom_site_symmetry_multiplicity
 _atom_site_fract_x
 _atom_site_fract_y
 _atom_site_fract_z
 _atom_site_occupancy
  Cu  Cu0  1  0.00000000  0.00000000  0.00000000  1
  Cu  Cu1  1  0.00000000  0.00000000  0.50000000  1
  Cu  Cu2  1  0.12705000  0.93023000  0.31004000  1
  Cu  Cu3  1  0.14128000  0.12045000  0.33333333  1
  Cu  Cu4  1  0.21084000  0.91790000  0.08345000  1
  Cu  Cu5  1  0.35586000  0.69296000  0.06629000  1
  Cu  Cu6  1  0.43081000  0.31558000  0.12237000  1
  Cu  Cu7  1  0.50000000  0.50000000  0.00000000  1
  Cu  Cu8  1  0.56919000  0.68442000  0.87763000  1
  Cu  Cu9  1  0.64414000  0.30704000  0.93371000  1
  Cu  Cu10  1  0.78916000  0.08210000  0.91655000  1
  Cu  Cu11  1  0.85872000  0.87955000  0.66666667  1
  Cu  Cu12  1  0.87295000  0.06977000  0.68996000  1
  H  H13  1  0.00240000  0.92640000  0.65120000  1
  H  H14  1  0.05250000  0.81500000  0.94820000  1
  H  H15  1  0.05310000  0.73800000  0.39680000  1
  H  H16  1  0.07150000  0.27800000  0.45090000  1
  H  H17  1  0.11620000  0.02090000  0.67650000  1
  H  H18  1  0.16510000  0.98230000  0.80840000  1
  H  H19  1  0.18930000  0.67790000  0.98390000  1
  H  H20  1  0.20220000  0.58960000  0.24900000  1
  H  H21  1  0.23790000  0.42430000  0.27740000  1
  H  H22  1  0.26450000  0.18480000  0.12210000  1
  H  H23  1  0.27950000  0.13620000  0.42360000  1
  H  H24  1  0.28340000  0.73070000  0.36910000  1
  H  H25  1  0.29710000  0.09570000  0.01520000  1
  H  H26  1  0.37510000  0.62700000  0.26520000  1
  H  H27  1  0.40150000  0.99860000  0.92610000  1
  H  H28  1  0.40360000  0.22720000  0.33550000  1
  H  H29  1  0.41580000  0.64230000  0.93010000  1
  H  H30  1  0.44930000  0.09990000  0.16170000  1
  H  H31  1  0.55070000  0.90010000  0.83830000  1
  H  H32  1  0.58420000  0.35770000  0.06990000  1
  H  H33  1  0.59640000  0.77280000  0.66450000  1
  H  H34  1  0.59850000  0.00140000  0.07390000  1
  H  H35  1  0.62490000  0.37300000  0.73480000  1
  H  H36  1  0.70290000  0.90430000  0.98480000  1
  H  H37  1  0.71660000  0.26930000  0.63090000  1
  H  H38  1  0.72050000  0.86380000  0.57640000  1
  H  H39  1  0.73550000  0.81520000  0.87790000  1
  H  H40  1  0.76210000  0.57570000  0.72260000  1
  H  H41  1  0.79780000  0.41040000  0.75100000  1
  H  H42  1  0.81070000  0.32210000  0.01610000  1
  H  H43  1  0.83490000  0.01770000  0.19160000  1
  H  H44  1  0.88380000  0.97910000  0.32350000  1
  H  H45  1  0.92850000  0.72200000  0.54910000  1
  H  H46  1  0.94690000  0.26200000  0.60320000  1
  H  H47  1  0.94750000  0.18500000  0.05180000  1
  H  H48  1  0.99760000  0.07360000  0.34880000  1
  C  C49  1  0.02600000  0.77890000  0.43500000  1
  C  C50  1  0.04220000  0.22950000  0.48140000  1
  C  C51  1  0.07130000  0.02230000  0.73570000  1
  C  C52  1  0.09790000  0.81200000  0.97400000  1
  C  C53  1  0.09850000  0.00080000  0.80790000  1
  C  C54  1  0.17410000  0.73660000  0.99240000  1
  C  C55  1  0.24960000  0.12960000  0.13590000  1
  C  C56  1  0.25510000  0.55140000  0.21130000  1
  C  C57  1  0.26670000  0.08060000  0.07780000  1
  C  C58  1  0.27340000  0.46090000  0.22660000  1
  C  C59  1  0.28310000  0.74280000  0.31070000  1
  C  C60  1  0.29030000  0.17000000  0.36440000  1
  C  C61  1  0.33340000  0.68650000  0.25420000  1
  C  C62  1  0.35830000  0.21890000  0.31650000  1
  C  C63  1  0.41560000  0.93530000  0.93570000  1
  C  C64  1  0.49720000  0.88190000  0.88820000  1
  C  C65  1  0.50280000  0.11810000  0.11180000  1
  C  C66  1  0.58440000  0.06470000  0.06430000  1
  C  C67  1  0.64170000  0.78110000  0.68350000  1
  C  C68  1  0.66666667  0.31350000  0.74580000  1
  C  C69  1  0.70970000  0.83000000  0.63560000  1
  C  C70  1  0.71690000  0.25720000  0.68930000  1
  C  C71  1  0.72660000  0.53910000  0.77340000  1
  C  C72  1  0.73330000  0.91940000  0.92220000  1
  C  C73  1  0.74490000  0.44860000  0.78870000  1
  C  C74  1  0.75040000  0.87040000  0.86410000  1
  C  C75  1  0.82590000  0.26340000  0.00760000  1
  C  C76  1  0.90150000  0.99920000  0.19210000  1
  C  C77  1  0.90210000  0.18800000  0.02600000  1
  C  C78  1  0.92870000  0.97770000  0.26430000  1
  C  C79  1  0.95780000  0.77050000  0.51860000  1
  C  C80  1  0.97400000  0.22110000  0.56500000  1
  N  N81  1  0.00450000  0.10680000  0.51130000  1
  N  N82  1  0.01530000  0.01050000  0.87670000  1
  N  N83  1  0.02740000  0.95470000  0.23860000  1
  N  N84  1  0.04800000  0.85770000  0.41670000  1
  N  N85  1  0.06140000  0.15950000  0.44930000  1
  N  N86  1  0.06180000  0.96180000  0.15170000  1
  N  N87  1  0.10030000  0.87870000  0.99900000  1
  N  N88  1  0.17430000  0.84970000  0.03000000  1
  N  N89  1  0.19850000  0.01190000  0.20660000  1
  N  N90  1  0.20770000  0.08380000  0.21560000  1
  N  N91  1  0.22170000  0.76450000  0.02490000  1
  N  N92  1  0.23160000  0.82050000  0.26900000  1
  N  N93  1  0.23340000  0.00740000  0.12390000  1
  N  N94  1  0.24220000  0.17920000  0.31190000  1
  N  N95  1  0.25260000  0.80980000  0.18910000  1
  N  N96  1  0.28030000  0.22890000  0.23230000  1
  N  N97  1  0.31290000  0.73140000  0.17790000  1
  N  N98  1  0.32240000  0.57790000  0.13570000  1
  N  N99  1  0.34730000  0.25290000  0.23610000  1
  N  N100  1  0.35020000  0.43370000  0.15710000  1
  N  N101  1  0.35620000  0.88500000  0.99990000  1
  N  N102  1  0.37980000  0.50500000  0.10130000  1
  N  N103  1  0.40560000  0.80110000  0.99010000  1
  N  N104  1  0.49000000  0.79640000  0.92400000  1
  N  N105  1  0.51000000  0.20360000  0.07600000  1
  N  N106  1  0.59440000  0.19890000  0.00990000  1
  N  N107  1  0.62020000  0.49500000  0.89870000  1
  N  N108  1  0.64380000  0.11500000  0.00010000  1
  N  N109  1  0.64980000  0.56630000  0.84290000  1
  N  N110  1  0.65270000  0.74710000  0.76390000  1
  N  N111  1  0.67760000  0.42210000  0.86430000  1
  N  N112  1  0.68710000  0.26860000  0.82210000  1
  N  N113  1  0.71970000  0.77110000  0.76770000  1
  N  N114  1  0.74740000  0.19020000  0.81090000  1
  N  N115  1  0.75780000  0.82080000  0.68810000  1
  N  N116  1  0.76660000  0.99260000  0.87610000  1
  N  N117  1  0.76840000  0.17950000  0.73100000  1
  N  N118  1  0.77830000  0.23550000  0.97510000  1
  N  N119  1  0.79230000  0.91620000  0.78440000  1
  N  N120  1  0.80150000  0.98810000  0.79340000  1
  N  N121  1  0.82570000  0.15030000  0.97000000  1
  N  N122  1  0.89970000  0.12130000  0.00100000  1
  N  N123  1  0.93820000  0.03820000  0.84830000  1
  N  N124  1  0.93860000  0.84050000  0.55070000  1
  N  N125  1  0.95200000  0.14230000  0.58330000  1
  N  N126  1  0.97260000  0.04530000  0.76140000  1
  N  N127  1  0.98470000  0.98950000  0.12330000  1
  N  N128  1  0.99550000  0.89320000  0.48870000  1
  O  O129  1  0.05620000  0.03790000  0.36920000  1
  O  O130  1  0.45710000  0.63210000  0.96650000  1
  O  O131  1  0.54290000  0.36790000  0.03350000  1
  O  O132  1  0.94380000  0.96210000  0.63080000  1
