# generated using pymatgen
data_Zn12H148C243O56
_symmetry_space_group_name_H-M   'P 1'
_cell_length_a   31.03679371
_cell_length_b   31.03680000
_cell_length_c   31.03680000
_cell_angle_alpha   108.28390000
_cell_angle_beta   108.28389160
_cell_angle_gamma   111.87289214
_symmetry_Int_Tables_number   1
_chemical_formula_structural   Zn12H148C243O56
_chemical_formula_sum   'Zn24 H296 C486 O112'
_cell_volume   22984.41845668
_cell_formula_units_Z   2
loop_
 _symmetry_equiv_pos_site_id
 _symmetry_equiv_pos_as_xyz
  1  'x, y, z'
loop_
 _atom_site_type_symbol
 _atom_site_label
 _atom_site_symmetry_multiplicity
 _atom_site_fract_x
 _atom_site_fract_y
 _atom_site_fract_z
 _atom_site_occupancy
  Zn  Zn0  1  0.89269000  0.56475000  0.08158000  1
  Zn  Zn1  1  0.88904000  0.58574000  0.58136000  1
  Zn  Zn2  1  0.88679000  0.61799000  0.00576000  1
  Zn  Zn3  1  0.86799000  0.63679000  0.50576000  1
  Zn  Zn4  1  0.83574000  0.63904000  0.08136000  1
  Zn  Zn5  1  0.81475000  0.64269000  0.58158000  1
  Zn  Zn6  1  0.76683000  0.18525000  0.82794000  1
  Zn  Zn7  1  0.69232000  0.11096000  0.69670000  1
  Zn  Zn8  1  0.63777000  0.13201000  0.76880000  1
  Zn  Zn9  1  0.61223000  0.88103000  0.99424000  1
  Zn  Zn10  1  0.55768000  0.75438000  0.91864000  1
  Zn  Zn11  1  0.48317000  0.81111000  0.91842000  1
  Zn  Zn12  1  0.43525000  0.51683000  0.32794000  1
  Zn  Zn13  1  0.41426000  0.99562000  0.30330000  1
  Zn  Zn14  1  0.38201000  0.38777000  0.26880000  1
  Zn  Zn15  1  0.36321000  0.86897000  0.23120000  1
  Zn  Zn16  1  0.36096000  0.44232000  0.19670000  1
  Zn  Zn17  1  0.35731000  0.93889000  0.17206000  1
  Zn  Zn18  1  0.24562000  0.16426000  0.80330000  1
  Zn  Zn19  1  0.18889000  0.10731000  0.67206000  1
  Zn  Zn20  1  0.13103000  0.36223000  0.49424000  1
  Zn  Zn21  1  0.11897000  0.11321000  0.73120000  1
  Zn  Zn22  1  0.06111000  0.23317000  0.41842000  1
  Zn  Zn23  1  0.00438000  0.30768000  0.41864000  1
  H  H24  1  0.99640000  0.58840000  0.97400000  1
  H  H25  1  0.99470000  0.97150000  0.15740000  1
  H  H26  1  0.99300000  0.08970000  0.27650000  1
  H  H27  1  0.98620000  0.98470000  0.44290000  1
  H  H28  1  0.98270000  0.52680000  0.66010000  1
  H  H29  1  0.97780000  0.17840000  0.95180000  1
  H  H30  1  0.97760000  0.00360000  0.59200000  1
  H  H31  1  0.97650000  0.91600000  0.01330000  1
  H  H32  1  0.97400000  0.02220000  0.20060000  1
  H  H33  1  0.97270000  0.64960000  0.14010000  1
  H  H34  1  0.97240000  0.33440000  0.54660000  1
  H  H35  1  0.97220000  0.92770000  0.90270000  1
  H  H36  1  0.96650000  0.56320000  0.22350000  1
  H  H37  1  0.96630000  0.77360000  0.02270000  1
  H  H38  1  0.96330000  0.34620000  0.61910000  1
  H  H39  1  0.96230000  0.48360000  0.02390000  1
  H  H40  1  0.96010000  0.32140000  0.68530000  1
  H  H41  1  0.95340000  0.12750000  0.44910000  1
  H  H42  1  0.94950000  0.89380000  0.81850000  1
  H  H43  1  0.94590000  0.37790000  0.82460000  1
  H  H44  1  0.94110000  0.83690000  0.74280000  1
  H  H45  1  0.93050000  0.02780000  0.95550000  1
  H  H46  1  0.92611000  0.65901000  0.11080000  1
  H  H47  1  0.92370000  0.88330000  0.11760000  1
  H  H48  1  0.92247000  0.63207000  0.95300000  1
  H  H49  1  0.91810000  0.89310000  0.37880000  1
  H  H50  1  0.91420000  0.25550000  0.69890000  1
  H  H51  1  0.91030000  0.18680000  0.90330000  1
  H  H52  1  0.90901000  0.67611000  0.61080000  1
  H  H53  1  0.90450000  0.81510000  0.32580000  1
  H  H54  1  0.90340000  0.75850000  0.25830000  1
  H  H55  1  0.90270000  0.96320000  0.98670000  1
  H  H56  1  0.90080000  0.94880000  0.51280000  1
  H  H57  1  0.89960000  0.72270000  0.64010000  1
  H  H58  1  0.89510000  0.25020000  0.24170000  1
  H  H59  1  0.88910000  0.79630000  0.10200000  1
  H  H60  1  0.88207000  0.67247000  0.45299000  1
  H  H61  1  0.87870000  0.05410000  0.43200000  1
  H  H62  1  0.87250000  0.32160000  0.82590000  1
  H  H63  1  0.86900000  0.05050000  0.94430000  1
  H  H64  1  0.86670000  0.32260000  0.33990000  1
  H  H65  1  0.86358000  0.56959000  0.89976000  1
  H  H66  1  0.85930000  0.15920000  0.35830000  1
  H  H67  1  0.84080000  0.19910000  0.70010000  1
  H  H68  1  0.83840000  0.74640000  0.47400000  1
  H  H69  1  0.83590000  0.93780000  0.44070000  1
  H  H70  1  0.82870000  0.23930000  0.17420000  1
  H  H71  1  0.82230000  0.96250000  0.96160000  1
  H  H72  1  0.82160000  0.77340000  0.79940000  1
  H  H73  1  0.81959000  0.61358000  0.39976000  1
  H  H74  1  0.81410000  0.83730000  0.84260000  1
  H  H75  1  0.81400000  0.80120000  0.45200000  1
  H  H76  1  0.81320000  0.71650000  0.72350000  1
  H  H77  1  0.81150000  0.97120000  0.38090000  1
  H  H78  1  0.80170000  0.05890000  0.89580000  1
  H  H79  1  0.80090000  0.50100000  0.64170000  1
  H  H80  1  0.79450000  0.31420000  0.27250000  1
  H  H81  1  0.79330000  0.29180000  0.05710000  1
  H  H82  1  0.79030000  0.26640000  0.97870000  1
  H  H83  1  0.78930000  0.26430000  0.12120000  1
  H  H84  1  0.78780000  0.42580000  0.45340000  1
  H  H85  1  0.78470000  0.08580000  0.34130000  1
  H  H86  1  0.77680000  0.73270000  0.16010000  1
  H  H87  1  0.77200000  0.79170000  0.22750000  1
  H  H88  1  0.76570000  0.80610000  0.88240000  1
  H  H89  1  0.76070000  0.93490000  0.58940000  1
  H  H90  1  0.75970000  0.82220000  0.29230000  1
  H  H91  1  0.75430000  0.42840000  0.05090000  1
  H  H92  1  0.75290000  0.81220000  0.39810000  1
  H  H93  1  0.75100000  0.55090000  0.14170000  1
  H  H94  1  0.75090000  0.94360000  0.97730000  1
  H  H95  1  0.74980000  0.99150000  0.64490000  1
  H  H96  1  0.74550000  0.49420000  0.37430000  1
  H  H97  1  0.74450000  0.44340000  0.65870000  1
  H  H98  1  0.74420000  0.49550000  0.87430000  1
  H  H99  1  0.74050000  0.10040000  0.82310000  1
  H  H100  1  0.73570000  0.85690000  0.52500000  1
  H  H101  1  0.73360000  0.71230000  0.52390000  1
  H  H102  1  0.72710000  0.34420000  0.38090000  1
  H  H103  1  0.72520000  0.03990000  0.36130000  1
  H  H104  1  0.72010000  0.92780000  0.43750000  1
  H  H105  1  0.71740000  0.27990000  0.20770000  1
  H  H106  1  0.70820000  0.76530000  0.50150000  1
  H  H107  1  0.70179000  0.09099000  0.76710000  1
  H  H108  1  0.70000000  0.85800000  0.26540000  1
  H  H109  1  0.69670000  0.37210000  0.06800000  1
  H  H110  1  0.69430000  0.78710000  0.89800000  1
  H  H111  1  0.69340000  0.49450000  0.15870000  1
  H  H112  1  0.69010000  0.41270000  0.29920000  1
  H  H113  1  0.68580000  0.95830000  0.48030000  1
  H  H114  1  0.68460000  0.34260000  0.23460000  1
  H  H115  1  0.68060000  0.34030000  0.11910000  1
  H  H116  1  0.67908000  0.96948000  0.04701000  1
  H  H117  1  0.67860000  0.36390000  0.63870000  1
  H  H118  1  0.67840000  0.50430000  0.55090000  1
  H  H119  1  0.67740000  0.01730000  0.54410000  1
  H  H120  1  0.67580000  0.53780000  0.95340000  1
  H  H121  1  0.66983000  0.96382000  0.10024000  1
  H  H122  1  0.66560000  0.21220000  0.63800000  1
  H  H123  1  0.66270000  0.44010000  0.79920000  1
  H  H124  1  0.65970000  0.77880000  0.34030000  1
  H  H125  1  0.65740000  0.89200000  0.34200000  1
  H  H126  1  0.65580000  0.03670000  0.38290000  1
  H  H127  1  0.65380000  0.27290000  0.61710000  1
  H  H128  1  0.64520000  0.24710000  0.05930000  1
  H  H129  1  0.64090000  0.86350000  0.20080000  1
  H  H130  1  0.63800000  0.18600000  0.98720000  1
  H  H131  1  0.63610000  0.27480000  0.31470000  1
  H  H132  1  0.63560000  0.16160000  0.90800000  1
  H  H133  1  0.62880000  0.25450000  0.74870000  1
  H  H134  1  0.62790000  0.69590000  0.32460000  1
  H  H135  1  0.62210000  0.44670000  0.56800000  1
  H  H136  1  0.62120000  0.86990000  0.12570000  1
  H  H137  1  0.61440000  0.02240000  0.02600000  1
  H  H138  1  0.61390000  0.42860000  0.13870000  1
  H  H139  1  0.61200000  0.09920000  0.04800000  1
  H  H140  1  0.60910000  0.30990000  0.72260000  1
  H  H141  1  0.60480000  0.16410000  0.10190000  1
  H  H142  1  0.59620000  0.71330000  0.11910000  1
  H  H143  1  0.59420000  0.47710000  0.88090000  1
  H  H144  1  0.59260000  0.43460000  0.73460000  1
  H  H145  1  0.59030000  0.43060000  0.61910000  1
  H  H146  1  0.58730000  0.88650000  0.27740000  1
  H  H147  1  0.58440000  0.72240000  0.04660000  1
  H  H148  1  0.58017000  0.18041000  0.79399000  1
  H  H149  1  0.57420000  0.02760000  0.36200000  1
  H  H150  1  0.57260000  0.61670000  0.83990000  1
  H  H151  1  0.57160000  0.62250000  0.32590000  1
  H  H152  1  0.57140000  0.71010000  0.18530000  1
  H  H153  1  0.57092000  0.11792000  0.79039000  1
  H  H154  1  0.56940000  0.18850000  0.15970000  1
  H  H155  1  0.56540000  0.30000000  0.15800000  1
  H  H156  1  0.56420000  0.54450000  0.77250000  1
  H  H157  1  0.55990000  0.35910000  0.22260000  1
  H  H158  1  0.55660000  0.21530000  0.30110000  1
  H  H159  1  0.55570000  0.95370000  0.59280000  1
  H  H160  1  0.55330000  0.12130000  0.17540000  1
  H  H161  1  0.55000000  0.31540000  0.65800000  1
  H  H162  1  0.54821000  0.81531000  0.88920000  1
  H  H163  1  0.54180000  0.54330000  0.55710000  1
  H  H164  1  0.53260000  0.24030000  0.06250000  1
  H  H165  1  0.52990000  0.46740000  0.70770000  1
  H  H166  1  0.52480000  0.38610000  0.81470000  1
  H  H167  1  0.52290000  0.40380000  0.11710000  1
  H  H168  1  0.51640000  0.54030000  0.47870000  1
  H  H169  1  0.51430000  0.53930000  0.62120000  1
  H  H170  1  0.50950000  0.83260000  0.85990000  1
  H  H171  1  0.50580000  0.88010000  0.25130000  1
  H  H172  1  0.50550000  0.66420000  0.19890000  1
  H  H173  1  0.50450000  0.37880000  0.24870000  1
  H  H174  1  0.50020000  0.64510000  0.74170000  1
  H  H175  1  0.49910000  0.97640000  0.69270000  1
  H  H176  1  0.49900000  0.14070000  0.29990000  1
  H  H177  1  0.49710000  0.39520000  0.55930000  1
  H  H178  1  0.49570000  0.04660000  0.17410000  1
  H  H179  1  0.49030000  0.28260000  0.56250000  1
  H  H180  1  0.48930000  0.57870000  0.67420000  1
  H  H181  1  0.48430000  0.86670000  0.54040000  1
  H  H182  1  0.47800000  0.20550000  0.51970000  1
  H  H183  1  0.47320000  0.13330000  0.45590000  1
  H  H184  1  0.46530000  0.30660000  0.80110000  1
  H  H185  1  0.46220000  0.41560000  0.13800000  1
  H  H186  1  0.46070000  0.08190000  0.97500000  1
  H  H187  1  0.45970000  0.93840000  0.97610000  1
  H  H188  1  0.45670000  0.01380000  0.99850000  1
  H  H189  1  0.45550000  0.22800000  0.01970000  1
  H  H190  1  0.44910000  0.59080000  0.20010000  1
  H  H191  1  0.44830000  0.84410000  0.75720000  1
  H  H192  1  0.43850000  0.31940000  0.65970000  1
  H  H193  1  0.43680000  0.66030000  0.40330000  1
  H  H194  1  0.43600000  0.38800000  0.48720000  1
  H  H195  1  0.43590000  0.77850000  0.52320000  1
  H  H196  1  0.43041000  0.33017000  0.29399000  1
  H  H197  1  0.42840000  0.72780000  0.45180000  1
  H  H198  1  0.42770000  0.88930000  0.64020000  1
  H  H199  1  0.42130000  0.09550000  0.91060000  1
  H  H200  1  0.41410000  0.35480000  0.60190000  1
  H  H201  1  0.41160000  0.38560000  0.40800000  1
  H  H202  1  0.40920000  0.60930000  0.85830000  1
  H  H203  1  0.39070000  0.24900000  0.79990000  1
  H  H204  1  0.38642000  0.78618000  0.20601000  1
  H  H205  1  0.38330000  0.22320000  0.95590000  1
  H  H206  1  0.38100000  0.82530000  0.68150000  1
  H  H207  1  0.37750000  0.70340000  0.94910000  1
  H  H208  1  0.37130000  0.30330000  0.67540000  1
  H  H209  1  0.36793000  0.32093000  0.29040000  1
  H  H210  1  0.36090000  0.96290000  0.40720000  1
  H  H211  1  0.35490000  0.09660000  0.85510000  1
  H  H212  1  0.35040000  0.49050000  0.32310000  1
  H  H213  1  0.34920000  0.36200000  0.54800000  1
  H  H214  1  0.34730000  0.83400000  0.56050000  1
  H  H215  1  0.34660000  0.10490000  0.35510000  1
  H  H216  1  0.34550000  0.17130000  0.41060000  1
  H  H217  1  0.34099000  0.45179000  0.26710000  1
  H  H218  1  0.33970000  0.74300000  0.77650000  1
  H  H219  1  0.33580000  0.53470000  0.84130000  1
  H  H220  1  0.33190000  0.21070000  0.47500000  1
  H  H221  1  0.32753000  0.78053000  0.20960000  1
  H  H222  1  0.32630000  0.94390000  0.45960000  1
  H  H223  1  0.32389000  0.93469000  0.23290000  1
  H  H224  1  0.31950000  0.77500000  0.59730000  1
  H  H225  1  0.30890000  0.55170000  0.39580000  1
  H  H226  1  0.30410000  0.62870000  0.93200000  1
  H  H227  1  0.30050000  0.61900000  0.44430000  1
  H  H228  1  0.29660000  0.24570000  0.67410000  1
  H  H229  1  0.28990000  0.47520000  0.86130000  1
  H  H230  1  0.28770000  0.81160000  0.02130000  1
  H  H231  1  0.28670000  0.40580000  0.88290000  1
  H  H232  1  0.28370000  0.80640000  0.30730000  1
  H  H233  1  0.28350000  0.00700000  0.09670000  1
  H  H234  1  0.27780000  0.68050000  0.45550000  1
  H  H235  1  0.27760000  0.32420000  0.86200000  1
  H  H236  1  0.27730000  0.91740000  0.17690000  1
  H  H237  1  0.27600000  0.97660000  0.54820000  1
  H  H238  1  0.27350000  0.78680000  0.43950000  1
  H  H239  1  0.27240000  0.36440000  0.52600000  1
  H  H240  1  0.27220000  0.72400000  0.70060000  1
  H  H241  1  0.26730000  0.42740000  0.04410000  1
  H  H242  1  0.26380000  0.20670000  0.49850000  1
  H  H243  1  0.25700000  0.03350000  0.59670000  1
  H  H244  1  0.25530000  0.91270000  0.47680000  1
  H  H245  1  0.25360000  0.72760000  0.09200000  1
  H  H246  1  0.24910000  0.78750000  0.35980000  1
  H  H247  1  0.24150000  0.49980000  0.14490000  1
  H  H248  1  0.23470000  0.73620000  0.94290000  1
  H  H249  1  0.22660000  0.02600000  0.04820000  1
  H  H250  1  0.22640000  0.24910000  0.19270000  1
  H  H251  1  0.22500000  0.82230000  0.54450000  1
  H  H252  1  0.22150000  0.74470000  0.65740000  1
  H  H253  1  0.22120000  0.56150000  0.88090000  1
  H  H254  1  0.21947000  0.42907000  0.54700000  1
  H  H255  1  0.21382000  0.41983000  0.60024000  1
  H  H256  1  0.21320000  0.65270000  0.48670000  1
  H  H257  1  0.21290000  0.11090000  0.90720000  1
  H  H258  1  0.21250000  0.57230000  0.46160000  1
  H  H259  1  0.20830000  0.43580000  0.98030000  1
  H  H260  1  0.20370000  0.30570000  0.09280000  1
  H  H261  1  0.19880000  0.65080000  0.01280000  1
  H  H262  1  0.19390000  0.07630000  0.95960000  1
  H  H263  1  0.19360000  0.50090000  0.47730000  1
  H  H264  1  0.18840000  0.20970000  0.47610000  1
  H  H265  1  0.18780000  0.58590000  0.94070000  1
  H  H266  1  0.18490000  0.51070000  0.08940000  1
  H  H267  1  0.18469000  0.07389000  0.73290000  1
  H  H268  1  0.17780000  0.47010000  0.93750000  1
  H  H269  1  0.17770000  0.72220000  0.40270000  1
  H  H270  1  0.17470000  0.85620000  0.55570000  1
  H  H271  1  0.16740000  0.02730000  0.67690000  1
  H  H272  1  0.16600000  0.72650000  0.51330000  1
  H  H273  1  0.16310000  0.90590000  0.10420000  1
  H  H274  1  0.16270000  0.00530000  0.97680000  1
  H  H275  1  0.15590000  0.91310000  0.60420000  1
  H  H276  1  0.14380000  0.69950000  0.31850000  1
  H  H277  1  0.14310000  0.66810000  0.87880000  1
  H  H278  1  0.14200000  0.40740000  0.84200000  1
  H  H279  1  0.13930000  0.17770000  0.14020000  1
  H  H280  1  0.13650000  0.33730000  0.77740000  1
  H  H281  1  0.13330000  0.67370000  0.61760000  1
  H  H282  1  0.13010000  0.25580000  0.75130000  1
  H  H283  1  0.11990000  0.37120000  0.62570000  1
  H  H284  1  0.11670000  0.23430000  0.04040000  1
  H  H285  1  0.11350000  0.39090000  0.70080000  1
  H  H286  1  0.11070000  0.75090000  0.53840000  1
  H  H287  1  0.10800000  0.45000000  0.76540000  1
  H  H288  1  0.10690000  0.48570000  0.02500000  1
  H  H289  1  0.10620000  0.92470000  0.05570000  1
  H  H290  1  0.09410000  0.19830000  0.25720000  1
  H  H291  1  0.08730000  0.56410000  0.34260000  1
  H  H292  1  0.08690000  0.69110000  0.24280000  1
  H  H293  1  0.08400000  0.09730000  0.06050000  1
  H  H294  1  0.08260000  0.25950000  0.35990000  1
  H  H295  1  0.07530000  0.13100000  0.18150000  1
  H  H296  1  0.07230000  0.97500000  0.04450000  1
  H  H297  1  0.07220000  0.50970000  0.79230000  1
  H  H298  1  0.06531000  0.29821000  0.38920000  1
  H  H299  1  0.06510000  0.65450000  0.82580000  1
  H  H300  1  0.06220000  0.50290000  0.89810000  1
  H  H301  1  0.06160000  0.03770000  0.52130000  1
  H  H302  1  0.05640000  0.03370000  0.80730000  1
  H  H303  1  0.05610000  0.51570000  0.38240000  1
  H  H304  1  0.05120000  0.56400000  0.95200000  1
  H  H305  1  0.04630000  0.63910000  0.60200000  1
  H  H306  1  0.04170000  0.52200000  0.72750000  1
  H  H307  1  0.03750000  0.99910000  0.85980000  1
  H  H308  1  0.03710000  0.44430000  0.39800000  1
  H  H309  1  0.03680000  0.02350000  0.93950000  1
  H  H310  1  0.03618000  0.13642000  0.70601000  1
  H  H311  1  0.03053000  0.07753000  0.70961000  1
  H  H312  1  0.02880000  0.40970000  0.84030000  1
  H  H313  1  0.02850000  0.18590000  0.02320000  1
  H  H314  1  0.02500000  0.06950000  0.09730000  1
  H  H315  1  0.02360000  0.71630000  0.52270000  1
  H  H316  1  0.02340000  0.57160000  0.29940000  1
  H  H317  1  0.01530000  0.45820000  0.00150000  1
  H  H318  1  0.00850000  0.65340000  0.75830000  1
  H  H319  1  0.00090000  0.86070000  0.03840000  1
  C  C320  1  0.00000000  0.00000000  0.00000000  1
  C  C321  1  0.00000000  0.56200000  0.97960000  1
  C  C322  1  0.99815000  0.05756000  0.21201000  1
  C  C323  1  0.99634000  0.97719000  0.13013000  1
  C  C324  1  0.99630000  0.35400000  0.62150000  1
  C  C325  1  0.99202000  0.59122000  0.70320000  1
  C  C326  1  0.98904000  0.35043000  0.71671000  1
  C  C327  1  0.98693000  0.36002000  0.76265000  1
  C  C328  1  0.98543000  0.94394000  0.04379000  1
  C  C329  1  0.98490000  0.62050000  0.17660000  1
  C  C330  1  0.98420000  0.98780000  0.47280000  1
  C  C331  1  0.98301000  0.93545000  0.08458000  1
  C  C332  1  0.97990000  0.49990000  0.00900000  1
  C  C333  1  0.97960000  1.00000000  0.56200000  1
  C  C334  1  0.97847000  0.84774000  0.05111000  1
  C  C335  1  0.97259000  0.10748000  0.98469000  1
  C  C336  1  0.97240000  0.53840000  0.00040000  1
  C  C337  1  0.96780000  0.64790000  0.54870000  1
  C  C338  1  0.96575000  0.88064000  0.07957000  1
  C  C339  1  0.96411000  0.05821000  0.97862000  1
  C  C340  1  0.96350000  0.19630000  0.41400000  1
  C  C341  1  0.95774000  0.79557000  0.04173000  1
  C  C342  1  0.95470000  0.59090000  0.65840000  1
  C  C343  1  0.94562000  0.95264000  0.95146000  1
  C  C344  1  0.94244000  0.15445000  0.94059000  1
  C  C345  1  0.94179000  0.92041000  0.90590000  1
  C  C346  1  0.93810000  0.55530000  0.01420000  1
  C  C347  1  0.93730000  0.32229000  0.76161000  1
  C  C348  1  0.93440000  0.95890000  0.46930000  1
  C  C349  1  0.93310000  0.96630000  0.51400000  1
  C  C350  1  0.93250000  0.29630000  0.34160000  1
  C  C351  1  0.93229000  0.86136000  0.09865000  1
  C  C352  1  0.93004000  0.11358000  0.95284000  1
  C  C353  1  0.92480000  0.34209000  0.79965000  1
  C  C354  1  0.92428000  0.77627000  0.06079000  1
  C  C355  1  0.92221000  0.85828000  0.79951000  1
  C  C356  1  0.91958000  0.11921000  0.42751000  1
  C  C357  1  0.91714000  0.82418000  0.75410000  1
  C  C358  1  0.91376000  0.15070000  0.40542000  1
  C  C359  1  0.91155000  0.80918000  0.08925000  1
  C  C360  1  0.90581000  0.26871000  0.72430000  1
  C  C361  1  0.90210000  0.15952000  0.91156000  1
  C  C362  1  0.90015000  0.94164000  0.95621000  1
  C  C363  1  0.89790000  0.71780000  0.04870000  1
  C  C364  1  0.89252000  0.87721000  0.86511000  1
  C  C365  1  0.88802000  0.28882000  0.29680000  1
  C  C366  1  0.88642000  0.83926000  0.81646000  1
  C  C367  1  0.88592000  0.88961000  0.37553000  1
  C  C368  1  0.88473000  0.92163000  0.41752000  1
  C  C369  1  0.88079000  0.30830000  0.80037000  1
  C  C370  1  0.87800000  0.80070000  0.29210000  1
  C  C371  1  0.87730000  0.07779000  0.93607000  1
  C  C372  1  0.87630000  0.76580000  0.25090000  1
  C  C373  1  0.87627000  0.77106000  0.72563000  1
  C  C374  1  0.87540000  0.26490000  0.24910000  1
  C  C375  1  0.87485000  0.07520000  0.41729000  1
  C  C376  1  0.87050000  0.73490000  0.67660000  1
  C  C377  1  0.86322000  0.13819000  0.37313000  1
  C  C378  1  0.86181000  0.23494000  0.72503000  1
  C  C379  1  0.85980000  0.30620000  0.30580000  1
  C  C380  1  0.85087000  0.89843000  0.91542000  1
  C  C381  1  0.84936000  0.12373000  0.89479000  1
  C  C382  1  0.84930000  0.25472000  0.76306000  1
  C  C383  1  0.84706000  0.86621000  0.86987000  1
  C  C384  1  0.84555000  0.78614000  0.78799000  1
  C  C385  1  0.84122000  0.74202000  0.20320000  1
  C  C386  1  0.84090000  0.70470000  0.15840000  1
  C  C387  1  0.84048000  0.75204000  0.74258000  1
  C  C388  1  0.83930000  0.81470000  0.28300000  1
  C  C389  1  0.83910000  0.85237000  0.32863000  1
  C  C390  1  0.83696000  0.08286000  0.90704000  1
  C  C391  1  0.83672000  0.91641000  0.41261000  1
  C  C392  1  0.83590000  0.25860000  0.20790000  1
  C  C393  1  0.82431000  0.06270000  0.38499000  1
  C  C394  1  0.81849000  0.09419000  0.36290000  1
  C  C395  1  0.81560000  0.30210000  0.26430000  1
  C  C396  1  0.81200000  0.75000000  0.47960000  1
  C  C397  1  0.81050000  0.52000000  0.46790000  1
  C  C398  1  0.80630000  0.28170000  0.21700000  1
  C  C399  1  0.80610000  0.12950000  0.86440000  1
  C  C400  1  0.80530000  0.68810000  0.51420000  1
  C  C401  1  0.80400000  0.75040000  0.19420000  1
  C  C402  1  0.80370000  0.21770000  0.76720000  1
  C  C403  1  0.80130000  0.78780000  0.23570000  1
  C  C404  1  0.80107000  0.88618000  0.92043000  1
  C  C405  1  0.79950000  0.53230000  0.08600000  1
  C  C406  1  0.79770000  0.78370000  0.46680000  1
  C  C407  1  0.79663000  0.92736000  0.94889000  1
  C  C408  1  0.79109000  0.84716000  0.32371000  1
  C  C409  1  0.78990000  0.87918000  0.36570000  1
  C  C410  1  0.78840000  0.72240000  0.50040000  1
  C  C411  1  0.78230000  0.54950000  0.58600000  1
  C  C412  1  0.77941000  0.96980000  0.37313000  1
  C  C413  1  0.77572000  0.01307000  0.37309000  1
  C  C414  1  0.77380000  0.46910000  0.42150000  1
  C  C415  1  0.77000000  0.56050000  0.96790000  1
  C  C416  1  0.76780000  0.42370000  0.42250000  1
  C  C417  1  0.76506000  0.49009000  0.62687000  1
  C  C418  1  0.76271000  0.83364000  0.90135000  1
  C  C419  1  0.76140000  0.26500000  0.02720000  1
  C  C420  1  0.76047000  0.27374000  0.17137000  1
  C  C421  1  0.76040000  0.79110000  0.47550000  1
  C  C422  1  0.76039000  0.26408000  0.12447000  1
  C  C423  1  0.75910000  0.25010000  0.98000000  1
  C  C424  1  0.75834000  0.49528000  0.09458000  1
  C  C425  1  0.75384000  0.91601000  0.95827000  1
  C  C426  1  0.74990000  0.72990000  0.50900000  1
  C  C427  1  0.74620000  0.83359000  0.42031000  1
  C  C428  1  0.74589000  0.82837000  0.46310000  1
  C  C429  1  0.74528000  0.50834000  0.59458000  1
  C  C430  1  0.74350000  0.46400000  0.37550000  1
  C  C431  1  0.74207000  0.44170000  0.07249000  1
  C  C432  1  0.74140000  0.94930000  0.57730000  1
  C  C433  1  0.74009000  0.51506000  0.12687000  1
  C  C434  1  0.73730000  0.87500000  0.36230000  1
  C  C435  1  0.73652000  0.87082000  0.41072000  1
  C  C436  1  0.73592000  0.86039000  0.49631000  1
  C  C437  1  0.73510000  0.98420000  0.61050000  1
  C  C438  1  0.73506000  0.92443000  0.36147000  1
  C  C439  1  0.73500000  0.76220000  0.49640000  1
  C  C440  1  0.73250000  0.37480000  0.37850000  1
  C  C441  1  0.73129000  0.45559000  0.63710000  1
  C  C442  1  0.72767000  0.01096000  0.36139000  1
  C  C443  1  0.72655000  0.90284000  0.44393000  1
  C  C444  1  0.72626000  0.89763000  0.48673000  1
  C  C445  1  0.71993000  0.82230000  0.91075000  1
  C  C446  1  0.71910000  0.52380000  0.92150000  1
  C  C447  1  0.71830000  0.93530000  0.52460000  1
  C  C448  1  0.71738000  0.27345000  0.17629000  1
  C  C449  1  0.71721000  0.25411000  0.08248000  1
  C  C450  1  0.71548000  0.86349000  0.93921000  1
  C  C451  1  0.71510000  0.23960000  0.03070000  1
  C  C452  1  0.71400000  0.49350000  0.87550000  1
  C  C453  1  0.71200000  0.21160000  0.93400000  1
  C  C454  1  0.71118000  0.00798000  0.59920000  1
  C  C455  1  0.70960000  0.41460000  0.33020000  1
  C  C456  1  0.70890000  0.19470000  0.88280000  1
  C  C457  1  0.70756000  0.40791000  0.08271000  1
  C  C458  1  0.70559000  0.48129000  0.13710000  1
  C  C459  1  0.70460000  0.36950000  0.33030000  1
  C  C460  1  0.70370000  0.04530000  0.63620000  1
  C  C461  1  0.69790000  0.96220000  0.51350000  1
  C  C462  1  0.69380000  0.99960000  0.55360000  1
  C  C463  1  0.69170000  0.49207000  0.57249000  1
  C  C464  1  0.68932000  0.42771000  0.11501000  1
  C  C465  1  0.68704000  0.82557000  0.31063000  1
  C  C466  1  0.68702000  0.92232000  0.34978000  1
  C  C467  1  0.68333000  0.96560000  0.34975000  1
  C  C468  1  0.67771000  0.43932000  0.61501000  1
  C  C469  1  0.67746000  0.82768000  0.26470000  1
  C  C470  1  0.67420000  0.26348000  0.13430000  1
  C  C471  1  0.67411000  0.25380000  0.08739000  1
  C  C472  1  0.67370000  0.51780000  0.92250000  1
  C  C473  1  0.66910000  0.84920000  0.95130000  1
  C  C474  1  0.66910000  0.20230000  0.98600000  1
  C  C475  1  0.66760000  0.18800000  0.93800000  1
  C  C476  1  0.66642000  0.31667000  0.28227000  1
  C  C477  1  0.66460000  0.45960000  0.83020000  1
  C  C478  1  0.66276000  0.31298000  0.23530000  1
  C  C479  1  0.65791000  0.45756000  0.58271000  1
  C  C480  1  0.65740000  0.18950000  0.70950000  1
  C  C481  1  0.65628000  0.34667000  0.12687000  1
  C  C482  1  0.65470000  0.23220000  0.65590000  1
  C  C483  1  0.65333000  0.78020000  0.30961000  1
  C  C484  1  0.65263000  0.38998000  0.12691000  1
  C  C485  1  0.64957000  0.36628000  0.63861000  1
  C  C486  1  0.64770000  0.22620000  0.69530000  1
  C  C487  1  0.64600000  0.26750000  0.64230000  1
  C  C488  1  0.63998000  0.40263000  0.62691000  1
  C  C489  1  0.63415000  0.78440000  0.21773000  1
  C  C490  1  0.63372000  0.27233000  0.28329000  1
  C  C491  1  0.63200000  0.25650000  0.72050000  1
  C  C492  1  0.63050000  0.96080000  0.33510000  1
  C  C493  1  0.62940000  0.83440000  0.16980000  1
  C  C494  1  0.62641000  0.26494000  0.18937000  1
  C  C495  1  0.62570000  0.29540000  0.66490000  1
  C  C496  1  0.62520000  0.00370000  0.35770000  1
  C  C497  1  0.62500000  0.26270000  0.13770000  1
  C  C498  1  0.62480000  0.48250000  0.87850000  1
  C  C499  1  0.62430000  0.78920000  0.16970000  1
  C  C500  1  0.62359000  0.31296000  0.13853000  1
  C  C501  1  0.62060000  0.29040000  0.70500000  1
  C  C502  1  0.61950000  0.45460000  0.83030000  1
  C  C503  1  0.61800000  0.83850000  0.12450000  1
  C  C504  1  0.61628000  0.39957000  0.13861000  1
  C  C505  1  0.61585000  0.33358000  0.65025000  1
  C  C506  1  0.61002000  0.73693000  0.26265000  1
  C  C507  1  0.60400000  0.74630000  0.12150000  1
  C  C508  1  0.60230000  0.79760000  0.07850000  1
  C  C509  1  0.60043000  0.73904000  0.21671000  1
  C  C510  1  0.59737000  0.22428000  0.23735000  1
  C  C511  1  0.59667000  0.40628000  0.62687000  1
  C  C512  1  0.59530000  0.75120000  0.07750000  1
  C  C513  1  0.59372000  0.22059000  0.19039000  1
  C  C514  1  0.59260000  0.80210000  0.03210000  1
  C  C515  1  0.59209000  0.67480000  0.29965000  1
  C  C516  1  0.58724000  0.32254000  0.15022000  1
  C  C517  1  0.58540000  0.91560000  0.29500000  1
  C  C518  1  0.58358000  0.36585000  0.15025000  1
  C  C519  1  0.58240000  0.02040000  0.02040000  1
  C  C520  1  0.58090000  0.03220000  0.68010000  1
  C  C521  1  0.58090000  0.06690000  0.03320000  1
  C  C522  1  0.57630000  0.99880000  0.34410000  1
  C  C523  1  0.57589000  0.16328000  0.07969000  1
  C  C524  1  0.57580000  0.21010000  0.08928000  1
  C  C525  1  0.57254000  0.33724000  0.65022000  1
  C  C526  1  0.57229000  0.68730000  0.26161000  1
  C  C527  1  0.56667000  0.41642000  0.78227000  1
  C  C528  1  0.56298000  0.41276000  0.73530000  1
  C  C529  1  0.56296000  0.37359000  0.63853000  1
  C  C530  1  0.56068000  0.17569000  0.23839000  1
  C  C531  1  0.55830000  0.63079000  0.30037000  1
  C  C532  1  0.55620000  0.60980000  0.80580000  1
  C  C533  1  0.55210000  0.56560000  0.76430000  1
  C  C534  1  0.54630000  0.68250000  0.84160000  1
  C  C535  1  0.54540000  0.37570000  0.16490000  1
  C  C536  1  0.54441000  0.18151000  0.27570000  1
  C  C537  1  0.54244000  0.12515000  0.20035000  1
  C  C538  1  0.54110000  0.92390000  0.98580000  1
  C  C539  1  0.54040000  0.37060000  0.20500000  1
  C  C540  1  0.53882000  0.63802000  0.79680000  1
  C  C541  1  0.53800000  0.97200000  0.99960000  1
  C  C542  1  0.53600000  0.91150000  0.27950000  1
  C  C543  1  0.53490000  0.06560000  0.02450000  1
  C  C544  1  0.53452000  0.97373000  0.64801000  1
  C  C545  1  0.53279000  0.11527000  0.03690000  1
  C  C546  1  0.53262000  0.20891000  0.05607000  1
  C  C547  1  0.53170000  0.55630000  0.71700000  1
  C  C548  1  0.53090000  0.95240000  0.30470000  1
  C  C549  1  0.53007000  0.94082000  0.60237000  1
  C  C550  1  0.52374000  0.51047000  0.67137000  1
  C  C551  1  0.52345000  0.46738000  0.67629000  1
  C  C552  1  0.52233000  0.38372000  0.78329000  1
  C  C553  1  0.51871000  0.65581000  0.22430000  1
  C  C554  1  0.51750000  0.39600000  0.14230000  1
  C  C555  1  0.51500000  0.51140000  0.52720000  1
  C  C556  1  0.51494000  0.37641000  0.68937000  1
  C  C557  1  0.51490000  0.62540000  0.74910000  1
  C  C558  1  0.51408000  0.51039000  0.62447000  1
  C  C559  1  0.51348000  0.42420000  0.63430000  1
  C  C560  1  0.51270000  0.37500000  0.63770000  1
  C  C561  1  0.50991000  0.13678000  0.27497000  1
  C  C562  1  0.50860000  0.58590000  0.70790000  1
  C  C563  1  0.50793000  0.08042000  0.19963000  1
  C  C564  1  0.50650000  0.38200000  0.22050000  1
  C  C565  1  0.50472000  0.59930000  0.26306000  1
  C  C566  1  0.50411000  0.46721000  0.58248000  1
  C  C567  1  0.50380000  0.42411000  0.58739000  1
  C  C568  1  0.50010000  0.50910000  0.48000000  1
  C  C569  1  0.49616000  0.95443000  0.66217000  1
  C  C570  1  0.49166000  0.08624000  0.23694000  1
  C  C571  1  0.49090000  0.97090000  0.99100000  1
  C  C572  1  0.48961000  0.11408000  0.00369000  1
  C  C573  1  0.48960000  0.46510000  0.53070000  1
  C  C574  1  0.48953000  0.16090000  0.01327000  1
  C  C575  1  0.48860000  0.01580000  0.00360000  1
  C  C576  1  0.48729000  0.88864000  0.57093000  1
  C  C577  1  0.48494000  0.61181000  0.22503000  1
  C  C578  1  0.48220000  0.40470000  0.15590000  1
  C  C579  1  0.48000000  0.94790000  0.29050000  1
  C  C580  1  0.47620000  0.39770000  0.19530000  1
  C  C581  1  0.47428000  0.34737000  0.73735000  1
  C  C582  1  0.47059000  0.34372000  0.69039000  1
  C  C583  1  0.46770000  0.55370000  0.26720000  1
  C  C584  1  0.46160000  0.46200000  0.43400000  1
  C  C585  1  0.46010000  0.32580000  0.58928000  1
  C  C586  1  0.45891000  0.28262000  0.55607000  1
  C  C587  1  0.45337000  0.90226000  0.63073000  1
  C  C588  1  0.45230000  0.41910000  0.48600000  1
  C  C589  1  0.45050000  0.03650000  0.23280000  1
  C  C590  1  0.44893000  0.86936000  0.58511000  1
  C  C591  1  0.44870000  0.18440000  0.48650000  1
  C  C592  1  0.44630000  0.71350000  0.91400000  1
  C  C593  1  0.44600000  0.14020000  0.44640000  1
  C  C594  1  0.44470000  0.45890000  0.38280000  1
  C  C595  1  0.44390000  0.80830000  0.82340000  1
  C  C596  1  0.44370000  0.16070000  0.97540000  1
  C  C597  1  0.43950000  0.40740000  0.20950000  1
  C  C598  1  0.43800000  0.41760000  0.43800000  1
  C  C599  1  0.43440000  0.19870000  0.98650000  1
  C  C600  1  0.43151000  0.29441000  0.77570000  1
  C  C601  1  0.42569000  0.31068000  0.73839000  1
  C  C602  1  0.41410000  0.12200000  0.92270000  1
  C  C603  1  0.41328000  0.32589000  0.57969000  1
  C  C604  1  0.41304000  0.82008000  0.74590000  1
  C  C605  1  0.41090000  0.23953000  0.51327000  1
  C  C606  1  0.41070000  0.19370000  0.47540000  1
  C  C607  1  0.40952000  0.65210000  0.41156000  1
  C  C608  1  0.40910000  0.06750000  0.36380000  1
  C  C609  1  0.40878000  0.11198000  0.40080000  1
  C  C610  1  0.40445000  0.69244000  0.44059000  1
  C  C611  1  0.40294000  0.77281000  0.51915000  1
  C  C612  1  0.40070000  0.66376000  0.90542000  1
  C  C613  1  0.40064000  0.79543000  0.77437000  1
  C  C614  1  0.39913000  0.81455000  0.54756000  1
  C  C615  1  0.39020000  0.19600000  0.94640000  1
  C  C616  1  0.38819000  0.61322000  0.87313000  1
  C  C617  1  0.38678000  0.25991000  0.77497000  1
  C  C618  1  0.37950000  0.55610000  0.36440000  1
  C  C619  1  0.37515000  0.29244000  0.70035000  1
  C  C620  1  0.37460000  0.12370000  0.88950000  1
  C  C621  1  0.37373000  0.59936000  0.39479000  1
  C  C622  1  0.37370000  0.12460000  0.38950000  1
  C  C623  1  0.37270000  0.80877000  0.70049000  1
  C  C624  1  0.37200000  0.16410000  0.42270000  1
  C  C625  1  0.36921000  0.66958000  0.92751000  1
  C  C626  1  0.36527000  0.28279000  0.53690000  1
  C  C627  1  0.36408000  0.23961000  0.50369000  1
  C  C628  1  0.36358000  0.68004000  0.45284000  1
  C  C629  1  0.36198000  0.15878000  0.90080000  1
  C  C630  1  0.35748000  0.72259000  0.48469000  1
  C  C631  1  0.35210000  0.90080000  0.31990000  1
  C  C632  1  0.34985000  0.80606000  0.54149000  1
  C  C633  1  0.34790000  0.75946000  0.75742000  1
  C  C634  1  0.34419000  0.56849000  0.86290000  1
  C  C635  1  0.33845000  0.92770000  0.39763000  1
  C  C636  1  0.33624000  0.24166000  0.73694000  1
  C  C637  1  0.33286000  0.58696000  0.40704000  1
  C  C638  1  0.33042000  0.25793000  0.69963000  1
  C  C639  1  0.32779000  0.62730000  0.43607000  1
  C  C640  1  0.32572000  0.88651000  0.35199000  1
  C  C641  1  0.32520000  0.62485000  0.91729000  1
  C  C642  1  0.31996000  0.77280000  0.68354000  1
  C  C643  1  0.31771000  0.91636000  0.42907000  1
  C  C644  1  0.31750000  0.15910000  0.86380000  1
  C  C645  1  0.31690000  0.33090000  0.53320000  1
  C  C646  1  0.31560000  0.28490000  0.52450000  1
  C  C647  1  0.31270000  0.57431000  0.88499000  1
  C  C648  1  0.31190000  0.82610000  0.11720000  1
  C  C649  1  0.30821000  0.71411000  0.47862000  1
  C  C650  1  0.30756000  0.74815000  0.71201000  1
  C  C651  1  0.30438000  0.75584000  0.50702000  1
  C  C652  1  0.29530000  0.45370000  0.13620000  1
  C  C653  1  0.29226000  0.83399000  0.33783000  1
  C  C654  1  0.28650000  0.20050000  0.73280000  1
  C  C655  1  0.28589000  0.76451000  0.59410000  1
  C  C656  1  0.28425000  0.86382000  0.41489000  1
  C  C657  1  0.28220000  0.33090000  0.18010000  1
  C  C658  1  0.27760000  0.77800000  0.06600000  1
  C  C659  1  0.27741000  0.76210000  0.63489000  1
  C  C660  1  0.27153000  0.82264000  0.36927000  1
  C  C661  1  0.27040000  0.33240000  0.52040000  1
  C  C662  1  0.27010000  0.77910000  0.02000000  1
  C  C663  1  0.26699000  0.85157000  0.45244000  1
  C  C664  1  0.26580000  0.23860000  0.50360000  1
  C  C665  1  0.26510000  0.94170000  0.13560000  1
  C  C666  1  0.26457000  0.80836000  0.45851000  1
  C  C667  1  0.26307000  0.52572000  0.87309000  1
  C  C668  1  0.26096000  0.47767000  0.86139000  1
  C  C669  1  0.25798000  0.46118000  0.09920000  1
  C  C670  1  0.25370000  0.37520000  0.85770000  1
  C  C671  1  0.25366000  0.88379000  0.48085000  1
  C  C672  1  0.25185000  0.96386000  0.55941000  1
  C  C673  1  0.25000000  0.75000000  0.50000000  1
  C  C674  1  0.25000000  0.72960000  0.06200000  1
  C  C675  1  0.24960000  0.44380000  0.05360000  1
  C  C676  1  0.24882000  0.79736000  0.49298000  1
  C  C677  1  0.24880000  0.32630000  0.84410000  1
  C  C678  1  0.24796000  0.99054000  0.08844000  1
  C  C679  1  0.24416000  0.75118000  0.54854000  1
  C  C680  1  0.24054000  0.99796000  0.58844000  1
  C  C681  1  0.23790000  0.87279000  0.51531000  1
  C  C682  1  0.23780000  0.73420000  0.97280000  1
  C  C683  1  0.23549000  0.82959000  0.52138000  1
  C  C684  1  0.23420000  0.48510000  0.11050000  1
  C  C685  1  0.22894000  0.95457000  0.10521000  1
  C  C686  1  0.22720000  0.91074000  0.54716000  1
  C  C687  1  0.22719000  0.74634000  0.63013000  1
  C  C688  1  0.22373000  0.28452000  0.14801000  1
  C  C689  1  0.22200000  0.28800000  0.49960000  1
  C  C690  1  0.22090000  0.24090000  0.49100000  1
  C  C691  1  0.21980000  0.52941000  0.87313000  1
  C  C692  1  0.21630000  0.68310000  0.01400000  1
  C  C693  1  0.21560000  0.43333000  0.84975000  1
  C  C694  1  0.21386000  0.00185000  0.05941000  1
  C  C695  1  0.21220000  0.44790000  0.01350000  1
  C  C696  1  0.21080000  0.38050000  0.83510000  1
  C  C697  1  0.20890000  0.68440000  0.96930000  1
  C  C698  1  0.20457000  0.97894000  0.60521000  1
  C  C699  1  0.20443000  0.24616000  0.16217000  1
  C  C700  1  0.20264000  0.69562000  0.45146000  1
  C  C701  1  0.20240000  0.28090000  0.80470000  1
  C  C702  1  0.19930000  0.49140000  0.07730000  1
  C  C703  1  0.19790000  0.23000000  0.79050000  1
  C  C704  1  0.19394000  0.73543000  0.54379000  1
  C  C705  1  0.19170000  0.01510000  0.63560000  1
  C  C706  1  0.19164000  0.65015000  0.45621000  1
  C  C707  1  0.19123000  0.89172000  0.56393000  1
  C  C708  1  0.19082000  0.28007000  0.10237000  1
  C  C709  1  0.18545000  0.73301000  0.58458000  1
  C  C710  1  0.18530000  0.46830000  0.02460000  1
  C  C711  1  0.17992000  0.92582000  0.59296000  1
  C  C712  1  0.17770000  0.08845000  0.89763000  1
  C  C713  1  0.17736000  0.54663000  0.44889000  1
  C  C714  1  0.17582000  0.92992000  0.09296000  1
  C  C715  1  0.17443000  0.48506000  0.86147000  1
  C  C716  1  0.17390000  0.29110000  0.48580000  1
  C  C717  1  0.17232000  0.43702000  0.84978000  1
  C  C718  1  0.17163000  0.63473000  0.91752000  1
  C  C719  1  0.17041000  0.69179000  0.40590000  1
  C  C720  1  0.16641000  0.58672000  0.91261000  1
  C  C721  1  0.16636000  0.06771000  0.92907000  1
  C  C722  1  0.16601000  0.50384000  0.45827000  1
  C  C723  1  0.16560000  0.33540000  0.79500000  1
  C  C724  1  0.16150000  0.28600000  0.77950000  1
  C  C725  1  0.16074000  0.97720000  0.04716000  1
  C  C726  1  0.15284000  0.47655000  0.94393000  1
  C  C727  1  0.15226000  0.20337000  0.13073000  1
  C  C728  1  0.15080000  0.10210000  0.81990000  1
  C  C729  1  0.14843000  0.60087000  0.41542000  1
  C  C730  1  0.14763000  0.47626000  0.98673000  1
  C  C731  1  0.14172000  0.94123000  0.06393000  1
  C  C732  1  0.13961000  0.63592000  0.87553000  1
  C  C733  1  0.13864000  0.23729000  0.07093000  1
  C  C734  1  0.13651000  0.07572000  0.85199000  1
  C  C735  1  0.13618000  0.55107000  0.42043000  1
  C  C736  1  0.13379000  0.00366000  0.98085000  1
  C  C737  1  0.13064000  0.71575000  0.57957000  1
  C  C738  1  0.12918000  0.53990000  0.86570000  1
  C  C739  1  0.12721000  0.64252000  0.36511000  1
  C  C740  1  0.12500000  0.48730000  0.86230000  1
  C  C741  1  0.12279000  0.98790000  0.01531000  1
  C  C742  1  0.12082000  0.48652000  0.91072000  1
  C  C743  1  0.11936000  0.19893000  0.08511000  1
  C  C744  1  0.11621000  0.59706000  0.36987000  1
  C  C745  1  0.11382000  0.03425000  0.91489000  1
  C  C746  1  0.11349000  0.46548000  0.43921000  1
  C  C747  1  0.11136000  0.68229000  0.59865000  1
  C  C748  1  0.11039000  0.48592000  0.99631000  1
  C  C749  1  0.10828000  0.67221000  0.29951000  1
  C  C750  1  0.10237000  0.58910000  0.82863000  1
  C  C751  1  0.10157000  0.01699000  0.95244000  1
  C  C752  1  0.09920000  0.41910000  0.45130000  1
  C  C753  1  0.09774000  0.72847000  0.55111000  1
  C  C754  1  0.09716000  0.54109000  0.82371000  1
  C  C755  1  0.08926000  0.63642000  0.31646000  1
  C  C756  1  0.08850000  0.36800000  0.62450000  1
  C  C757  1  0.08440000  0.37940000  0.66980000  1
  C  C758  1  0.08399000  0.04226000  0.83783000  1
  C  C759  1  0.08364000  0.51271000  0.40135000  1
  C  C760  1  0.08359000  0.49620000  0.92031000  1
  C  C761  1  0.07959000  0.98549000  0.02138000  1
  C  C762  1  0.07837000  0.49589000  0.96310000  1
  C  C763  1  0.07768000  0.42746000  0.76470000  1
  C  C764  1  0.07610000  0.06190000  0.61720000  1
  C  C765  1  0.07557000  0.43704000  0.81063000  1
  C  C766  1  0.07418000  0.66714000  0.25410000  1
  C  C767  1  0.07264000  0.02153000  0.86927000  1
  C  C768  1  0.07230000  0.46993000  0.41075000  1
  C  C769  1  0.07008000  0.16304000  0.24590000  1
  C  C770  1  0.06470000  0.58930000  0.78300000  1
  C  C771  1  0.06455000  0.14913000  0.04756000  1
  C  C772  1  0.05918000  0.66155000  0.58925000  1
  C  C773  1  0.05877000  0.12270000  0.20049000  1
  C  C774  1  0.05836000  0.01457000  0.95851000  1
  C  C775  1  0.05830000  0.19390000  0.32340000  1
  C  C776  1  0.05606000  0.09985000  0.04149000  1
  C  C777  1  0.05210000  0.34260000  0.53210000  1
  C  C778  1  0.05070000  0.62800000  0.79210000  1
  C  C779  1  0.04760000  0.35230000  0.57850000  1
  C  C780  1  0.04736000  0.99882000  0.99298000  1
  C  C781  1  0.04557000  0.70774000  0.54173000  1
  C  C782  1  0.04543000  0.15064000  0.27437000  1
  C  C783  1  0.04110000  0.51040000  0.97550000  1
  C  C784  1  0.03920000  0.37430000  0.66970000  1
  C  C785  1  0.03780000  0.55130000  0.73570000  1
  C  C786  1  0.03614000  0.59555000  0.28799000  1
  C  C787  1  0.03440000  0.38415000  0.71773000  1
  C  C788  1  0.03370000  0.54770000  0.96680000  1
  C  C789  1  0.03020000  0.40333000  0.80961000  1
  C  C790  1  0.02910000  0.02010000  0.52000000  1
  C  C791  1  0.02800000  0.02760000  0.56600000  1
  C  C792  1  0.02627000  0.67428000  0.56079000  1
  C  C793  1  0.02281000  0.15294000  0.01915000  1
  C  C794  1  0.02280000  0.06996000  0.18354000  1
  C  C795  1  0.02106000  0.62627000  0.22563000  1
  C  C796  1  0.01580000  0.62630000  0.75090000  1
  C  C797  1  0.01451000  0.03589000  0.09410000  1
  C  C798  1  0.01220000  0.48500000  0.99640000  1
  C  C799  1  0.01210000  0.02741000  0.13489000  1
  C  C800  1  0.00946000  0.09790000  0.25742000  1
  C  C801  1  0.00584000  0.05438000  0.00702000  1
  C  C802  1  0.00204000  0.59048000  0.24258000  1
  C  C803  1  0.00120000  0.34530000  0.57750000  1
  C  C804  1  0.00118000  0.99416000  0.04854000  1
  C  C805  1  0.00040000  0.55400000  0.69420000  1
  O  O806  1  0.99610000  0.65860000  0.16850000  1
  O  O807  1  0.96434000  0.28385000  0.33255000  1
  O  O808  1  0.95467000  0.22593000  0.39700000  1
  O  O809  1  0.95235000  0.61603000  0.56248000  1
  O  O810  1  0.95130000  0.63179000  0.66745000  1
  O  O811  1  0.94388000  0.66651000  0.52855000  1
  O  O812  1  0.93963000  0.57924000  0.14875000  1
  O  O813  1  0.93764000  0.31340000  0.38588000  1
  O  O814  1  0.93471000  0.59053000  0.00530000  1
  O  O815  1  0.92752000  0.55176000  0.61412000  1
  O  O816  1  0.91651000  0.69388000  0.02855000  1
  O  O817  1  0.91456000  0.53321000  0.03477000  1
  O  O818  1  0.90860000  0.74610000  0.66850000  1
  O  O819  1  0.89389000  0.62679000  0.07858000  1
  O  O820  1  0.88179000  0.70130000  0.16745000  1
  O  O821  1  0.87830000  0.60900000  0.93190000  1
  O  O822  1  0.87679000  0.64389000  0.57858000  1
  O  O823  1  0.86603000  0.70235000  0.06248000  1
  O  O824  1  0.85900000  0.62830000  0.43190000  1
  O  O825  1  0.84053000  0.68471000  0.50530000  1
  O  O826  1  0.83919000  0.52230000  0.50881000  1
  O  O827  1  0.82924000  0.68963000  0.64875000  1
  O  O828  1  0.82893000  0.55767000  0.60300000  1
  O  O829  1  0.82093000  0.51540000  0.06511000  1
  O  O830  1  0.81951000  0.17076000  0.86039000  1
  O  O831  1  0.81272000  0.56072000  0.46672000  1
  O  O832  1  0.81072000  0.56272000  0.96672000  1
  O  O833  1  0.80767000  0.57893000  0.10300000  1
  O  O834  1  0.80176000  0.67752000  0.11412000  1
  O  O835  1  0.79971000  0.23460000  0.80553000  1
  O  O836  1  0.78321000  0.66456000  0.53477000  1
  O  O837  1  0.77407000  0.17107000  0.72874000  1
  O  O838  1  0.77230000  0.58919000  0.00881000  1
  O  O839  1  0.76540000  0.57093000  0.56511000  1
  O  O840  1  0.75990000  0.09140000  0.83750000  1
  O  O841  1  0.75156000  0.21679000  0.88135000  1
  O  O842  1  0.71615000  0.04870000  0.68049000  1
  O  O843  1  0.70179000  0.12321000  0.76710000  1
  O  O844  1  0.68660000  0.07248000  0.62424000  1
  O  O845  1  0.67710000  0.94640000  0.06810000  1
  O  O846  1  0.66962000  0.16081000  0.68311000  1
  O  O847  1  0.66533000  0.88796000  0.97145000  1
  O  O848  1  0.66477000  0.15947000  0.84418000  1
  O  O849  1  0.65400000  0.18728000  0.74800000  1
  O  O850  1  0.63987000  0.80355000  0.93752000  1
  O  O851  1  0.61013000  0.04765000  0.66368000  1
  O  O852  1  0.59600000  0.84400000  0.03328000  1
  O  O853  1  0.58523000  0.92941000  0.99470000  1
  O  O854  1  0.58467000  0.05612000  0.72263000  1
  O  O855  1  0.58038000  0.76349000  0.99119000  1
  O  O856  1  0.57290000  0.14100000  0.76930000  1
  O  O857  1  0.56340000  0.68764000  0.88588000  1
  O  O858  1  0.54821000  0.81531000  0.92142000  1
  O  O859  1  0.53385000  0.71434000  0.83255000  1
  O  O860  1  0.49844000  0.87979000  0.96523000  1
  O  O861  1  0.49010000  0.82760000  0.83150000  1
  O  O862  1  0.48460000  0.54971000  0.30553000  1
  O  O863  1  0.47770000  0.98651000  0.31689000  1
  O  O864  1  0.47593000  0.70467000  0.89700000  1
  O  O865  1  0.46679000  0.50156000  0.38135000  1
  O  O866  1  0.45029000  0.75582000  0.93489000  1
  O  O867  1  0.44824000  0.06236000  0.37576000  1
  O  O868  1  0.44233000  0.04533000  0.27126000  1
  O  O869  1  0.43928000  0.90600000  0.25200000  1
  O  O870  1  0.43728000  0.40400000  0.24800000  1
  O  O871  1  0.43049000  0.79088000  0.85125000  1
  O  O872  1  0.42907000  0.99418000  0.19447000  1
  O  O873  1  0.42107000  0.52407000  0.22874000  1
  O  O874  1  0.42076000  0.56951000  0.36039000  1
  O  O875  1  0.41081000  0.41962000  0.18311000  1
  O  O876  1  0.40947000  0.41477000  0.34418000  1
  O  O877  1  0.39100000  0.32290000  0.26930000  1
  O  O878  1  0.38397000  0.94645000  0.33632000  1
  O  O879  1  0.37321000  0.45179000  0.26710000  1
  O  O880  1  0.37170000  0.80360000  0.23070000  1
  O  O881  1  0.36821000  0.03566000  0.31951000  1
  O  O882  1  0.35611000  0.93469000  0.23290000  1
  O  O883  1  0.34140000  0.50990000  0.33750000  1
  O  O884  1  0.33544000  0.87021000  0.11865000  1
  O  O885  1  0.33349000  0.86204000  0.27737000  1
  O  O886  1  0.32248000  0.43660000  0.12424000  1
  O  O887  1  0.31529000  0.82059000  0.15582000  1
  O  O888  1  0.31236000  0.19824000  0.87576000  1
  O  O889  1  0.31037000  0.95912000  0.13961000  1
  O  O890  1  0.30612000  0.33467000  0.22263000  1
  O  O891  1  0.29870000  0.46615000  0.18049000  1
  O  O892  1  0.29765000  0.36013000  0.16368000  1
  O  O893  1  0.29533000  0.19233000  0.77126000  1
  O  O894  1  0.28566000  0.11821000  0.81951000  1
  O  O895  1  0.25390000  0.92240000  0.16250000  1
  O  O896  1  0.24418000  0.17907000  0.69447000  1
  O  O897  1  0.23651000  0.22770000  0.81689000  1
  O  O898  1  0.20912000  0.06037000  0.63961000  1
  O  O899  1  0.19645000  0.13397000  0.83632000  1
  O  O900  1  0.19640000  0.42710000  0.56810000  1
  O  O901  1  0.18469000  0.10611000  0.73290000  1
  O  O902  1  0.17941000  0.33523000  0.49470000  1
  O  O903  1  0.17240000  0.00390000  0.66250000  1
  O  O904  1  0.15600000  0.18928000  0.75200000  1
  O  O905  1  0.13796000  0.41533000  0.47145000  1
  O  O906  1  0.12979000  0.24844000  0.46523000  1
  O  O907  1  0.12021000  0.08544000  0.61865000  1
  O  O908  1  0.11204000  0.08349000  0.77737000  1
  O  O909  1  0.09400000  0.34600000  0.53328000  1
  O  O910  1  0.07760000  0.24010000  0.33150000  1
  O  O911  1  0.07059000  0.06529000  0.65582000  1
  O  O912  1  0.06531000  0.29821000  0.42142000  1
  O  O913  1  0.05360000  0.12170000  0.73070000  1
  O  O914  1  0.05355000  0.38987000  0.43752000  1
  O  O915  1  0.04088000  0.18049000  0.35125000  1
  O  O916  1  0.01349000  0.33038000  0.49119000  1
  O  O917  1  0.00582000  0.20029000  0.43489000  1
