# generated using pymatgen
data_Cu2H30(C9O2)5
_symmetry_space_group_name_H-M   'P 1'
_cell_length_a   15.01000000
_cell_length_b   16.62000000
_cell_length_c   19.29000000
_cell_angle_alpha   102.28800000
_cell_angle_beta   91.78600000
_cell_angle_gamma   93.30000000
_symmetry_Int_Tables_number   1
_chemical_formula_structural   Cu2H30(C9O2)5
_chemical_formula_sum   'Cu4 H60 C90 O20'
_cell_volume   4689.50745381
_cell_formula_units_Z   2
loop_
 _symmetry_equiv_pos_site_id
 _symmetry_equiv_pos_as_xyz
  1  'x, y, z'
loop_
 _atom_site_type_symbol
 _atom_site_label
 _atom_site_symmetry_multiplicity
 _atom_site_fract_x
 _atom_site_fract_y
 _atom_site_fract_z
 _atom_site_occupancy
  Cu  Cu0  1  0.45642000  0.49336000  0.55771000  1
  Cu  Cu1  1  0.47274000  0.45714000  0.04716000  1
  Cu  Cu2  1  0.52726000  0.54286000  0.95284000  1
  Cu  Cu3  1  0.54358000  0.50664000  0.44229000  1
  H  H4  1  0.01570000  0.45080000  0.81140000  1
  H  H5  1  0.01980000  0.97540000  0.71150000  1
  H  H6  1  0.02860000  0.06130000  0.76820000  1
  H  H7  1  0.03310000  0.04380000  0.58240000  1
  H  H8  1  0.04340000  0.02560000  0.41260000  1
  H  H9  1  0.06910000  0.94200000  0.43450000  1
  H  H10  1  0.08480000  0.56100000  0.22490000  1
  H  H11  1  0.09200000  0.66320000  0.47090000  1
  H  H12  1  0.09340000  0.04580000  0.70310000  1
  H  H13  1  0.09370000  0.17940000  0.74780000  1
  H  H14  1  0.11010000  0.27570000  0.86540000  1
  H  H15  1  0.12380000  0.82560000  0.38320000  1
  H  H16  1  0.14510000  0.83660000  0.23590000  1
  H  H17  1  0.14960000  0.06700000  0.35940000  1
  H  H18  1  0.18880000  0.40470000  0.71930000  1
  H  H19  1  0.21050000  0.65570000  0.28400000  1
  H  H20  1  0.21610000  0.60710000  0.51420000  1
  H  H21  1  0.23070000  0.33820000  0.94130000  1
  H  H22  1  0.27120000  0.75590000  0.25230000  1
  H  H23  1  0.27220000  0.12400000  0.43440000  1
  H  H24  1  0.30950000  0.46710000  0.79520000  1
  H  H25  1  0.33410000  0.64020000  0.18560000  1
  H  H26  1  0.33470000  0.59970000  0.32730000  1
  H  H27  1  0.34350000  0.25200000  0.48810000  1
  H  H28  1  0.34940000  0.88970000  0.10950000  1
  H  H29  1  0.35700000  0.15230000  0.24310000  1
  H  H30  1  0.41240000  0.77410000  0.04280000  1
  H  H31  1  0.42820000  0.28030000  0.29680000  1
  H  H32  1  0.44600000  0.01240000  0.33040000  1
  H  H33  1  0.46210000  0.92570000  0.27690000  1
  H  H34  1  0.53790000  0.07430000  0.72310000  1
  H  H35  1  0.55400000  0.98760000  0.66960000  1
  H  H36  1  0.57180000  0.71970000  0.70320000  1
  H  H37  1  0.58760000  0.22590000  0.95720000  1
  H  H38  1  0.64300000  0.84770000  0.75690000  1
  H  H39  1  0.65060000  0.11030000  0.89050000  1
  H  H40  1  0.65650000  0.74800000  0.51190000  1
  H  H41  1  0.66530000  0.40030000  0.67270000  1
  H  H42  1  0.66590000  0.35980000  0.81440000  1
  H  H43  1  0.69050000  0.53290000  0.20480000  1
  H  H44  1  0.72780000  0.87600000  0.56560000  1
  H  H45  1  0.72880000  0.24410000  0.74770000  1
  H  H46  1  0.76930000  0.66180000  0.05870000  1
  H  H47  1  0.78390000  0.39290000  0.48580000  1
  H  H48  1  0.78950000  0.34430000  0.71600000  1
  H  H49  1  0.81120000  0.59530000  0.28070000  1
  H  H50  1  0.85040000  0.93300000  0.64060000  1
  H  H51  1  0.85490000  0.16340000  0.76410000  1
  H  H52  1  0.87620000  0.17440000  0.61680000  1
  H  H53  1  0.88990000  0.72430000  0.13460000  1
  H  H54  1  0.90630000  0.82060000  0.25220000  1
  H  H55  1  0.90660000  0.95420000  0.29690000  1
  H  H56  1  0.90800000  0.33680000  0.52910000  1
  H  H57  1  0.91520000  0.43900000  0.77510000  1
  H  H58  1  0.93090000  0.05800000  0.56550000  1
  H  H59  1  0.95660000  0.97440000  0.58740000  1
  H  H60  1  0.96690000  0.95620000  0.41760000  1
  H  H61  1  0.97140000  0.93870000  0.23180000  1
  H  H62  1  0.98020000  0.02460000  0.28850000  1
  H  H63  1  0.98430000  0.54920000  0.18860000  1
  C  C64  1  0.00170000  0.33430000  0.70130000  1
  C  C65  1  0.01650000  0.83660000  0.31930000  1
  C  C66  1  0.02210000  0.54160000  0.22940000  1
  C  C67  1  0.02870000  0.96610000  0.40490000  1
  C  C68  1  0.03290000  0.03500000  0.71800000  1
  C  C69  1  0.03850000  0.92750000  0.32940000  1
  C  C70  1  0.05270000  0.20760000  0.72480000  1
  C  C71  1  0.06180000  0.29300000  0.73510000  1
  C  C72  1  0.06740000  0.70990000  0.34280000  1
  C  C73  1  0.07650000  0.79540000  0.35310000  1
  C  C74  1  0.13400000  0.94900000  0.30130000  1
  C  C75  1  0.13810000  0.33440000  0.78520000  1
  C  C76  1  0.13960000  0.66470000  0.37340000  1
  C  C77  1  0.14120000  0.65030000  0.44170000  1
  C  C78  1  0.15060000  0.31460000  0.85110000  1
  C  C79  1  0.17470000  0.88950000  0.25300000  1
  C  C80  1  0.17740000  0.02640000  0.32630000  1
  C  C81  1  0.19730000  0.39120000  0.76440000  1
  C  C82  1  0.21170000  0.64590000  0.33070000  1
  C  C83  1  0.21500000  0.61700000  0.46740000  1
  C  C84  1  0.22220000  0.35170000  0.89620000  1
  C  C85  1  0.25870000  0.90750000  0.22960000  1
  C  C86  1  0.26140000  0.04440000  0.30300000  1
  C  C87  1  0.26900000  0.42830000  0.80950000  1
  C  C88  1  0.28150000  0.40850000  0.87540000  1
  C  C89  1  0.28540000  0.61260000  0.35640000  1
  C  C90  1  0.28710000  0.59810000  0.42480000  1
  C  C91  1  0.29990000  0.75950000  0.20980000  1
  C  C92  1  0.30200000  0.98490000  0.25460000  1
  C  C93  1  0.30390000  0.15570000  0.40640000  1
  C  C94  1  0.30440000  0.83370000  0.18720000  1
  C  C95  1  0.30790000  0.12610000  0.33370000  1
  C  C96  1  0.33730000  0.69090000  0.17020000  1
  C  C97  1  0.34620000  0.23180000  0.43830000  1
  C  C98  1  0.34630000  0.83910000  0.12500000  1
  C  C99  1  0.35420000  0.17250000  0.29280000  1
  C  C100  1  0.35970000  0.44230000  0.92770000  1
  C  C101  1  0.36120000  0.56510000  0.45170000  1
  C  C102  1  0.37920000  0.69630000  0.10790000  1
  C  C103  1  0.38370000  0.77040000  0.08530000  1
  C  C104  1  0.39250000  0.27820000  0.39750000  1
  C  C105  1  0.39660000  0.24860000  0.32470000  1
  C  C106  1  0.42050000  0.62660000  0.06860000  1
  C  C107  1  0.43100000  0.36230000  0.43480000  1
  C  C108  1  0.45520000  0.98540000  0.28050000  1
  C  C109  1  0.54480000  0.01460000  0.71950000  1
  C  C110  1  0.56900000  0.63770000  0.56520000  1
  C  C111  1  0.57950000  0.37340000  0.93140000  1
  C  C112  1  0.60340000  0.75140000  0.67530000  1
  C  C113  1  0.60750000  0.72180000  0.60250000  1
  C  C114  1  0.61630000  0.22960000  0.91470000  1
  C  C115  1  0.62080000  0.30370000  0.89210000  1
  C  C116  1  0.63880000  0.43490000  0.54830000  1
  C  C117  1  0.64030000  0.55770000  0.07230000  1
  C  C118  1  0.64580000  0.82750000  0.70720000  1
  C  C119  1  0.65370000  0.16090000  0.87500000  1
  C  C120  1  0.65380000  0.76820000  0.56170000  1
  C  C121  1  0.66270000  0.30910000  0.82980000  1
  C  C122  1  0.69210000  0.87390000  0.66630000  1
  C  C123  1  0.69560000  0.16630000  0.81280000  1
  C  C124  1  0.69610000  0.84430000  0.59360000  1
  C  C125  1  0.69800000  0.01510000  0.74540000  1
  C  C126  1  0.70010000  0.24050000  0.79020000  1
  C  C127  1  0.71290000  0.40190000  0.57520000  1
  C  C128  1  0.71460000  0.38740000  0.64360000  1
  C  C129  1  0.71850000  0.59150000  0.12460000  1
  C  C130  1  0.73100000  0.57170000  0.19050000  1
  C  C131  1  0.73860000  0.95560000  0.69700000  1
  C  C132  1  0.74130000  0.09250000  0.77040000  1
  C  C133  1  0.77780000  0.64830000  0.10380000  1
  C  C134  1  0.78500000  0.38300000  0.53260000  1
  C  C135  1  0.78830000  0.35410000  0.66930000  1
  C  C136  1  0.80270000  0.60880000  0.23560000  1
  C  C137  1  0.82260000  0.97360000  0.67370000  1
  C  C138  1  0.82530000  0.11050000  0.74700000  1
  C  C139  1  0.84940000  0.68540000  0.14890000  1
  C  C140  1  0.85880000  0.34970000  0.55830000  1
  C  C141  1  0.86040000  0.33530000  0.62660000  1
  C  C142  1  0.86190000  0.66560000  0.21480000  1
  C  C143  1  0.86600000  0.05100000  0.69870000  1
  C  C144  1  0.92350000  0.20460000  0.64690000  1
  C  C145  1  0.93260000  0.29010000  0.65720000  1
  C  C146  1  0.93820000  0.70700000  0.26490000  1
  C  C147  1  0.94730000  0.79240000  0.27520000  1
  C  C148  1  0.96150000  0.07250000  0.67060000  1
  C  C149  1  0.96710000  0.96500000  0.28200000  1
  C  C150  1  0.97130000  0.03390000  0.59510000  1
  C  C151  1  0.97790000  0.45840000  0.77060000  1
  C  C152  1  0.98350000  0.16340000  0.68070000  1
  C  C153  1  0.99830000  0.66570000  0.29870000  1
  O  O154  1  0.01220000  0.42350000  0.70430000  1
  O  O155  1  0.35670000  0.54260000  0.51710000  1
  O  O156  1  0.36950000  0.42130000  0.98290000  1
  O  O157  1  0.38440000  0.00010000  0.23230000  1
  O  O158  1  0.41490000  0.49740000  0.89630000  1
  O  O159  1  0.41750000  0.38710000  0.49560000  1
  O  O160  1  0.41960000  0.55790000  0.09030000  1
  O  O161  1  0.43580000  0.55560000  0.41650000  1
  O  O162  1  0.46200000  0.63490000  0.00910000  1
  O  O163  1  0.48720000  0.39880000  0.39600000  1
  O  O164  1  0.51280000  0.60120000  0.60400000  1
  O  O165  1  0.53800000  0.36510000  0.99090000  1
  O  O166  1  0.56420000  0.44440000  0.58350000  1
  O  O167  1  0.58040000  0.44210000  0.90970000  1
  O  O168  1  0.58250000  0.61290000  0.50440000  1
  O  O169  1  0.58510000  0.50260000  0.10370000  1
  O  O170  1  0.61560000  0.99990000  0.76770000  1
  O  O171  1  0.63050000  0.57870000  0.01710000  1
  O  O172  1  0.64330000  0.45740000  0.48290000  1
  O  O173  1  0.98780000  0.57650000  0.29570000  1
