# generated using pymatgen
data_ZnH8C12(IN2)2
_symmetry_space_group_name_H-M   'P 1'
_cell_length_a   13.69920000
_cell_length_b   27.26800000
_cell_length_c   45.88800000
_cell_angle_alpha   90.00000000
_cell_angle_beta   90.00000000
_cell_angle_gamma   90.00000000
_symmetry_Int_Tables_number   1
_chemical_formula_structural   ZnH8C12(IN2)2
_chemical_formula_sum   'Zn24 H192 C288 I48 N96'
_cell_volume   17141.45256161
_cell_formula_units_Z   24
loop_
 _symmetry_equiv_pos_site_id
 _symmetry_equiv_pos_as_xyz
  1  'x, y, z'
loop_
 _atom_site_type_symbol
 _atom_site_label
 _atom_site_symmetry_multiplicity
 _atom_site_fract_x
 _atom_site_fract_y
 _atom_site_fract_z
 _atom_site_occupancy
  Zn  Zn0  1  0.35734000  0.96884000  0.59148000  1
  Zn  Zn1  1  0.14266000  0.96884000  0.09148000  1
  Zn  Zn2  1  0.36079000  0.95193000  0.92860000  1
  Zn  Zn3  1  0.13921000  0.95193000  0.42860000  1
  Zn  Zn4  1  0.34181000  0.75359000  0.18892000  1
  Zn  Zn5  1  0.15819000  0.75359000  0.68892000  1
  Zn  Zn6  1  0.84181000  0.74641000  0.18892000  1
  Zn  Zn7  1  0.65819000  0.74641000  0.68892000  1
  Zn  Zn8  1  0.86079000  0.54807000  0.92860000  1
  Zn  Zn9  1  0.63921000  0.54807000  0.42860000  1
  Zn  Zn10  1  0.85734000  0.53116000  0.59148000  1
  Zn  Zn11  1  0.64266000  0.53116000  0.09148000  1
  Zn  Zn12  1  0.35734000  0.46884000  0.90852000  1
  Zn  Zn13  1  0.14266000  0.46884000  0.40852000  1
  Zn  Zn14  1  0.36079000  0.45193000  0.57140000  1
  Zn  Zn15  1  0.13921000  0.45193000  0.07140000  1
  Zn  Zn16  1  0.34181000  0.25359000  0.31108000  1
  Zn  Zn17  1  0.15819000  0.25359000  0.81108000  1
  Zn  Zn18  1  0.84181000  0.24641000  0.31108000  1
  Zn  Zn19  1  0.65819000  0.24641000  0.81108000  1
  Zn  Zn20  1  0.86079000  0.04807000  0.57140000  1
  Zn  Zn21  1  0.63921000  0.04807000  0.07140000  1
  Zn  Zn22  1  0.85734000  0.03116000  0.90852000  1
  Zn  Zn23  1  0.64266000  0.03116000  0.40852000  1
  H  H24  1  0.91160000  0.98780000  0.84950000  1
  H  H25  1  0.58840000  0.98780000  0.34950000  1
  H  H26  1  0.94430000  0.96860000  0.45840000  1
  H  H27  1  0.55570000  0.96860000  0.95840000  1
  H  H28  1  0.85850000  0.94070000  0.49790000  1
  H  H29  1  0.64150000  0.94070000  0.99790000  1
  H  H30  1  0.48160000  0.93450000  0.54130000  1
  H  H31  1  0.01840000  0.93450000  0.04130000  1
  H  H32  1  0.97320000  0.93320000  0.12560000  1
  H  H33  1  0.52680000  0.93320000  0.62560000  1
  H  H34  1  0.88960000  0.92740000  0.92730000  1
  H  H35  1  0.61040000  0.92740000  0.42730000  1
  H  H36  1  0.42830000  0.92170000  0.86900000  1
  H  H37  1  0.07170000  0.92170000  0.36900000  1
  H  H38  1  0.94220000  0.91270000  0.82850000  1
  H  H39  1  0.55780000  0.91270000  0.32850000  1
  H  H40  1  0.85980000  0.90610000  0.03290000  1
  H  H41  1  0.64020000  0.90610000  0.53290000  1
  H  H42  1  0.81570000  0.90450000  0.11970000  1
  H  H43  1  0.68430000  0.90450000  0.61970000  1
  H  H44  1  0.31870000  0.90050000  0.98520000  1
  H  H45  1  0.18130000  0.90050000  0.48520000  1
  H  H46  1  0.39780000  0.87130000  0.02630000  1
  H  H47  1  0.10220000  0.87130000  0.52630000  1
  H  H48  1  0.45290000  0.85250000  0.84120000  1
  H  H49  1  0.04710000  0.85250000  0.34120000  1
  H  H50  1  0.91530000  0.85000000  0.90760000  1
  H  H51  1  0.58470000  0.85000000  0.40760000  1
  H  H52  1  0.47180000  0.84480000  0.27460000  1
  H  H53  1  0.02820000  0.84480000  0.77460000  1
  H  H54  1  0.39080000  0.84470000  0.09600000  1
  H  H55  1  0.10920000  0.84470000  0.59600000  1
  H  H56  1  0.36210000  0.84130000  0.93790000  1
  H  H57  1  0.13790000  0.84130000  0.43790000  1
  H  H58  1  0.41120000  0.83350000  0.22740000  1
  H  H59  1  0.08880000  0.83350000  0.72740000  1
  H  H60  1  0.30640000  0.81020000  0.13440000  1
  H  H61  1  0.19360000  0.81020000  0.63440000  1
  H  H62  1  0.95500000  0.80870000  0.23210000  1
  H  H63  1  0.54500000  0.80870000  0.73210000  1
  H  H64  1  0.85690000  0.80660000  0.63520000  1
  H  H65  1  0.64310000  0.80660000  0.13520000  1
  H  H66  1  0.48650000  0.80270000  0.77920000  1
  H  H67  1  0.01350000  0.80270000  0.27920000  1
  H  H68  1  0.94740000  0.77180000  0.67260000  1
  H  H69  1  0.55260000  0.77180000  0.17260000  1
  H  H70  1  0.38920000  0.77040000  0.91180000  1
  H  H71  1  0.11080000  0.77040000  0.41180000  1
  H  H72  1  0.88920000  0.72960000  0.91180000  1
  H  H73  1  0.61080000  0.72960000  0.41180000  1
  H  H74  1  0.44740000  0.72820000  0.67260000  1
  H  H75  1  0.05260000  0.72820000  0.17260000  1
  H  H76  1  0.98650000  0.69730000  0.77920000  1
  H  H77  1  0.51350000  0.69730000  0.27920000  1
  H  H78  1  0.35690000  0.69340000  0.63520000  1
  H  H79  1  0.14310000  0.69340000  0.13520000  1
  H  H80  1  0.45500000  0.69130000  0.23210000  1
  H  H81  1  0.04500000  0.69130000  0.73210000  1
  H  H82  1  0.80640000  0.68980000  0.13440000  1
  H  H83  1  0.69360000  0.68980000  0.63440000  1
  H  H84  1  0.91120000  0.66650000  0.22740000  1
  H  H85  1  0.58880000  0.66650000  0.72740000  1
  H  H86  1  0.86210000  0.65870000  0.93790000  1
  H  H87  1  0.63790000  0.65870000  0.43790000  1
  H  H88  1  0.89080000  0.65530000  0.09600000  1
  H  H89  1  0.60920000  0.65530000  0.59600000  1
  H  H90  1  0.97180000  0.65520000  0.27460000  1
  H  H91  1  0.52820000  0.65520000  0.77460000  1
  H  H92  1  0.41530000  0.65000000  0.90760000  1
  H  H93  1  0.08470000  0.65000000  0.40760000  1
  H  H94  1  0.95290000  0.64750000  0.84120000  1
  H  H95  1  0.54710000  0.64750000  0.34120000  1
  H  H96  1  0.89780000  0.62870000  0.02630000  1
  H  H97  1  0.60220000  0.62870000  0.52630000  1
  H  H98  1  0.81870000  0.59950000  0.98520000  1
  H  H99  1  0.68130000  0.59950000  0.48520000  1
  H  H100  1  0.31570000  0.59550000  0.11970000  1
  H  H101  1  0.18430000  0.59550000  0.61970000  1
  H  H102  1  0.35980000  0.59390000  0.03290000  1
  H  H103  1  0.14020000  0.59390000  0.53290000  1
  H  H104  1  0.44220000  0.58730000  0.82850000  1
  H  H105  1  0.05780000  0.58730000  0.32850000  1
  H  H106  1  0.92830000  0.57830000  0.86900000  1
  H  H107  1  0.57170000  0.57830000  0.36900000  1
  H  H108  1  0.38960000  0.57260000  0.92730000  1
  H  H109  1  0.11040000  0.57260000  0.42730000  1
  H  H110  1  0.47320000  0.56680000  0.12560000  1
  H  H111  1  0.02680000  0.56680000  0.62560000  1
  H  H112  1  0.98160000  0.56550000  0.54130000  1
  H  H113  1  0.51840000  0.56550000  0.04130000  1
  H  H114  1  0.35850000  0.55930000  0.49790000  1
  H  H115  1  0.14150000  0.55930000  0.99790000  1
  H  H116  1  0.44430000  0.53140000  0.45840000  1
  H  H117  1  0.05570000  0.53140000  0.95840000  1
  H  H118  1  0.41160000  0.51220000  0.84950000  1
  H  H119  1  0.08840000  0.51220000  0.34950000  1
  H  H120  1  0.91160000  0.48780000  0.65050000  1
  H  H121  1  0.58840000  0.48780000  0.15050000  1
  H  H122  1  0.94430000  0.46860000  0.04160000  1
  H  H123  1  0.55570000  0.46860000  0.54160000  1
  H  H124  1  0.85850000  0.44070000  0.00210000  1
  H  H125  1  0.64150000  0.44070000  0.50210000  1
  H  H126  1  0.48160000  0.43450000  0.95870000  1
  H  H127  1  0.01840000  0.43450000  0.45870000  1
  H  H128  1  0.97320000  0.43320000  0.37440000  1
  H  H129  1  0.52680000  0.43320000  0.87440000  1
  H  H130  1  0.88960000  0.42740000  0.57270000  1
  H  H131  1  0.61040000  0.42740000  0.07270000  1
  H  H132  1  0.42830000  0.42170000  0.63100000  1
  H  H133  1  0.07170000  0.42170000  0.13100000  1
  H  H134  1  0.94220000  0.41270000  0.67150000  1
  H  H135  1  0.55780000  0.41270000  0.17150000  1
  H  H136  1  0.85980000  0.40610000  0.46710000  1
  H  H137  1  0.64020000  0.40610000  0.96710000  1
  H  H138  1  0.81570000  0.40450000  0.38030000  1
  H  H139  1  0.68430000  0.40450000  0.88030000  1
  H  H140  1  0.31870000  0.40050000  0.51480000  1
  H  H141  1  0.18130000  0.40050000  0.01480000  1
  H  H142  1  0.39780000  0.37130000  0.47370000  1
  H  H143  1  0.10220000  0.37130000  0.97370000  1
  H  H144  1  0.45290000  0.35250000  0.65880000  1
  H  H145  1  0.04710000  0.35250000  0.15880000  1
  H  H146  1  0.91530000  0.35000000  0.59240000  1
  H  H147  1  0.58470000  0.35000000  0.09240000  1
  H  H148  1  0.47180000  0.34480000  0.22540000  1
  H  H149  1  0.02820000  0.34480000  0.72540000  1
  H  H150  1  0.39080000  0.34470000  0.40400000  1
  H  H151  1  0.10920000  0.34470000  0.90400000  1
  H  H152  1  0.36210000  0.34130000  0.56210000  1
  H  H153  1  0.13790000  0.34130000  0.06210000  1
  H  H154  1  0.41120000  0.33350000  0.27260000  1
  H  H155  1  0.08880000  0.33350000  0.77260000  1
  H  H156  1  0.30640000  0.31020000  0.36560000  1
  H  H157  1  0.19360000  0.31020000  0.86560000  1
  H  H158  1  0.95500000  0.30870000  0.26790000  1
  H  H159  1  0.54500000  0.30870000  0.76790000  1
  H  H160  1  0.85690000  0.30660000  0.86480000  1
  H  H161  1  0.64310000  0.30660000  0.36480000  1
  H  H162  1  0.48650000  0.30270000  0.72080000  1
  H  H163  1  0.01350000  0.30270000  0.22080000  1
  H  H164  1  0.94740000  0.27180000  0.82740000  1
  H  H165  1  0.55260000  0.27180000  0.32740000  1
  H  H166  1  0.38920000  0.27040000  0.58820000  1
  H  H167  1  0.11080000  0.27040000  0.08820000  1
  H  H168  1  0.88920000  0.22960000  0.58820000  1
  H  H169  1  0.61080000  0.22960000  0.08820000  1
  H  H170  1  0.44740000  0.22820000  0.82740000  1
  H  H171  1  0.05260000  0.22820000  0.32740000  1
  H  H172  1  0.98650000  0.19730000  0.72080000  1
  H  H173  1  0.51350000  0.19730000  0.22080000  1
  H  H174  1  0.35690000  0.19340000  0.86480000  1
  H  H175  1  0.14310000  0.19340000  0.36480000  1
  H  H176  1  0.45500000  0.19130000  0.26790000  1
  H  H177  1  0.04500000  0.19130000  0.76790000  1
  H  H178  1  0.80640000  0.18980000  0.36560000  1
  H  H179  1  0.69360000  0.18980000  0.86560000  1
  H  H180  1  0.91120000  0.16650000  0.27260000  1
  H  H181  1  0.58880000  0.16650000  0.77260000  1
  H  H182  1  0.86210000  0.15870000  0.56210000  1
  H  H183  1  0.63790000  0.15870000  0.06210000  1
  H  H184  1  0.89080000  0.15530000  0.40400000  1
  H  H185  1  0.60920000  0.15530000  0.90400000  1
  H  H186  1  0.97180000  0.15520000  0.22540000  1
  H  H187  1  0.52820000  0.15520000  0.72540000  1
  H  H188  1  0.41530000  0.15000000  0.59240000  1
  H  H189  1  0.08470000  0.15000000  0.09240000  1
  H  H190  1  0.95290000  0.14750000  0.65880000  1
  H  H191  1  0.54710000  0.14750000  0.15880000  1
  H  H192  1  0.89780000  0.12870000  0.47370000  1
  H  H193  1  0.60220000  0.12870000  0.97370000  1
  H  H194  1  0.81870000  0.09950000  0.51480000  1
  H  H195  1  0.68130000  0.09950000  0.01480000  1
  H  H196  1  0.31570000  0.09550000  0.38030000  1
  H  H197  1  0.18430000  0.09550000  0.88030000  1
  H  H198  1  0.35980000  0.09390000  0.46710000  1
  H  H199  1  0.14020000  0.09390000  0.96710000  1
  H  H200  1  0.44220000  0.08730000  0.67150000  1
  H  H201  1  0.05780000  0.08730000  0.17150000  1
  H  H202  1  0.92830000  0.07830000  0.63100000  1
  H  H203  1  0.57170000  0.07830000  0.13100000  1
  H  H204  1  0.38960000  0.07260000  0.57270000  1
  H  H205  1  0.11040000  0.07260000  0.07270000  1
  H  H206  1  0.47320000  0.06680000  0.37440000  1
  H  H207  1  0.02680000  0.06680000  0.87440000  1
  H  H208  1  0.98160000  0.06550000  0.95870000  1
  H  H209  1  0.51840000  0.06550000  0.45870000  1
  H  H210  1  0.35850000  0.05930000  0.00210000  1
  H  H211  1  0.14150000  0.05930000  0.50210000  1
  H  H212  1  0.44430000  0.03140000  0.04160000  1
  H  H213  1  0.05570000  0.03140000  0.54160000  1
  H  H214  1  0.41160000  0.01220000  0.65050000  1
  H  H215  1  0.08840000  0.01220000  0.15050000  1
  C  C216  1  0.91220000  0.95940000  0.86148000  1
  C  C217  1  0.58780000  0.95940000  0.36148000  1
  C  C218  1  0.97610000  0.94800000  0.47215000  1
  C  C219  1  0.52390000  0.94800000  0.97215000  1
  C  C220  1  0.92520000  0.93200000  0.49566000  1
  C  C221  1  0.57480000  0.93200000  0.99566000  1
  C  C222  1  0.97630000  0.92900000  0.05738000  1
  C  C223  1  0.52370000  0.92900000  0.55738000  1
  C  C224  1  0.94920000  0.92800000  0.10640000  1
  C  C225  1  0.55080000  0.92800000  0.60640000  1
  C  C226  1  0.89870000  0.92410000  0.90686000  1
  C  C227  1  0.60130000  0.92410000  0.40686000  1
  C  C228  1  0.92960000  0.91470000  0.84883000  1
  C  C229  1  0.57040000  0.91470000  0.34883000  1
  C  C230  1  0.88190000  0.91140000  0.05230000  1
  C  C231  1  0.61810000  0.91140000  0.55230000  1
  C  C232  1  0.85570000  0.91050000  0.10316000  1
  C  C233  1  0.64430000  0.91050000  0.60316000  1
  C  C234  1  0.38570000  0.90840000  0.98793000  1
  C  C235  1  0.11430000  0.90840000  0.48793000  1
  C  C236  1  0.97020000  0.90280000  0.51644000  1
  C  C237  1  0.52980000  0.90280000  0.01644000  1
  C  C238  1  0.82130000  0.90190000  0.07542000  1
  C  C239  1  0.67870000  0.90190000  0.57542000  1
  C  C240  1  0.43170000  0.89090000  0.01248000  1
  C  C241  1  0.06830000  0.89090000  0.51248000  1
  C  C242  1  0.41920000  0.89040000  0.87774000  1
  C  C243  1  0.08080000  0.89040000  0.37774000  1
  C  C244  1  0.91760000  0.88610000  0.54305000  1
  C  C245  1  0.78130000  0.88610000  0.57039000  1
  C  C246  1  0.71870000  0.88610000  0.07039000  1
  C  C247  1  0.58240000  0.88610000  0.04305000  1
  C  C248  1  0.91440000  0.87790000  0.89517000  1
  C  C249  1  0.58560000  0.87790000  0.39517000  1
  C  C250  1  0.92880000  0.87240000  0.86541000  1
  C  C251  1  0.57120000  0.87240000  0.36541000  1
  C  C252  1  0.91930000  0.85190000  0.58728000  1
  C  C253  1  0.58070000  0.85190000  0.08728000  1
  C  C254  1  0.43470000  0.84950000  0.86112000  1
  C  C255  1  0.06530000  0.84950000  0.36112000  1
  C  C256  1  0.38110000  0.84360000  0.91800000  1
  C  C257  1  0.11890000  0.84360000  0.41800000  1
  C  C258  1  0.42540000  0.83000000  0.11164000  1
  C  C259  1  0.07460000  0.83000000  0.61164000  1
  C  C260  1  0.97350000  0.82920000  0.61161000  1
  C  C261  1  0.52650000  0.82920000  0.11161000  1
  C  C262  1  0.94060000  0.82360000  0.85208000  1
  C  C263  1  0.55940000  0.82360000  0.35208000  1
  C  C264  1  0.46700000  0.81280000  0.26653000  1
  C  C265  1  0.03300000  0.81280000  0.76653000  1
  C  C266  1  0.37580000  0.80920000  0.13450000  1
  C  C267  1  0.12420000  0.80920000  0.63450000  1
  C  C268  1  0.92620000  0.80750000  0.63455000  1
  C  C269  1  0.57380000  0.80750000  0.13455000  1
  C  C270  1  0.43100000  0.80560000  0.23830000  1
  C  C271  1  0.06900000  0.80560000  0.73830000  1
  C  C272  1  0.42360000  0.80350000  0.87365000  1
  C  C273  1  0.07640000  0.80350000  0.37365000  1
  C  C274  1  0.39680000  0.80130000  0.90256000  1
  C  C275  1  0.10320000  0.80130000  0.40256000  1
  C  C276  1  0.98060000  0.78690000  0.65683000  1
  C  C277  1  0.51940000  0.78690000  0.15683000  1
  C  C278  1  0.97430000  0.77740000  0.81342000  1
  C  C279  1  0.95640000  0.77740000  0.24121000  1
  C  C280  1  0.54360000  0.77740000  0.74121000  1
  C  C281  1  0.52570000  0.77740000  0.31342000  1
  C  C282  1  0.99190000  0.77430000  0.26907000  1
  C  C283  1  0.50810000  0.77430000  0.76907000  1
  C  C284  1  0.49530000  0.77210000  0.28220000  1
  C  C285  1  0.00470000  0.77210000  0.78220000  1
  C  C286  1  0.43870000  0.75840000  0.85612000  1
  C  C287  1  0.06130000  0.75840000  0.35612000  1
  C  C288  1  0.93870000  0.74160000  0.85612000  1
  C  C289  1  0.56130000  0.74160000  0.35612000  1
  C  C290  1  0.99530000  0.72790000  0.28220000  1
  C  C291  1  0.50470000  0.72790000  0.78220000  1
  C  C292  1  0.49190000  0.72570000  0.26907000  1
  C  C293  1  0.00810000  0.72570000  0.76907000  1
  C  C294  1  0.47430000  0.72260000  0.81342000  1
  C  C295  1  0.45640000  0.72260000  0.24121000  1
  C  C296  1  0.04360000  0.72260000  0.74121000  1
  C  C297  1  0.02570000  0.72260000  0.31342000  1
  C  C298  1  0.48060000  0.71310000  0.65683000  1
  C  C299  1  0.01940000  0.71310000  0.15683000  1
  C  C300  1  0.89680000  0.69870000  0.90256000  1
  C  C301  1  0.60320000  0.69870000  0.40256000  1
  C  C302  1  0.92360000  0.69650000  0.87365000  1
  C  C303  1  0.57640000  0.69650000  0.37365000  1
  C  C304  1  0.93100000  0.69440000  0.23830000  1
  C  C305  1  0.56900000  0.69440000  0.73830000  1
  C  C306  1  0.42620000  0.69250000  0.63455000  1
  C  C307  1  0.07380000  0.69250000  0.13455000  1
  C  C308  1  0.87580000  0.69080000  0.13450000  1
  C  C309  1  0.62420000  0.69080000  0.63450000  1
  C  C310  1  0.96700000  0.68720000  0.26653000  1
  C  C311  1  0.53300000  0.68720000  0.76653000  1
  C  C312  1  0.44060000  0.67640000  0.85208000  1
  C  C313  1  0.05940000  0.67640000  0.35208000  1
  C  C314  1  0.47350000  0.67080000  0.61161000  1
  C  C315  1  0.02650000  0.67080000  0.11161000  1
  C  C316  1  0.92540000  0.67000000  0.11164000  1
  C  C317  1  0.57460000  0.67000000  0.61164000  1
  C  C318  1  0.88110000  0.65640000  0.91800000  1
  C  C319  1  0.61890000  0.65640000  0.41800000  1
  C  C320  1  0.93470000  0.65050000  0.86112000  1
  C  C321  1  0.56530000  0.65050000  0.36112000  1
  C  C322  1  0.41930000  0.64810000  0.58728000  1
  C  C323  1  0.08070000  0.64810000  0.08728000  1
  C  C324  1  0.42880000  0.62760000  0.86541000  1
  C  C325  1  0.07120000  0.62760000  0.36541000  1
  C  C326  1  0.41440000  0.62210000  0.89517000  1
  C  C327  1  0.08560000  0.62210000  0.39517000  1
  C  C328  1  0.41760000  0.61390000  0.54305000  1
  C  C329  1  0.28130000  0.61390000  0.57039000  1
  C  C330  1  0.21870000  0.61390000  0.07039000  1
  C  C331  1  0.08240000  0.61390000  0.04305000  1
  C  C332  1  0.91920000  0.60960000  0.87774000  1
  C  C333  1  0.58080000  0.60960000  0.37774000  1
  C  C334  1  0.93170000  0.60910000  0.01248000  1
  C  C335  1  0.56830000  0.60910000  0.51248000  1
  C  C336  1  0.32130000  0.59810000  0.07542000  1
  C  C337  1  0.17870000  0.59810000  0.57542000  1
  C  C338  1  0.47020000  0.59720000  0.51644000  1
  C  C339  1  0.02980000  0.59720000  0.01644000  1
  C  C340  1  0.88570000  0.59160000  0.98793000  1
  C  C341  1  0.61430000  0.59160000  0.48793000  1
  C  C342  1  0.35570000  0.58950000  0.10316000  1
  C  C343  1  0.14430000  0.58950000  0.60316000  1
  C  C344  1  0.38190000  0.58860000  0.05230000  1
  C  C345  1  0.11810000  0.58860000  0.55230000  1
  C  C346  1  0.42960000  0.58530000  0.84883000  1
  C  C347  1  0.07040000  0.58530000  0.34883000  1
  C  C348  1  0.39870000  0.57590000  0.90686000  1
  C  C349  1  0.10130000  0.57590000  0.40686000  1
  C  C350  1  0.44920000  0.57200000  0.10640000  1
  C  C351  1  0.05080000  0.57200000  0.60640000  1
  C  C352  1  0.47630000  0.57100000  0.05738000  1
  C  C353  1  0.02370000  0.57100000  0.55738000  1
  C  C354  1  0.42520000  0.56800000  0.49566000  1
  C  C355  1  0.07480000  0.56800000  0.99566000  1
  C  C356  1  0.47610000  0.55200000  0.47215000  1
  C  C357  1  0.02390000  0.55200000  0.97215000  1
  C  C358  1  0.41220000  0.54060000  0.86148000  1
  C  C359  1  0.08780000  0.54060000  0.36148000  1
  C  C360  1  0.91220000  0.45940000  0.63852000  1
  C  C361  1  0.58780000  0.45940000  0.13852000  1
  C  C362  1  0.97610000  0.44800000  0.02785000  1
  C  C363  1  0.52390000  0.44800000  0.52785000  1
  C  C364  1  0.92520000  0.43200000  0.00434000  1
  C  C365  1  0.57480000  0.43200000  0.50434000  1
  C  C366  1  0.97630000  0.42900000  0.44262000  1
  C  C367  1  0.52370000  0.42900000  0.94262000  1
  C  C368  1  0.94920000  0.42800000  0.39360000  1
  C  C369  1  0.55080000  0.42800000  0.89360000  1
  C  C370  1  0.89870000  0.42410000  0.59314000  1
  C  C371  1  0.60130000  0.42410000  0.09314000  1
  C  C372  1  0.92960000  0.41470000  0.65117000  1
  C  C373  1  0.57040000  0.41470000  0.15117000  1
  C  C374  1  0.88190000  0.41140000  0.44770000  1
  C  C375  1  0.61810000  0.41140000  0.94770000  1
  C  C376  1  0.85570000  0.41050000  0.39684000  1
  C  C377  1  0.64430000  0.41050000  0.89684000  1
  C  C378  1  0.38570000  0.40840000  0.51207000  1
  C  C379  1  0.11430000  0.40840000  0.01207000  1
  C  C380  1  0.97020000  0.40280000  0.98356000  1
  C  C381  1  0.52980000  0.40280000  0.48356000  1
  C  C382  1  0.82130000  0.40190000  0.42458000  1
  C  C383  1  0.67870000  0.40190000  0.92458000  1
  C  C384  1  0.43170000  0.39090000  0.48752000  1
  C  C385  1  0.06830000  0.39090000  0.98752000  1
  C  C386  1  0.41920000  0.39040000  0.62226000  1
  C  C387  1  0.08080000  0.39040000  0.12226000  1
  C  C388  1  0.91760000  0.38610000  0.95695000  1
  C  C389  1  0.78130000  0.38610000  0.92961000  1
  C  C390  1  0.71870000  0.38610000  0.42961000  1
  C  C391  1  0.58240000  0.38610000  0.45695000  1
  C  C392  1  0.91440000  0.37790000  0.60483000  1
  C  C393  1  0.58560000  0.37790000  0.10483000  1
  C  C394  1  0.92880000  0.37240000  0.63459000  1
  C  C395  1  0.57120000  0.37240000  0.13459000  1
  C  C396  1  0.91930000  0.35190000  0.91272000  1
  C  C397  1  0.58070000  0.35190000  0.41272000  1
  C  C398  1  0.43470000  0.34950000  0.63888000  1
  C  C399  1  0.06530000  0.34950000  0.13888000  1
  C  C400  1  0.38110000  0.34360000  0.58200000  1
  C  C401  1  0.11890000  0.34360000  0.08200000  1
  C  C402  1  0.42540000  0.33000000  0.38836000  1
  C  C403  1  0.07460000  0.33000000  0.88836000  1
  C  C404  1  0.97350000  0.32920000  0.88839000  1
  C  C405  1  0.52650000  0.32920000  0.38839000  1
  C  C406  1  0.94060000  0.32360000  0.64792000  1
  C  C407  1  0.55940000  0.32360000  0.14792000  1
  C  C408  1  0.46700000  0.31280000  0.23347000  1
  C  C409  1  0.03300000  0.31280000  0.73347000  1
  C  C410  1  0.37580000  0.30920000  0.36550000  1
  C  C411  1  0.12420000  0.30920000  0.86550000  1
  C  C412  1  0.92620000  0.30750000  0.86545000  1
  C  C413  1  0.57380000  0.30750000  0.36545000  1
  C  C414  1  0.43100000  0.30560000  0.26170000  1
  C  C415  1  0.06900000  0.30560000  0.76170000  1
  C  C416  1  0.42360000  0.30350000  0.62635000  1
  C  C417  1  0.07640000  0.30350000  0.12635000  1
  C  C418  1  0.39680000  0.30130000  0.59744000  1
  C  C419  1  0.10320000  0.30130000  0.09744000  1
  C  C420  1  0.98060000  0.28690000  0.84317000  1
  C  C421  1  0.51940000  0.28690000  0.34317000  1
  C  C422  1  0.97430000  0.27740000  0.68658000  1
  C  C423  1  0.95640000  0.27740000  0.25879000  1
  C  C424  1  0.54360000  0.27740000  0.75879000  1
  C  C425  1  0.52570000  0.27740000  0.18658000  1
  C  C426  1  0.99190000  0.27430000  0.23093000  1
  C  C427  1  0.50810000  0.27430000  0.73093000  1
  C  C428  1  0.49530000  0.27210000  0.21780000  1
  C  C429  1  0.00470000  0.27210000  0.71780000  1
  C  C430  1  0.43870000  0.25840000  0.64388000  1
  C  C431  1  0.06130000  0.25840000  0.14388000  1
  C  C432  1  0.93870000  0.24160000  0.64388000  1
  C  C433  1  0.56130000  0.24160000  0.14388000  1
  C  C434  1  0.99530000  0.22790000  0.21780000  1
  C  C435  1  0.50470000  0.22790000  0.71780000  1
  C  C436  1  0.49190000  0.22570000  0.23093000  1
  C  C437  1  0.00810000  0.22570000  0.73093000  1
  C  C438  1  0.47430000  0.22260000  0.68658000  1
  C  C439  1  0.45640000  0.22260000  0.25879000  1
  C  C440  1  0.04360000  0.22260000  0.75879000  1
  C  C441  1  0.02570000  0.22260000  0.18658000  1
  C  C442  1  0.48060000  0.21310000  0.84317000  1
  C  C443  1  0.01940000  0.21310000  0.34317000  1
  C  C444  1  0.89680000  0.19870000  0.59744000  1
  C  C445  1  0.60320000  0.19870000  0.09744000  1
  C  C446  1  0.92360000  0.19650000  0.62635000  1
  C  C447  1  0.57640000  0.19650000  0.12635000  1
  C  C448  1  0.93100000  0.19440000  0.26170000  1
  C  C449  1  0.56900000  0.19440000  0.76170000  1
  C  C450  1  0.42620000  0.19250000  0.86545000  1
  C  C451  1  0.07380000  0.19250000  0.36545000  1
  C  C452  1  0.87580000  0.19080000  0.36550000  1
  C  C453  1  0.62420000  0.19080000  0.86550000  1
  C  C454  1  0.96700000  0.18720000  0.23347000  1
  C  C455  1  0.53300000  0.18720000  0.73347000  1
  C  C456  1  0.44060000  0.17640000  0.64792000  1
  C  C457  1  0.05940000  0.17640000  0.14792000  1
  C  C458  1  0.47350000  0.17080000  0.88839000  1
  C  C459  1  0.02650000  0.17080000  0.38839000  1
  C  C460  1  0.92540000  0.17000000  0.38836000  1
  C  C461  1  0.57460000  0.17000000  0.88836000  1
  C  C462  1  0.88110000  0.15640000  0.58200000  1
  C  C463  1  0.61890000  0.15640000  0.08200000  1
  C  C464  1  0.93470000  0.15050000  0.63888000  1
  C  C465  1  0.56530000  0.15050000  0.13888000  1
  C  C466  1  0.41930000  0.14810000  0.91272000  1
  C  C467  1  0.08070000  0.14810000  0.41272000  1
  C  C468  1  0.42880000  0.12760000  0.63459000  1
  C  C469  1  0.07120000  0.12760000  0.13459000  1
  C  C470  1  0.41440000  0.12210000  0.60483000  1
  C  C471  1  0.08560000  0.12210000  0.10483000  1
  C  C472  1  0.41760000  0.11390000  0.95695000  1
  C  C473  1  0.28130000  0.11390000  0.92961000  1
  C  C474  1  0.21870000  0.11390000  0.42961000  1
  C  C475  1  0.08240000  0.11390000  0.45695000  1
  C  C476  1  0.91920000  0.10960000  0.62226000  1
  C  C477  1  0.58080000  0.10960000  0.12226000  1
  C  C478  1  0.93170000  0.10910000  0.48752000  1
  C  C479  1  0.56830000  0.10910000  0.98752000  1
  C  C480  1  0.32130000  0.09810000  0.42458000  1
  C  C481  1  0.17870000  0.09810000  0.92458000  1
  C  C482  1  0.47020000  0.09720000  0.98356000  1
  C  C483  1  0.02980000  0.09720000  0.48356000  1
  C  C484  1  0.88570000  0.09160000  0.51207000  1
  C  C485  1  0.61430000  0.09160000  0.01207000  1
  C  C486  1  0.35570000  0.08950000  0.39684000  1
  C  C487  1  0.14430000  0.08950000  0.89684000  1
  C  C488  1  0.38190000  0.08860000  0.44770000  1
  C  C489  1  0.11810000  0.08860000  0.94770000  1
  C  C490  1  0.42960000  0.08530000  0.65117000  1
  C  C491  1  0.07040000  0.08530000  0.15117000  1
  C  C492  1  0.39870000  0.07590000  0.59314000  1
  C  C493  1  0.10130000  0.07590000  0.09314000  1
  C  C494  1  0.44920000  0.07200000  0.39360000  1
  C  C495  1  0.05080000  0.07200000  0.89360000  1
  C  C496  1  0.47630000  0.07100000  0.44262000  1
  C  C497  1  0.02370000  0.07100000  0.94262000  1
  C  C498  1  0.42520000  0.06800000  0.00434000  1
  C  C499  1  0.07480000  0.06800000  0.50434000  1
  C  C500  1  0.47610000  0.05200000  0.02785000  1
  C  C501  1  0.02390000  0.05200000  0.52785000  1
  C  C502  1  0.41220000  0.04060000  0.63852000  1
  C  C503  1  0.08780000  0.04060000  0.13852000  1
  I  I504  1  0.27636000  0.98336000  0.54229000  1
  I  I505  1  0.22364000  0.98336000  0.04229000  1
  I  I506  1  0.95865000  0.98193000  0.59731000  1
  I  I507  1  0.54135000  0.98193000  0.09731000  1
  I  I508  1  0.32302000  0.95257000  0.43646000  1
  I  I509  1  0.17698000  0.95257000  0.93646000  1
  I  I510  1  0.27474000  0.92234000  0.63233000  1
  I  I511  1  0.22526000  0.92234000  0.13233000  1
  I  I512  1  0.82723000  0.83753000  0.17776000  1
  I  I513  1  0.67277000  0.83753000  0.67776000  1
  I  I514  1  0.31162000  0.80555000  0.69642000  1
  I  I515  1  0.18838000  0.80555000  0.19642000  1
  I  I516  1  0.81162000  0.69445000  0.69642000  1
  I  I517  1  0.68838000  0.69445000  0.19642000  1
  I  I518  1  0.32723000  0.66247000  0.17776000  1
  I  I519  1  0.17277000  0.66247000  0.67776000  1
  I  I520  1  0.77474000  0.57766000  0.63233000  1
  I  I521  1  0.72526000  0.57766000  0.13233000  1
  I  I522  1  0.82302000  0.54743000  0.43646000  1
  I  I523  1  0.67698000  0.54743000  0.93646000  1
  I  I524  1  0.45865000  0.51807000  0.59731000  1
  I  I525  1  0.04135000  0.51807000  0.09731000  1
  I  I526  1  0.77636000  0.51664000  0.54229000  1
  I  I527  1  0.72364000  0.51664000  0.04229000  1
  I  I528  1  0.27636000  0.48336000  0.95771000  1
  I  I529  1  0.22364000  0.48336000  0.45771000  1
  I  I530  1  0.95865000  0.48193000  0.90269000  1
  I  I531  1  0.54135000  0.48193000  0.40269000  1
  I  I532  1  0.32302000  0.45257000  0.06354000  1
  I  I533  1  0.17698000  0.45257000  0.56354000  1
  I  I534  1  0.27474000  0.42234000  0.86767000  1
  I  I535  1  0.22526000  0.42234000  0.36767000  1
  I  I536  1  0.82723000  0.33753000  0.32224000  1
  I  I537  1  0.67277000  0.33753000  0.82224000  1
  I  I538  1  0.31162000  0.30555000  0.80358000  1
  I  I539  1  0.18838000  0.30555000  0.30358000  1
  I  I540  1  0.81162000  0.19445000  0.80358000  1
  I  I541  1  0.68838000  0.19445000  0.30358000  1
  I  I542  1  0.32723000  0.16247000  0.32224000  1
  I  I543  1  0.17277000  0.16247000  0.82224000  1
  I  I544  1  0.77474000  0.07766000  0.86767000  1
  I  I545  1  0.72526000  0.07766000  0.36767000  1
  I  I546  1  0.82302000  0.04743000  0.06354000  1
  I  I547  1  0.67698000  0.04743000  0.56354000  1
  I  I548  1  0.45865000  0.01807000  0.90269000  1
  I  I549  1  0.04135000  0.01807000  0.40269000  1
  I  I550  1  0.77636000  0.01664000  0.95771000  1
  I  I551  1  0.72364000  0.01664000  0.45771000  1
  N  N552  1  0.89610000  0.96430000  0.89011000  1
  N  N553  1  0.60390000  0.96430000  0.39011000  1
  N  N554  1  0.49170000  0.93790000  0.58385000  1
  N  N555  1  0.00830000  0.93790000  0.08385000  1
  N  N556  1  0.42990000  0.93590000  0.96760000  1
  N  N557  1  0.07010000  0.93590000  0.46760000  1
  N  N558  1  0.82170000  0.89750000  0.54478000  1
  N  N559  1  0.67830000  0.89750000  0.04478000  1
  N  N560  1  0.39160000  0.88850000  0.90598000  1
  N  N561  1  0.10840000  0.88850000  0.40598000  1
  N  N562  1  0.82660000  0.86340000  0.59244000  1
  N  N563  1  0.67340000  0.86340000  0.09244000  1
  N  N564  1  0.96950000  0.86230000  0.56293000  1
  N  N565  1  0.53050000  0.86230000  0.06293000  1
  N  N566  1  0.96550000  0.82220000  0.82394000  1
  N  N567  1  0.53450000  0.82220000  0.32394000  1
  N  N568  1  0.42090000  0.78750000  0.15697000  1
  N  N569  1  0.07910000  0.78750000  0.65697000  1
  N  N570  1  0.92770000  0.78460000  0.86935000  1
  N  N571  1  0.57230000  0.78460000  0.36935000  1
  N  N572  1  0.46120000  0.76460000  0.82816000  1
  N  N573  1  0.03880000  0.76460000  0.32816000  1
  N  N574  1  0.42340000  0.76170000  0.22610000  1
  N  N575  1  0.07660000  0.76170000  0.72610000  1
  N  N576  1  0.92340000  0.73830000  0.22610000  1
  N  N577  1  0.57660000  0.73830000  0.72610000  1
  N  N578  1  0.96120000  0.73540000  0.82816000  1
  N  N579  1  0.53880000  0.73540000  0.32816000  1
  N  N580  1  0.42770000  0.71540000  0.86935000  1
  N  N581  1  0.07230000  0.71540000  0.36935000  1
  N  N582  1  0.92090000  0.71250000  0.15697000  1
  N  N583  1  0.57910000  0.71250000  0.65697000  1
  N  N584  1  0.46550000  0.67780000  0.82394000  1
  N  N585  1  0.03450000  0.67780000  0.32394000  1
  N  N586  1  0.46950000  0.63770000  0.56293000  1
  N  N587  1  0.03050000  0.63770000  0.06293000  1
  N  N588  1  0.32660000  0.63660000  0.59244000  1
  N  N589  1  0.17340000  0.63660000  0.09244000  1
  N  N590  1  0.89160000  0.61150000  0.90598000  1
  N  N591  1  0.60840000  0.61150000  0.40598000  1
  N  N592  1  0.32170000  0.60250000  0.54478000  1
  N  N593  1  0.17830000  0.60250000  0.04478000  1
  N  N594  1  0.92990000  0.56410000  0.96760000  1
  N  N595  1  0.57010000  0.56410000  0.46760000  1
  N  N596  1  0.99170000  0.56210000  0.58385000  1
  N  N597  1  0.50830000  0.56210000  0.08385000  1
  N  N598  1  0.39610000  0.53570000  0.89011000  1
  N  N599  1  0.10390000  0.53570000  0.39011000  1
  N  N600  1  0.89610000  0.46430000  0.60989000  1
  N  N601  1  0.60390000  0.46430000  0.10989000  1
  N  N602  1  0.49170000  0.43790000  0.91615000  1
  N  N603  1  0.00830000  0.43790000  0.41615000  1
  N  N604  1  0.42990000  0.43590000  0.53240000  1
  N  N605  1  0.07010000  0.43590000  0.03240000  1
  N  N606  1  0.82170000  0.39750000  0.95522000  1
  N  N607  1  0.67830000  0.39750000  0.45522000  1
  N  N608  1  0.39160000  0.38850000  0.59402000  1
  N  N609  1  0.10840000  0.38850000  0.09402000  1
  N  N610  1  0.82660000  0.36340000  0.90756000  1
  N  N611  1  0.67340000  0.36340000  0.40756000  1
  N  N612  1  0.96950000  0.36230000  0.93707000  1
  N  N613  1  0.53050000  0.36230000  0.43707000  1
  N  N614  1  0.96550000  0.32220000  0.67606000  1
  N  N615  1  0.53450000  0.32220000  0.17606000  1
  N  N616  1  0.42090000  0.28750000  0.34303000  1
  N  N617  1  0.07910000  0.28750000  0.84303000  1
  N  N618  1  0.92770000  0.28460000  0.63065000  1
  N  N619  1  0.57230000  0.28460000  0.13065000  1
  N  N620  1  0.46120000  0.26460000  0.67184000  1
  N  N621  1  0.03880000  0.26460000  0.17184000  1
  N  N622  1  0.42340000  0.26170000  0.27390000  1
  N  N623  1  0.07660000  0.26170000  0.77390000  1
  N  N624  1  0.92340000  0.23830000  0.27390000  1
  N  N625  1  0.57660000  0.23830000  0.77390000  1
  N  N626  1  0.96120000  0.23540000  0.67184000  1
  N  N627  1  0.53880000  0.23540000  0.17184000  1
  N  N628  1  0.42770000  0.21540000  0.63065000  1
  N  N629  1  0.07230000  0.21540000  0.13065000  1
  N  N630  1  0.92090000  0.21250000  0.34303000  1
  N  N631  1  0.57910000  0.21250000  0.84303000  1
  N  N632  1  0.46550000  0.17780000  0.67606000  1
  N  N633  1  0.03450000  0.17780000  0.17606000  1
  N  N634  1  0.46950000  0.13770000  0.93707000  1
  N  N635  1  0.03050000  0.13770000  0.43707000  1
  N  N636  1  0.32660000  0.13660000  0.90756000  1
  N  N637  1  0.17340000  0.13660000  0.40756000  1
  N  N638  1  0.89160000  0.11150000  0.59402000  1
  N  N639  1  0.60840000  0.11150000  0.09402000  1
  N  N640  1  0.32170000  0.10250000  0.95522000  1
  N  N641  1  0.17830000  0.10250000  0.45522000  1
  N  N642  1  0.92990000  0.06410000  0.53240000  1
  N  N643  1  0.57010000  0.06410000  0.03240000  1
  N  N644  1  0.99170000  0.06210000  0.91615000  1
  N  N645  1  0.50830000  0.06210000  0.41615000  1
  N  N646  1  0.39610000  0.03570000  0.60989000  1
  N  N647  1  0.10390000  0.03570000  0.10989000  1
