# generated using pymatgen
data_TbH6(C2O)8
_symmetry_space_group_name_H-M   'P 1'
_cell_length_a   11.60900000
_cell_length_b   12.22700000
_cell_length_c   13.55400000
_cell_angle_alpha   65.00000000
_cell_angle_beta   69.14000000
_cell_angle_gamma   87.75000000
_symmetry_Int_Tables_number   1
_chemical_formula_structural   TbH6(C2O)8
_chemical_formula_sum   'Tb3 H18 C48 O24'
_cell_volume   1615.24069961
_cell_formula_units_Z   3
loop_
 _symmetry_equiv_pos_site_id
 _symmetry_equiv_pos_as_xyz
  1  'x, y, z'
loop_
 _atom_site_type_symbol
 _atom_site_label
 _atom_site_symmetry_multiplicity
 _atom_site_fract_x
 _atom_site_fract_y
 _atom_site_fract_z
 _atom_site_occupancy
  Tb  Tb0  1  0.42632000  0.83031000  0.32690000  1
  Tb  Tb1  1  0.50000000  0.00000000  0.50000000  1
  Tb  Tb2  1  0.57368000  0.16969000  0.67310000  1
  H  H3  1  0.06570000  0.72110000  0.57170000  1
  H  H4  1  0.08360000  0.00450000  0.64600000  1
  H  H5  1  0.09920000  0.45440000  0.33900000  1
  H  H6  1  0.24240000  0.13120000  0.32370000  1
  H  H7  1  0.27280000  0.16950000  0.46890000  1
  H  H8  1  0.36590000  0.49260000  0.45120000  1
  H  H9  1  0.48830000  0.55450000  0.14200000  1
  H  H10  1  0.49220000  0.89690000  0.91560000  1
  H  H11  1  0.49950000  0.37330000  0.17800000  1
  H  H12  1  0.50050000  0.62670000  0.82200000  1
  H  H13  1  0.50780000  0.10310000  0.08440000  1
  H  H14  1  0.51170000  0.44550000  0.85800000  1
  H  H15  1  0.63410000  0.50740000  0.54880000  1
  H  H16  1  0.72720000  0.83050000  0.53110000  1
  H  H17  1  0.75760000  0.86880000  0.67630000  1
  H  H18  1  0.90080000  0.54560000  0.66100000  1
  H  H19  1  0.91640000  0.99550000  0.35400000  1
  H  H20  1  0.93430000  0.27890000  0.42830000  1
  C  C21  1  0.02640000  0.77850000  0.59530000  1
  C  C22  1  0.03750000  0.94870000  0.64000000  1
  C  C23  1  0.08870000  0.04890000  0.33350000  1
  C  C24  1  0.09580000  0.86260000  0.60430000  1
  C  C25  1  0.10100000  0.22000000  0.37890000  1
  C  C26  1  0.15040000  0.94790000  0.30740000  1
  C  C27  1  0.15730000  0.13290000  0.34240000  1
  C  C28  1  0.15820000  0.42090000  0.37100000  1
  C  C29  1  0.17460000  0.29940000  0.39790000  1
  C  C30  1  0.21080000  0.62230000  0.36560000  1
  C  C31  1  0.22860000  0.49280000  0.39140000  1
  C  C32  1  0.23620000  0.87280000  0.56050000  1
  C  C33  1  0.26200000  0.25090000  0.44860000  1
  C  C34  1  0.31740000  0.44410000  0.43940000  1
  C  C35  1  0.33320000  0.32140000  0.46960000  1
  C  C36  1  0.42260000  0.26700000  0.52860000  1
  C  C37  1  0.47620000  0.77130000  0.13630000  1
  C  C38  1  0.48820000  0.73140000  0.04320000  1
  C  C39  1  0.49130000  0.60950000  0.06810000  1
  C  C40  1  0.49220000  0.81460000  0.93370000  1
  C  C41  1  0.49610000  0.77430000  0.85130000  1
  C  C42  1  0.49770000  0.85880000  0.73330000  1
  C  C43  1  0.49870000  0.65240000  0.87800000  1
  C  C44  1  0.49890000  0.56630000  0.98570000  1
  C  C45  1  0.50110000  0.43370000  0.01430000  1
  C  C46  1  0.50130000  0.34760000  0.12200000  1
  C  C47  1  0.50230000  0.14120000  0.26670000  1
  C  C48  1  0.50390000  0.22570000  0.14870000  1
  C  C49  1  0.50780000  0.18540000  0.06630000  1
  C  C50  1  0.50870000  0.39050000  0.93190000  1
  C  C51  1  0.51180000  0.26860000  0.95680000  1
  C  C52  1  0.52380000  0.22870000  0.86370000  1
  C  C53  1  0.57740000  0.73300000  0.47140000  1
  C  C54  1  0.66680000  0.67860000  0.53040000  1
  C  C55  1  0.68260000  0.55590000  0.56060000  1
  C  C56  1  0.73800000  0.74910000  0.55140000  1
  C  C57  1  0.76380000  0.12720000  0.43950000  1
  C  C58  1  0.77140000  0.50720000  0.60860000  1
  C  C59  1  0.78920000  0.37770000  0.63440000  1
  C  C60  1  0.82540000  0.70060000  0.60210000  1
  C  C61  1  0.84180000  0.57910000  0.62900000  1
  C  C62  1  0.84270000  0.86710000  0.65760000  1
  C  C63  1  0.84960000  0.05210000  0.69260000  1
  C  C64  1  0.89900000  0.78000000  0.62110000  1
  C  C65  1  0.90420000  0.13740000  0.39570000  1
  C  C66  1  0.91130000  0.95110000  0.66650000  1
  C  C67  1  0.96250000  0.05130000  0.36000000  1
  C  C68  1  0.97360000  0.22150000  0.40470000  1
  O  O69  1  0.07980000  0.87010000  0.30810000  1
  O  O70  1  0.14050000  0.67170000  0.30900000  1
  O  O71  1  0.26120000  0.94480000  0.29120000  1
  O  O72  1  0.26690000  0.67800000  0.39650000  1
  O  O73  1  0.28910000  0.95370000  0.57050000  1
  O  O74  1  0.29080000  0.80670000  0.51550000  1
  O  O75  1  0.43630000  0.15470000  0.55590000  1
  O  O76  1  0.43810000  0.87010000  0.13060000  1
  O  O77  1  0.46610000  0.81440000  0.67670000  1
  O  O78  1  0.46810000  0.02970000  0.31290000  1
  O  O79  1  0.47870000  0.32850000  0.55480000  1
  O  O80  1  0.49860000  0.30060000  0.77560000  1
  O  O81  1  0.50140000  0.69940000  0.22440000  1
  O  O82  1  0.52130000  0.67150000  0.44520000  1
  O  O83  1  0.53190000  0.97030000  0.68710000  1
  O  O84  1  0.53390000  0.18560000  0.32330000  1
  O  O85  1  0.56190000  0.12990000  0.86940000  1
  O  O86  1  0.56370000  0.84530000  0.44410000  1
  O  O87  1  0.70920000  0.19330000  0.48450000  1
  O  O88  1  0.71090000  0.04630000  0.42950000  1
  O  O89  1  0.73310000  0.32200000  0.60350000  1
  O  O90  1  0.73880000  0.05520000  0.70880000  1
  O  O91  1  0.85950000  0.32830000  0.69100000  1
  O  O92  1  0.92020000  0.12990000  0.69190000  1
