# generated using pymatgen
data_Cu4Si2H32C56N32Cl
_symmetry_space_group_name_H-M   'P 1'
_cell_length_a   18.51530000
_cell_length_b   18.51530000
_cell_length_c   25.05760000
_cell_angle_alpha   90.00000000
_cell_angle_beta   90.00000000
_cell_angle_gamma   90.00000000
_symmetry_Int_Tables_number   1
_chemical_formula_structural   Cu4Si2H32C56N32Cl
_chemical_formula_sum   'Cu8 Si4 H64 C112 N64 Cl2'
_cell_volume   8590.15457309
_cell_formula_units_Z   2
loop_
 _symmetry_equiv_pos_site_id
 _symmetry_equiv_pos_as_xyz
  1  'x, y, z'
loop_
 _atom_site_type_symbol
 _atom_site_label
 _atom_site_symmetry_multiplicity
 _atom_site_fract_x
 _atom_site_fract_y
 _atom_site_fract_z
 _atom_site_occupancy
  Cu  Cu0  1  0.00000000  0.00000000  0.10161000  1
  Cu  Cu1  1  0.00000000  0.00000000  0.89839000  1
  Cu  Cu2  1  0.09666000  0.09666000  0.00000000  1
  Cu  Cu3  1  0.40334000  0.59666000  0.50000000  1
  Cu  Cu4  1  0.50000000  0.50000000  0.39839000  1
  Cu  Cu5  1  0.50000000  0.50000000  0.60161000  1
  Cu  Cu6  1  0.59666000  0.40334000  0.50000000  1
  Cu  Cu7  1  0.90334000  0.90334000  0.00000000  1
  Si  Si8  1  0.00000000  0.50000000  0.25000000  1
  Si  Si9  1  0.00000000  0.50000000  0.75000000  1
  Si  Si10  1  0.50000000  0.00000000  0.25000000  1
  Si  Si11  1  0.50000000  0.00000000  0.75000000  1
  H  H12  1  0.04570000  0.55970000  0.35330000  1
  H  H13  1  0.04570000  0.55970000  0.64670000  1
  H  H14  1  0.05970000  0.45430000  0.14670000  1
  H  H15  1  0.05970000  0.45430000  0.85330000  1
  H  H16  1  0.06250000  0.34800000  0.09710000  1
  H  H17  1  0.06250000  0.34800000  0.90290000  1
  H  H18  1  0.06520000  0.74820000  0.20540000  1
  H  H19  1  0.06520000  0.74820000  0.79460000  1
  H  H20  1  0.06760000  0.64230000  0.25500000  1
  H  H21  1  0.06760000  0.64230000  0.74500000  1
  H  H22  1  0.14230000  0.43240000  0.24500000  1
  H  H23  1  0.14230000  0.43240000  0.75500000  1
  H  H24  1  0.15200000  0.56250000  0.40290000  1
  H  H25  1  0.15200000  0.56250000  0.59710000  1
  H  H26  1  0.24820000  0.43480000  0.29460000  1
  H  H27  1  0.24820000  0.43480000  0.70540000  1
  H  H28  1  0.25180000  0.93480000  0.20540000  1
  H  H29  1  0.25180000  0.93480000  0.79460000  1
  H  H30  1  0.34800000  0.06250000  0.09710000  1
  H  H31  1  0.34800000  0.06250000  0.90290000  1
  H  H32  1  0.35770000  0.93240000  0.25500000  1
  H  H33  1  0.35770000  0.93240000  0.74500000  1
  H  H34  1  0.43240000  0.14230000  0.24500000  1
  H  H35  1  0.43240000  0.14230000  0.75500000  1
  H  H36  1  0.43480000  0.24820000  0.29460000  1
  H  H37  1  0.43480000  0.24820000  0.70540000  1
  H  H38  1  0.43750000  0.84800000  0.40290000  1
  H  H39  1  0.43750000  0.84800000  0.59710000  1
  H  H40  1  0.44030000  0.95430000  0.35330000  1
  H  H41  1  0.44030000  0.95430000  0.64670000  1
  H  H42  1  0.45430000  0.05970000  0.14670000  1
  H  H43  1  0.45430000  0.05970000  0.85330000  1
  H  H44  1  0.54570000  0.94030000  0.14670000  1
  H  H45  1  0.54570000  0.94030000  0.85330000  1
  H  H46  1  0.55970000  0.04570000  0.35330000  1
  H  H47  1  0.55970000  0.04570000  0.64670000  1
  H  H48  1  0.56250000  0.15200000  0.40290000  1
  H  H49  1  0.56250000  0.15200000  0.59710000  1
  H  H50  1  0.56520000  0.75180000  0.29460000  1
  H  H51  1  0.56520000  0.75180000  0.70540000  1
  H  H52  1  0.56760000  0.85770000  0.24500000  1
  H  H53  1  0.56760000  0.85770000  0.75500000  1
  H  H54  1  0.64230000  0.06760000  0.25500000  1
  H  H55  1  0.64230000  0.06760000  0.74500000  1
  H  H56  1  0.65200000  0.93750000  0.09710000  1
  H  H57  1  0.65200000  0.93750000  0.90290000  1
  H  H58  1  0.74820000  0.06520000  0.20540000  1
  H  H59  1  0.74820000  0.06520000  0.79460000  1
  H  H60  1  0.75180000  0.56520000  0.29460000  1
  H  H61  1  0.75180000  0.56520000  0.70540000  1
  H  H62  1  0.84800000  0.43750000  0.40290000  1
  H  H63  1  0.84800000  0.43750000  0.59710000  1
  H  H64  1  0.85770000  0.56760000  0.24500000  1
  H  H65  1  0.85770000  0.56760000  0.75500000  1
  H  H66  1  0.93240000  0.35770000  0.25500000  1
  H  H67  1  0.93240000  0.35770000  0.74500000  1
  H  H68  1  0.93480000  0.25180000  0.20540000  1
  H  H69  1  0.93480000  0.25180000  0.79460000  1
  H  H70  1  0.93750000  0.65200000  0.09710000  1
  H  H71  1  0.93750000  0.65200000  0.90290000  1
  H  H72  1  0.94030000  0.54570000  0.14670000  1
  H  H73  1  0.94030000  0.54570000  0.85330000  1
  H  H74  1  0.95430000  0.44030000  0.35330000  1
  H  H75  1  0.95430000  0.44030000  0.64670000  1
  C  C76  1  0.00005000  0.28936000  0.14668000  1
  C  C77  1  0.00005000  0.28936000  0.85332000  1
  C  C78  1  0.00322000  0.58257000  0.20696000  1
  C  C79  1  0.00322000  0.58257000  0.79304000  1
  C  C80  1  0.00646000  0.22117000  0.11688000  1
  C  C81  1  0.00646000  0.22117000  0.88312000  1
  C  C82  1  0.03441000  0.41304000  0.15940000  1
  C  C83  1  0.03441000  0.41304000  0.84060000  1
  C  C84  1  0.03606000  0.34954000  0.12962000  1
  C  C85  1  0.03606000  0.34954000  0.87038000  1
  C  C86  1  0.03907000  0.70716000  0.19337000  1
  C  C87  1  0.03907000  0.70716000  0.80663000  1
  C  C88  1  0.04039000  0.64374000  0.22290000  1
  C  C89  1  0.04039000  0.64374000  0.77710000  1
  C  C90  1  0.08257000  0.49678000  0.29304000  1
  C  C91  1  0.08257000  0.49678000  0.70696000  1
  C  C92  1  0.08696000  0.53441000  0.34060000  1
  C  C93  1  0.08696000  0.53441000  0.65940000  1
  C  C94  1  0.14374000  0.45961000  0.27710000  1
  C  C95  1  0.14374000  0.45961000  0.72290000  1
  C  C96  1  0.15046000  0.53606000  0.37038000  1
  C  C97  1  0.15046000  0.53606000  0.62962000  1
  C  C98  1  0.20716000  0.46093000  0.30663000  1
  C  C99  1  0.20716000  0.46093000  0.69337000  1
  C  C100  1  0.21064000  0.50005000  0.35332000  1
  C  C101  1  0.21064000  0.50005000  0.64668000  1
  C  C102  1  0.22117000  0.00646000  0.11688000  1
  C  C103  1  0.22117000  0.00646000  0.88312000  1
  C  C104  1  0.27883000  0.50646000  0.38312000  1
  C  C105  1  0.27883000  0.50646000  0.61688000  1
  C  C106  1  0.28936000  0.00005000  0.14668000  1
  C  C107  1  0.28936000  0.00005000  0.85332000  1
  C  C108  1  0.29284000  0.96093000  0.19337000  1
  C  C109  1  0.29284000  0.96093000  0.80663000  1
  C  C110  1  0.34954000  0.03606000  0.12962000  1
  C  C111  1  0.34954000  0.03606000  0.87038000  1
  C  C112  1  0.35626000  0.95961000  0.22290000  1
  C  C113  1  0.35626000  0.95961000  0.77710000  1
  C  C114  1  0.41304000  0.03441000  0.15940000  1
  C  C115  1  0.41304000  0.03441000  0.84060000  1
  C  C116  1  0.41743000  0.99678000  0.20696000  1
  C  C117  1  0.41743000  0.99678000  0.79304000  1
  C  C118  1  0.45961000  0.14374000  0.27710000  1
  C  C119  1  0.45961000  0.14374000  0.72290000  1
  C  C120  1  0.46093000  0.20716000  0.30663000  1
  C  C121  1  0.46093000  0.20716000  0.69337000  1
  C  C122  1  0.46394000  0.84954000  0.37038000  1
  C  C123  1  0.46394000  0.84954000  0.62962000  1
  C  C124  1  0.46559000  0.91304000  0.34060000  1
  C  C125  1  0.46559000  0.91304000  0.65940000  1
  C  C126  1  0.49354000  0.72117000  0.38312000  1
  C  C127  1  0.49354000  0.72117000  0.61688000  1
  C  C128  1  0.49678000  0.08257000  0.29304000  1
  C  C129  1  0.49678000  0.08257000  0.70696000  1
  C  C130  1  0.49995000  0.78936000  0.35332000  1
  C  C131  1  0.49995000  0.78936000  0.64668000  1
  C  C132  1  0.50005000  0.21064000  0.35332000  1
  C  C133  1  0.50005000  0.21064000  0.64668000  1
  C  C134  1  0.50322000  0.91743000  0.29304000  1
  C  C135  1  0.50322000  0.91743000  0.70696000  1
  C  C136  1  0.50646000  0.27883000  0.38312000  1
  C  C137  1  0.50646000  0.27883000  0.61688000  1
  C  C138  1  0.53441000  0.08696000  0.34060000  1
  C  C139  1  0.53441000  0.08696000  0.65940000  1
  C  C140  1  0.53606000  0.15046000  0.37038000  1
  C  C141  1  0.53606000  0.15046000  0.62962000  1
  C  C142  1  0.53907000  0.79284000  0.30663000  1
  C  C143  1  0.53907000  0.79284000  0.69337000  1
  C  C144  1  0.54039000  0.85626000  0.27710000  1
  C  C145  1  0.54039000  0.85626000  0.72290000  1
  C  C146  1  0.58257000  0.00322000  0.20696000  1
  C  C147  1  0.58257000  0.00322000  0.79304000  1
  C  C148  1  0.58696000  0.96559000  0.15940000  1
  C  C149  1  0.58696000  0.96559000  0.84060000  1
  C  C150  1  0.64374000  0.04039000  0.22290000  1
  C  C151  1  0.64374000  0.04039000  0.77710000  1
  C  C152  1  0.65046000  0.96394000  0.12962000  1
  C  C153  1  0.65046000  0.96394000  0.87038000  1
  C  C154  1  0.70716000  0.03907000  0.19337000  1
  C  C155  1  0.70716000  0.03907000  0.80663000  1
  C  C156  1  0.71064000  0.99995000  0.14668000  1
  C  C157  1  0.71064000  0.99995000  0.85332000  1
  C  C158  1  0.72117000  0.49354000  0.38312000  1
  C  C159  1  0.72117000  0.49354000  0.61688000  1
  C  C160  1  0.77883000  0.99354000  0.11688000  1
  C  C161  1  0.77883000  0.99354000  0.88312000  1
  C  C162  1  0.78936000  0.49995000  0.35332000  1
  C  C163  1  0.78936000  0.49995000  0.64668000  1
  C  C164  1  0.79284000  0.53907000  0.30663000  1
  C  C165  1  0.79284000  0.53907000  0.69337000  1
  C  C166  1  0.84954000  0.46394000  0.37038000  1
  C  C167  1  0.84954000  0.46394000  0.62962000  1
  C  C168  1  0.85626000  0.54039000  0.27710000  1
  C  C169  1  0.85626000  0.54039000  0.72290000  1
  C  C170  1  0.91304000  0.46559000  0.34060000  1
  C  C171  1  0.91304000  0.46559000  0.65940000  1
  C  C172  1  0.91743000  0.50322000  0.29304000  1
  C  C173  1  0.91743000  0.50322000  0.70696000  1
  C  C174  1  0.95961000  0.35626000  0.22290000  1
  C  C175  1  0.95961000  0.35626000  0.77710000  1
  C  C176  1  0.96093000  0.29284000  0.19337000  1
  C  C177  1  0.96093000  0.29284000  0.80663000  1
  C  C178  1  0.96394000  0.65046000  0.12962000  1
  C  C179  1  0.96394000  0.65046000  0.87038000  1
  C  C180  1  0.96559000  0.58696000  0.15940000  1
  C  C181  1  0.96559000  0.58696000  0.84060000  1
  C  C182  1  0.99354000  0.77883000  0.11688000  1
  C  C183  1  0.99354000  0.77883000  0.88312000  1
  C  C184  1  0.99678000  0.41743000  0.20696000  1
  C  C185  1  0.99678000  0.41743000  0.79304000  1
  C  C186  1  0.99995000  0.71064000  0.14668000  1
  C  C187  1  0.99995000  0.71064000  0.85332000  1
  N  N188  1  0.00400000  0.11068000  0.09720000  1
  N  N189  1  0.00400000  0.11068000  0.90280000  1
  N  N190  1  0.01796000  0.84305000  0.13408000  1
  N  N191  1  0.01796000  0.84305000  0.86592000  1
  N  N192  1  0.04008000  0.14582000  0.05896000  1
  N  N193  1  0.04008000  0.14582000  0.94104000  1
  N  N194  1  0.04226000  0.21575000  0.07060000  1
  N  N195  1  0.04226000  0.21575000  0.92940000  1
  N  N196  1  0.11068000  0.00400000  0.09720000  1
  N  N197  1  0.11068000  0.00400000  0.90280000  1
  N  N198  1  0.14582000  0.04008000  0.05896000  1
  N  N199  1  0.14582000  0.04008000  0.94104000  1
  N  N200  1  0.15695000  0.98204000  0.13408000  1
  N  N201  1  0.15695000  0.98204000  0.86592000  1
  N  N202  1  0.21575000  0.04226000  0.07060000  1
  N  N203  1  0.21575000  0.04226000  0.92940000  1
  N  N204  1  0.28425000  0.54226000  0.42940000  1
  N  N205  1  0.28425000  0.54226000  0.57060000  1
  N  N206  1  0.34305000  0.48204000  0.36592000  1
  N  N207  1  0.34305000  0.48204000  0.63408000  1
  N  N208  1  0.35418000  0.54008000  0.44104000  1
  N  N209  1  0.35418000  0.54008000  0.55896000  1
  N  N210  1  0.38932000  0.50400000  0.40280000  1
  N  N211  1  0.38932000  0.50400000  0.59720000  1
  N  N212  1  0.45774000  0.71575000  0.42940000  1
  N  N213  1  0.45774000  0.71575000  0.57060000  1
  N  N214  1  0.45992000  0.64582000  0.44104000  1
  N  N215  1  0.45992000  0.64582000  0.55896000  1
  N  N216  1  0.48204000  0.34305000  0.36592000  1
  N  N217  1  0.48204000  0.34305000  0.63408000  1
  N  N218  1  0.49600000  0.61068000  0.40280000  1
  N  N219  1  0.49600000  0.61068000  0.59720000  1
  N  N220  1  0.50400000  0.38932000  0.40280000  1
  N  N221  1  0.50400000  0.38932000  0.59720000  1
  N  N222  1  0.51796000  0.65695000  0.36592000  1
  N  N223  1  0.51796000  0.65695000  0.63408000  1
  N  N224  1  0.54008000  0.35418000  0.44104000  1
  N  N225  1  0.54008000  0.35418000  0.55896000  1
  N  N226  1  0.54226000  0.28425000  0.42940000  1
  N  N227  1  0.54226000  0.28425000  0.57060000  1
  N  N228  1  0.61068000  0.49600000  0.40280000  1
  N  N229  1  0.61068000  0.49600000  0.59720000  1
  N  N230  1  0.64582000  0.45992000  0.44104000  1
  N  N231  1  0.64582000  0.45992000  0.55896000  1
  N  N232  1  0.65695000  0.51796000  0.36592000  1
  N  N233  1  0.65695000  0.51796000  0.63408000  1
  N  N234  1  0.71575000  0.45774000  0.42940000  1
  N  N235  1  0.71575000  0.45774000  0.57060000  1
  N  N236  1  0.78425000  0.95774000  0.07060000  1
  N  N237  1  0.78425000  0.95774000  0.92940000  1
  N  N238  1  0.84305000  0.01796000  0.13408000  1
  N  N239  1  0.84305000  0.01796000  0.86592000  1
  N  N240  1  0.85418000  0.95992000  0.05896000  1
  N  N241  1  0.85418000  0.95992000  0.94104000  1
  N  N242  1  0.88932000  0.99600000  0.09720000  1
  N  N243  1  0.88932000  0.99600000  0.90280000  1
  N  N244  1  0.95774000  0.78425000  0.07060000  1
  N  N245  1  0.95774000  0.78425000  0.92940000  1
  N  N246  1  0.95992000  0.85418000  0.05896000  1
  N  N247  1  0.95992000  0.85418000  0.94104000  1
  N  N248  1  0.98204000  0.15695000  0.13408000  1
  N  N249  1  0.98204000  0.15695000  0.86592000  1
  N  N250  1  0.99600000  0.88932000  0.09720000  1
  N  N251  1  0.99600000  0.88932000  0.90280000  1
  Cl  Cl252  1  0.00000000  0.00000000  0.00000000  1
  Cl  Cl253  1  0.50000000  0.50000000  0.50000000  1
