# generated using pymatgen
data_CuH8C14N2O5
_symmetry_space_group_name_H-M   'P 1'
_cell_length_a   8.42830000
_cell_length_b   10.25530000
_cell_length_c   17.71200000
_cell_angle_alpha   90.00000000
_cell_angle_beta   103.03600000
_cell_angle_gamma   90.00000000
_symmetry_Int_Tables_number   1
_chemical_formula_structural   CuH8C14N2O5
_chemical_formula_sum   'Cu4 H32 C56 N8 O20'
_cell_volume   1491.47783228
_cell_formula_units_Z   4
loop_
 _symmetry_equiv_pos_site_id
 _symmetry_equiv_pos_as_xyz
  1  'x, y, z'
loop_
 _atom_site_type_symbol
 _atom_site_label
 _atom_site_symmetry_multiplicity
 _atom_site_fract_x
 _atom_site_fract_y
 _atom_site_fract_z
 _atom_site_occupancy
  Cu  Cu0  1  0.17395000  0.94224000  0.56792000  1
  Cu  Cu1  1  0.32605000  0.44224000  0.93208000  1
  Cu  Cu2  1  0.67395000  0.55776000  0.06792000  1
  Cu  Cu3  1  0.82605000  0.05776000  0.43208000  1
  H  H4  1  0.03340000  0.23090000  0.66920000  1
  H  H5  1  0.06460000  0.60790000  0.84200000  1
  H  H6  1  0.06870000  0.72660000  0.09150000  1
  H  H7  1  0.10560000  0.22760000  0.13650000  1
  H  H8  1  0.13700000  0.16170000  0.90440000  1
  H  H9  1  0.14190000  0.41230000  0.48520000  1
  H  H10  1  0.18510000  0.05020000  0.80020000  1
  H  H11  1  0.23390000  0.56410000  0.06510000  1
  H  H12  1  0.26610000  0.06410000  0.43490000  1
  H  H13  1  0.31490000  0.55020000  0.69980000  1
  H  H14  1  0.35810000  0.91230000  0.01480000  1
  H  H15  1  0.36300000  0.66170000  0.59560000  1
  H  H16  1  0.39440000  0.72760000  0.36350000  1
  H  H17  1  0.43130000  0.22660000  0.40850000  1
  H  H18  1  0.43540000  0.10790000  0.65800000  1
  H  H19  1  0.46660000  0.73090000  0.83080000  1
  H  H20  1  0.53340000  0.26910000  0.16920000  1
  H  H21  1  0.56460000  0.89210000  0.34200000  1
  H  H22  1  0.56870000  0.77340000  0.59150000  1
  H  H23  1  0.60560000  0.27240000  0.63650000  1
  H  H24  1  0.63700000  0.33830000  0.40440000  1
  H  H25  1  0.64190000  0.08770000  0.98520000  1
  H  H26  1  0.68510000  0.44980000  0.30020000  1
  H  H27  1  0.73390000  0.93590000  0.56510000  1
  H  H28  1  0.76610000  0.43590000  0.93490000  1
  H  H29  1  0.81490000  0.94980000  0.19980000  1
  H  H30  1  0.85810000  0.58770000  0.51480000  1
  H  H31  1  0.86300000  0.83830000  0.09560000  1
  H  H32  1  0.89440000  0.77240000  0.86350000  1
  H  H33  1  0.93130000  0.27340000  0.90850000  1
  H  H34  1  0.93540000  0.39210000  0.15800000  1
  H  H35  1  0.96660000  0.76910000  0.33080000  1
  C  C36  1  0.01470000  0.79370000  0.48360000  1
  C  C37  1  0.03690000  0.23210000  0.01910000  1
  C  C38  1  0.03700000  0.26870000  0.09490000  1
  C  C39  1  0.06620000  0.63320000  0.89260000  1
  C  C40  1  0.06620000  0.70430000  0.04030000  1
  C  C41  1  0.07800000  0.30590000  0.56970000  1
  C  C42  1  0.08720000  0.29710000  0.64920000  1
  C  C43  1  0.14100000  0.11660000  0.00860000  1
  C  C44  1  0.15300000  0.40600000  0.53850000  1
  C  C45  1  0.16590000  0.60750000  0.02420000  1
  C  C46  1  0.17830000  0.38930000  0.69760000  1
  C  C47  1  0.19370000  0.38060000  0.78340000  1
  C  C48  1  0.24480000  0.49670000  0.58780000  1
  C  C49  1  0.24490000  0.98820000  0.83310000  1
  C  C50  1  0.25510000  0.48820000  0.66690000  1
  C  C51  1  0.25520000  0.99670000  0.91220000  1
  C  C52  1  0.30630000  0.88060000  0.71660000  1
  C  C53  1  0.32170000  0.88930000  0.80240000  1
  C  C54  1  0.33410000  0.10750000  0.47580000  1
  C  C55  1  0.34700000  0.90600000  0.96150000  1
  C  C56  1  0.35900000  0.61660000  0.49140000  1
  C  C57  1  0.41280000  0.79710000  0.85080000  1
  C  C58  1  0.42200000  0.80590000  0.93030000  1
  C  C59  1  0.43380000  0.13320000  0.60740000  1
  C  C60  1  0.43380000  0.20430000  0.45970000  1
  C  C61  1  0.46300000  0.76870000  0.40510000  1
  C  C62  1  0.46310000  0.73210000  0.48090000  1
  C  C63  1  0.48530000  0.29370000  0.01640000  1
  C  C64  1  0.51470000  0.70630000  0.98360000  1
  C  C65  1  0.53690000  0.26790000  0.51910000  1
  C  C66  1  0.53700000  0.23130000  0.59490000  1
  C  C67  1  0.56620000  0.79570000  0.54030000  1
  C  C68  1  0.56620000  0.86680000  0.39260000  1
  C  C69  1  0.57800000  0.19410000  0.06970000  1
  C  C70  1  0.58720000  0.20290000  0.14920000  1
  C  C71  1  0.64100000  0.38340000  0.50860000  1
  C  C72  1  0.65300000  0.09400000  0.03850000  1
  C  C73  1  0.66590000  0.89250000  0.52420000  1
  C  C74  1  0.67830000  0.11070000  0.19760000  1
  C  C75  1  0.69370000  0.11940000  0.28340000  1
  C  C76  1  0.74480000  0.00330000  0.08780000  1
  C  C77  1  0.74490000  0.51180000  0.33310000  1
  C  C78  1  0.75510000  0.01180000  0.16690000  1
  C  C79  1  0.75520000  0.50330000  0.41220000  1
  C  C80  1  0.80630000  0.61940000  0.21660000  1
  C  C81  1  0.82170000  0.61070000  0.30240000  1
  C  C82  1  0.83410000  0.39250000  0.97580000  1
  C  C83  1  0.84700000  0.59400000  0.46150000  1
  C  C84  1  0.85900000  0.88340000  0.99140000  1
  C  C85  1  0.91280000  0.70290000  0.35080000  1
  C  C86  1  0.92200000  0.69410000  0.43030000  1
  C  C87  1  0.93380000  0.29570000  0.95970000  1
  C  C88  1  0.93380000  0.36680000  0.10740000  1
  C  C89  1  0.96300000  0.73130000  0.90510000  1
  C  C90  1  0.96310000  0.76790000  0.98090000  1
  C  C91  1  0.98530000  0.20630000  0.51640000  1
  N  N92  1  0.16870000  0.57320000  0.95110000  1
  N  N93  1  0.17180000  0.10130000  0.93760000  1
  N  N94  1  0.32820000  0.60130000  0.56240000  1
  N  N95  1  0.33130000  0.07320000  0.54890000  1
  N  N96  1  0.66870000  0.92680000  0.45110000  1
  N  N97  1  0.67180000  0.39870000  0.43760000  1
  N  N98  1  0.82820000  0.89870000  0.06240000  1
  N  N99  1  0.83130000  0.42680000  0.04890000  1
  O  O100  1  0.03040000  0.78500000  0.55570000  1
  O  O101  1  0.07940000  0.89130000  0.45850000  1
  O  O102  1  0.11900000  0.29940000  0.81260000  1
  O  O103  1  0.18940000  0.04150000  0.06210000  1
  O  O104  1  0.20710000  0.96370000  0.67640000  1
  O  O105  1  0.29290000  0.46370000  0.82360000  1
  O  O106  1  0.31060000  0.54150000  0.43790000  1
  O  O107  1  0.38100000  0.79940000  0.68740000  1
  O  O108  1  0.42060000  0.39130000  0.04150000  1
  O  O109  1  0.46960000  0.28500000  0.94430000  1
  O  O110  1  0.53040000  0.71500000  0.05570000  1
  O  O111  1  0.57940000  0.60870000  0.95850000  1
  O  O112  1  0.61900000  0.20060000  0.31260000  1
  O  O113  1  0.68940000  0.45850000  0.56210000  1
  O  O114  1  0.70710000  0.53630000  0.17640000  1
  O  O115  1  0.79290000  0.03630000  0.32360000  1
  O  O116  1  0.81060000  0.95850000  0.93790000  1
  O  O117  1  0.88100000  0.70060000  0.18740000  1
  O  O118  1  0.92060000  0.10870000  0.54150000  1
  O  O119  1  0.96960000  0.21500000  0.44430000  1
