# generated using pymatgen
data_CeU2C12O13
_symmetry_space_group_name_H-M   'P 1'
_cell_length_a   8.31880000
_cell_length_b   15.85230000
_cell_length_c   21.58840000
_cell_angle_alpha   90.00000000
_cell_angle_beta   90.00000000
_cell_angle_gamma   90.00000000
_symmetry_Int_Tables_number   1
_chemical_formula_structural   CeU2C12O13
_chemical_formula_sum   'Ce4 U8 C48 O52'
_cell_volume   2846.90792947
_cell_formula_units_Z   4
loop_
 _symmetry_equiv_pos_site_id
 _symmetry_equiv_pos_as_xyz
  1  'x, y, z'
loop_
 _atom_site_type_symbol
 _atom_site_label
 _atom_site_symmetry_multiplicity
 _atom_site_fract_x
 _atom_site_fract_y
 _atom_site_fract_z
 _atom_site_occupancy
  Ce  Ce0  1  0.14518000  0.15677000  0.72753000  1
  Ce  Ce1  1  0.35482000  0.65677000  0.72753000  1
  Ce  Ce2  1  0.64518000  0.34323000  0.22753000  1
  Ce  Ce3  1  0.85482000  0.84323000  0.22753000  1
  U  U4  1  0.01533000  0.63409000  0.47183000  1
  U  U5  1  0.02225000  0.35603000  0.47620000  1
  U  U6  1  0.47775000  0.85603000  0.47620000  1
  U  U7  1  0.48467000  0.13409000  0.47183000  1
  U  U8  1  0.51533000  0.86591000  0.97183000  1
  U  U9  1  0.52225000  0.14397000  0.97620000  1
  U  U10  1  0.97775000  0.64397000  0.97620000  1
  U  U11  1  0.98467000  0.36591000  0.97183000  1
  C  C12  1  0.01020000  0.82150000  0.98170000  1
  C  C13  1  0.01460000  0.91640000  0.97900000  1
  C  C14  1  0.01790000  0.18740000  0.97820000  1
  C  C15  1  0.02000000  0.09230000  0.98170000  1
  C  C16  1  0.07050000  0.95040000  0.52450000  1
  C  C17  1  0.07660000  0.03930000  0.52440000  1
  C  C18  1  0.10100000  0.95970000  0.93520000  1
  C  C19  1  0.10680000  0.04690000  0.93580000  1
  C  C20  1  0.16520000  0.90470000  0.57530000  1
  C  C21  1  0.17560000  0.08430000  0.57260000  1
  C  C22  1  0.18900000  0.91300000  0.88390000  1
  C  C23  1  0.19960000  0.09100000  0.88480000  1
  C  C24  1  0.30040000  0.59100000  0.88480000  1
  C  C25  1  0.31100000  0.41300000  0.88390000  1
  C  C26  1  0.32440000  0.58430000  0.57260000  1
  C  C27  1  0.33480000  0.40470000  0.57530000  1
  C  C28  1  0.39320000  0.54690000  0.93580000  1
  C  C29  1  0.39900000  0.45970000  0.93520000  1
  C  C30  1  0.42340000  0.53930000  0.52440000  1
  C  C31  1  0.42950000  0.45040000  0.52450000  1
  C  C32  1  0.48000000  0.59230000  0.98170000  1
  C  C33  1  0.48210000  0.68740000  0.97820000  1
  C  C34  1  0.48540000  0.41640000  0.97900000  1
  C  C35  1  0.48980000  0.32150000  0.98170000  1
  C  C36  1  0.51020000  0.67850000  0.48170000  1
  C  C37  1  0.51460000  0.58360000  0.47900000  1
  C  C38  1  0.51790000  0.31260000  0.47820000  1
  C  C39  1  0.52000000  0.40770000  0.48170000  1
  C  C40  1  0.57050000  0.54960000  0.02450000  1
  C  C41  1  0.57660000  0.46070000  0.02440000  1
  C  C42  1  0.60100000  0.54030000  0.43520000  1
  C  C43  1  0.60680000  0.45310000  0.43580000  1
  C  C44  1  0.66520000  0.59530000  0.07530000  1
  C  C45  1  0.67560000  0.41570000  0.07260000  1
  C  C46  1  0.68900000  0.58700000  0.38390000  1
  C  C47  1  0.69960000  0.40900000  0.38480000  1
  C  C48  1  0.80040000  0.90900000  0.38480000  1
  C  C49  1  0.81100000  0.08700000  0.38390000  1
  C  C50  1  0.82440000  0.91570000  0.07260000  1
  C  C51  1  0.83480000  0.09530000  0.07530000  1
  C  C52  1  0.89320000  0.95310000  0.43580000  1
  C  C53  1  0.89900000  0.04030000  0.43520000  1
  C  C54  1  0.92340000  0.96070000  0.02440000  1
  C  C55  1  0.92950000  0.04960000  0.02450000  1
  C  C56  1  0.98000000  0.90770000  0.48170000  1
  C  C57  1  0.98210000  0.81260000  0.47820000  1
  C  C58  1  0.98540000  0.08360000  0.47900000  1
  C  C59  1  0.98980000  0.17850000  0.48170000  1
  O  O60  1  0.04500000  0.77270000  0.52290000  1
  O  O61  1  0.05920000  0.21650000  0.52410000  1
  O  O62  1  0.07700000  0.22530000  0.93350000  1
  O  O63  1  0.07770000  0.49510000  0.45270000  1
  O  O64  1  0.08060000  0.78140000  0.93860000  1
  O  O65  1  0.10140000  0.89180000  0.62480000  1
  O  O66  1  0.11160000  0.90090000  0.83420000  1
  O  O67  1  0.11780000  0.09200000  0.62540000  1
  O  O68  1  0.13220000  0.09310000  0.83330000  1
  O  O69  1  0.15770000  0.61700000  0.89390000  1
  O  O70  1  0.16600000  0.39450000  0.89050000  1
  O  O71  1  0.18310000  0.60800000  0.55810000  1
  O  O72  1  0.19070000  0.38400000  0.56250000  1
  O  O73  1  0.30930000  0.88400000  0.56250000  1
  O  O74  1  0.31690000  0.10800000  0.55810000  1
  O  O75  1  0.33400000  0.89450000  0.89050000  1
  O  O76  1  0.34230000  0.11700000  0.89390000  1
  O  O77  1  0.36780000  0.59310000  0.83330000  1
  O  O78  1  0.38220000  0.59200000  0.62540000  1
  O  O79  1  0.38840000  0.40090000  0.83420000  1
  O  O80  1  0.39860000  0.39180000  0.62480000  1
  O  O81  1  0.41940000  0.28140000  0.93860000  1
  O  O82  1  0.42230000  0.99510000  0.45270000  1
  O  O83  1  0.42300000  0.72530000  0.93350000  1
  O  O84  1  0.44080000  0.71650000  0.52410000  1
  O  O85  1  0.45500000  0.27270000  0.52290000  1
  O  O86  1  0.54500000  0.72730000  0.02290000  1
  O  O87  1  0.55920000  0.28350000  0.02410000  1
  O  O88  1  0.57700000  0.27470000  0.43350000  1
  O  O89  1  0.57770000  0.00490000  0.95270000  1
  O  O90  1  0.58060000  0.71860000  0.43860000  1
  O  O91  1  0.60140000  0.60820000  0.12480000  1
  O  O92  1  0.61160000  0.59910000  0.33420000  1
  O  O93  1  0.61780000  0.40800000  0.12540000  1
  O  O94  1  0.63220000  0.40690000  0.33333333  1
  O  O95  1  0.65770000  0.88300000  0.39390000  1
  O  O96  1  0.66600000  0.10550000  0.39050000  1
  O  O97  1  0.68310000  0.89200000  0.05810000  1
  O  O98  1  0.69070000  0.11600000  0.06250000  1
  O  O99  1  0.80930000  0.61600000  0.06250000  1
  O  O100  1  0.81690000  0.39200000  0.05810000  1
  O  O101  1  0.83400000  0.60550000  0.39050000  1
  O  O102  1  0.84230000  0.38300000  0.39390000  1
  O  O103  1  0.86780000  0.90690000  0.33333333  1
  O  O104  1  0.88220000  0.90800000  0.12540000  1
  O  O105  1  0.88840000  0.09910000  0.33420000  1
  O  O106  1  0.89860000  0.10820000  0.12480000  1
  O  O107  1  0.91940000  0.21860000  0.43860000  1
  O  O108  1  0.92230000  0.50490000  0.95270000  1
  O  O109  1  0.92300000  0.77470000  0.43350000  1
  O  O110  1  0.94080000  0.78350000  0.02410000  1
  O  O111  1  0.95500000  0.22730000  0.02290000  1
