# generated using pymatgen
data_MnH15C19S(NO2)3
_symmetry_space_group_name_H-M   'P 1'
_cell_length_a   8.70800000
_cell_length_b   11.66300000
_cell_length_c   27.21800000
_cell_angle_alpha   101.48500000
_cell_angle_beta   90.00000000
_cell_angle_gamma   90.00000000
_symmetry_Int_Tables_number   1
_chemical_formula_structural   MnH15C19S(NO2)3
_chemical_formula_sum   'Mn4 H60 C76 S4 N12 O24'
_cell_volume   2708.94837737
_cell_formula_units_Z   4
loop_
 _symmetry_equiv_pos_site_id
 _symmetry_equiv_pos_as_xyz
  1  'x, y, z'
loop_
 _atom_site_type_symbol
 _atom_site_label
 _atom_site_symmetry_multiplicity
 _atom_site_fract_x
 _atom_site_fract_y
 _atom_site_fract_z
 _atom_site_occupancy
  Mn  Mn0  1  0.13387000  0.24615000  0.30333000  1
  Mn  Mn1  1  0.36613000  0.74615000  0.80333000  1
  Mn  Mn2  1  0.63387000  0.25385000  0.19667000  1
  Mn  Mn3  1  0.86613000  0.75385000  0.69667000  1
  H  H4  1  0.02060000  0.40870000  0.60580000  1
  H  H5  1  0.03660000  0.55950000  0.74550000  1
  H  H6  1  0.03790000  0.00360000  0.23860000  1
  H  H7  1  0.03990000  0.80630000  0.23350000  1
  H  H8  1  0.04170000  0.36540000  0.74700000  1
  H  H9  1  0.04850000  0.11160000  0.11250000  1
  H  H10  1  0.06650000  0.69020000  0.54140000  1
  H  H11  1  0.13660000  0.88740000  0.00630000  1
  H  H12  1  0.14400000  0.62610000  0.62730000  1
  H  H13  1  0.15410000  0.64950000  0.45990000  1
  H  H14  1  0.18850000  0.17900000  0.84840000  1
  H  H15  1  0.19110000  0.98120000  0.84520000  1
  H  H16  1  0.21660000  0.05820000  0.37060000  1
  H  H17  1  0.22750000  0.86310000  0.36980000  1
  H  H18  1  0.24900000  0.73180000  0.62230000  1
  H  H19  1  0.25100000  0.23180000  0.12230000  1
  H  H20  1  0.27250000  0.36310000  0.86980000  1
  H  H21  1  0.28340000  0.55820000  0.87060000  1
  H  H22  1  0.30890000  0.48120000  0.34520000  1
  H  H23  1  0.31150000  0.67900000  0.34840000  1
  H  H24  1  0.34590000  0.14950000  0.95990000  1
  H  H25  1  0.35600000  0.12610000  0.12730000  1
  H  H26  1  0.36340000  0.38740000  0.50630000  1
  H  H27  1  0.43350000  0.19020000  0.04140000  1
  H  H28  1  0.45150000  0.61160000  0.61250000  1
  H  H29  1  0.45830000  0.86540000  0.24700000  1
  H  H30  1  0.46010000  0.30630000  0.73350000  1
  H  H31  1  0.46210000  0.50360000  0.73860000  1
  H  H32  1  0.46340000  0.05950000  0.24550000  1
  H  H33  1  0.47940000  0.90870000  0.10580000  1
  H  H34  1  0.52060000  0.09130000  0.89420000  1
  H  H35  1  0.53660000  0.94050000  0.75450000  1
  H  H36  1  0.53790000  0.49640000  0.26140000  1
  H  H37  1  0.53990000  0.69370000  0.26650000  1
  H  H38  1  0.54170000  0.13460000  0.75300000  1
  H  H39  1  0.54850000  0.38840000  0.38750000  1
  H  H40  1  0.56650000  0.80980000  0.95860000  1
  H  H41  1  0.63660000  0.61260000  0.49370000  1
  H  H42  1  0.64400000  0.87390000  0.87270000  1
  H  H43  1  0.65410000  0.85050000  0.04010000  1
  H  H44  1  0.68850000  0.32100000  0.65160000  1
  H  H45  1  0.69110000  0.51880000  0.65480000  1
  H  H46  1  0.71660000  0.44180000  0.12940000  1
  H  H47  1  0.72750000  0.63690000  0.13020000  1
  H  H48  1  0.74900000  0.76820000  0.87770000  1
  H  H49  1  0.75100000  0.26820000  0.37770000  1
  H  H50  1  0.77250000  0.13690000  0.63020000  1
  H  H51  1  0.78340000  0.94180000  0.62940000  1
  H  H52  1  0.80890000  0.01880000  0.15480000  1
  H  H53  1  0.81150000  0.82100000  0.15160000  1
  H  H54  1  0.84590000  0.35050000  0.54010000  1
  H  H55  1  0.85600000  0.37390000  0.37270000  1
  H  H56  1  0.86340000  0.11260000  0.99370000  1
  H  H57  1  0.93350000  0.30980000  0.45860000  1
  H  H58  1  0.95150000  0.88840000  0.88750000  1
  H  H59  1  0.95830000  0.63460000  0.25300000  1
  H  H60  1  0.96010000  0.19370000  0.76650000  1
  H  H61  1  0.96210000  0.99640000  0.76140000  1
  H  H62  1  0.96340000  0.44050000  0.25450000  1
  H  H63  1  0.97940000  0.59130000  0.39420000  1
  C  C64  1  0.00260000  0.33340000  0.48470000  1
  C  C65  1  0.03100000  0.60590000  0.27240000  1
  C  C66  1  0.03530000  0.48930000  0.27350000  1
  C  C67  1  0.05010000  0.64250000  0.46670000  1
  C  C68  1  0.05440000  0.39270000  0.57280000  1
  C  C69  1  0.07520000  0.97500000  0.26580000  1
  C  C70  1  0.07620000  0.85550000  0.26230000  1
  C  C71  1  0.13190000  0.80880000  0.30210000  1
  C  C72  1  0.13540000  0.68090000  0.30050000  1
  C  C73  1  0.15730000  0.34380000  0.47390000  1
  C  C74  1  0.17950000  0.00660000  0.34260000  1
  C  C75  1  0.18610000  0.88890000  0.34240000  1
  C  C76  1  0.20690000  0.40330000  0.56190000  1
  C  C77  1  0.21450000  0.31410000  0.42050000  1
  C  C78  1  0.23250000  0.70890000  0.69468000  1
  C  C79  1  0.23630000  0.51290000  0.32660000  1
  C  C80  1  0.23970000  0.63210000  0.32850000  1
  C  C81  1  0.24040000  0.87950000  0.01290000  1
  C  C82  1  0.24050000  0.66450000  0.63810000  1
  C  C83  1  0.25950000  0.16450000  0.13810000  1
  C  C84  1  0.25960000  0.37950000  0.51290000  1
  C  C85  1  0.26030000  0.13210000  0.82850000  1
  C  C86  1  0.26370000  0.01290000  0.82660000  1
  C  C87  1  0.26750000  0.20890000  0.19468000  1
  C  C88  1  0.28550000  0.81410000  0.92050000  1
  C  C89  1  0.29310000  0.90330000  0.06190000  1
  C  C90  1  0.31390000  0.38890000  0.84240000  1
  C  C91  1  0.32050000  0.50660000  0.84260000  1
  C  C92  1  0.34270000  0.84380000  0.97390000  1
  C  C93  1  0.36460000  0.18090000  0.80050000  1
  C  C94  1  0.36810000  0.30880000  0.80210000  1
  C  C95  1  0.42380000  0.35550000  0.76230000  1
  C  C96  1  0.42480000  0.47500000  0.76580000  1
  C  C97  1  0.44560000  0.89270000  0.07280000  1
  C  C98  1  0.44990000  0.14250000  0.96670000  1
  C  C99  1  0.46470000  0.98930000  0.77350000  1
  C  C100  1  0.46900000  0.10590000  0.77240000  1
  C  C101  1  0.49740000  0.83340000  0.98470000  1
  C  C102  1  0.50260000  0.16660000  0.01530000  1
  C  C103  1  0.53100000  0.89410000  0.22760000  1
  C  C104  1  0.53530000  0.01070000  0.22650000  1
  C  C105  1  0.55010000  0.85750000  0.03330000  1
  C  C106  1  0.55440000  0.10730000  0.92720000  1
  C  C107  1  0.57520000  0.52500000  0.23420000  1
  C  C108  1  0.57620000  0.64450000  0.23770000  1
  C  C109  1  0.63190000  0.69120000  0.19790000  1
  C  C110  1  0.63540000  0.81910000  0.19950000  1
  C  C111  1  0.65730000  0.15620000  0.02610000  1
  C  C112  1  0.67950000  0.49340000  0.15740000  1
  C  C113  1  0.68610000  0.61110000  0.15760000  1
  C  C114  1  0.70690000  0.09670000  0.93810000  1
  C  C115  1  0.71450000  0.18590000  0.07950000  1
  C  C116  1  0.73250000  0.79110000  0.80532000  1
  C  C117  1  0.73630000  0.98710000  0.17340000  1
  C  C118  1  0.73970000  0.86790000  0.17150000  1
  C  C119  1  0.74040000  0.62050000  0.48710000  1
  C  C120  1  0.74050000  0.83550000  0.86190000  1
  C  C121  1  0.75950000  0.33550000  0.36190000  1
  C  C122  1  0.75960000  0.12050000  0.98710000  1
  C  C123  1  0.76030000  0.36790000  0.67150000  1
  C  C124  1  0.76370000  0.48710000  0.67340000  1
  C  C125  1  0.76750000  0.29110000  0.30532000  1
  C  C126  1  0.78550000  0.68590000  0.57950000  1
  C  C127  1  0.79310000  0.59670000  0.43810000  1
  C  C128  1  0.81390000  0.11110000  0.65760000  1
  C  C129  1  0.82050000  0.99340000  0.65740000  1
  C  C130  1  0.84270000  0.65620000  0.52610000  1
  C  C131  1  0.86460000  0.31910000  0.69950000  1
  C  C132  1  0.86810000  0.19120000  0.69790000  1
  C  C133  1  0.92380000  0.14450000  0.73770000  1
  C  C134  1  0.92480000  0.02500000  0.73420000  1
  C  C135  1  0.94560000  0.60730000  0.42720000  1
  C  C136  1  0.94990000  0.35750000  0.53330000  1
  C  C137  1  0.96470000  0.51070000  0.72650000  1
  C  C138  1  0.96900000  0.39410000  0.72760000  1
  C  C139  1  0.99740000  0.66666667  0.51530000  1
  S  S140  1  0.16010000  0.94564000  0.11159000  1
  S  S141  1  0.33990000  0.44564000  0.61159000  1
  S  S142  1  0.66010000  0.55436000  0.38841000  1
  S  S143  1  0.83990000  0.05436000  0.88841000  1
  N  N144  1  0.12310000  0.05130000  0.30497000  1
  N  N145  1  0.13590000  0.08440000  0.11946000  1
  N  N146  1  0.13620000  0.44140000  0.30006000  1
  N  N147  1  0.36380000  0.94140000  0.80006000  1
  N  N148  1  0.36410000  0.58440000  0.61946000  1
  N  N149  1  0.37690000  0.55130000  0.80497000  1
  N  N150  1  0.62310000  0.44870000  0.19503000  1
  N  N151  1  0.63590000  0.41560000  0.38054000  1
  N  N152  1  0.63620000  0.05860000  0.19994000  1
  N  N153  1  0.86380000  0.55860000  0.69994000  1
  N  N154  1  0.86410000  0.91560000  0.88054000  1
  N  N155  1  0.87690000  0.94870000  0.69503000  1
  O  O156  1  0.01550000  0.89370000  0.09498000  1
  O  O157  1  0.10910000  0.75640000  0.71093000  1
  O  O158  1  0.11850000  0.29190000  0.38597000  1
  O  O159  1  0.14170000  0.80820000  0.91484000  1
  O  O160  1  0.15310000  0.19890000  0.22120000  1
  O  O161  1  0.23100000  0.92230000  0.15590000  1
  O  O162  1  0.26900000  0.42230000  0.65590000  1
  O  O163  1  0.34690000  0.69890000  0.72120000  1
  O  O164  1  0.35830000  0.30820000  0.41484000  1
  O  O165  1  0.38150000  0.79190000  0.88597000  1
  O  O166  1  0.39090000  0.25640000  0.21093000  1
  O  O167  1  0.48450000  0.39370000  0.59498000  1
  O  O168  1  0.51550000  0.60630000  0.40502000  1
  O  O169  1  0.60910000  0.74360000  0.78907000  1
  O  O170  1  0.61850000  0.20810000  0.11403000  1
  O  O171  1  0.64170000  0.69180000  0.58516000  1
  O  O172  1  0.65310000  0.30110000  0.27880000  1
  O  O173  1  0.73100000  0.57770000  0.34410000  1
  O  O174  1  0.76900000  0.07770000  0.84410000  1
  O  O175  1  0.84690000  0.80110000  0.77880000  1
  O  O176  1  0.85830000  0.19180000  0.08516000  1
  O  O177  1  0.88150000  0.70810000  0.61403000  1
  O  O178  1  0.89090000  0.24360000  0.28907000  1
  O  O179  1  0.98450000  0.10630000  0.90502000  1
