# generated using pymatgen
data_ZnH15C11N2ClO2
_symmetry_space_group_name_H-M   'P 1'
_cell_length_a   10.58500000
_cell_length_b   17.70300000
_cell_length_c   17.70300000
_cell_angle_alpha   120.00000000
_cell_angle_beta   90.00000000
_cell_angle_gamma   90.00000000
_symmetry_Int_Tables_number   1
_chemical_formula_structural   ZnH15C11N2ClO2
_chemical_formula_sum   'Zn6 H90 C66 N12 Cl6 O12'
_cell_volume   2872.86509533
_cell_formula_units_Z   6
loop_
 _symmetry_equiv_pos_site_id
 _symmetry_equiv_pos_as_xyz
  1  'x, y, z'
loop_
 _atom_site_type_symbol
 _atom_site_label
 _atom_site_symmetry_multiplicity
 _atom_site_fract_x
 _atom_site_fract_y
 _atom_site_fract_z
 _atom_site_occupancy
  Zn  Zn0  1  0.01946000  0.07109000  0.53095000  1
  Zn  Zn1  1  0.18613000  0.53095000  0.45986000  1
  Zn  Zn2  1  0.35279000  0.45986000  0.92891000  1
  Zn  Zn3  1  0.51946000  0.92891000  0.46905000  1
  Zn  Zn4  1  0.68613000  0.46905000  0.54014000  1
  Zn  Zn5  1  0.85279000  0.54014000  0.07109000  1
  H  H6  1  0.01930000  0.85250000  0.59810000  1
  H  H7  1  0.01960000  0.72120000  0.37080000  1
  H  H8  1  0.05100000  0.67730000  0.10480000  1
  H  H9  1  0.05490000  0.95410000  0.33590000  1
  H  H10  1  0.06903000  0.53400000  0.30800000  1
  H  H11  1  0.07427000  0.42510000  0.64300000  1
  H  H12  1  0.07747000  0.35710000  0.38330000  1
  H  H13  1  0.09437000  0.44970000  0.53100000  1
  H  H14  1  0.10250000  0.81820000  0.20470000  1
  H  H15  1  0.10843000  0.49350000  0.16540000  1
  H  H16  1  0.11100000  0.92620000  0.60730000  1
  H  H17  1  0.12940000  0.84540000  0.37520000  1
  H  H18  1  0.13747000  0.57770000  0.65370000  1
  H  H19  1  0.14307000  0.45730000  0.73240000  1
  H  H20  1  0.16130000  0.80520000  0.48110000  1
  H  H21  1  0.18597000  0.59810000  0.74560000  1
  H  H22  1  0.18627000  0.37080000  0.64960000  1
  H  H23  1  0.21767000  0.10480000  0.42750000  1
  H  H24  1  0.22157000  0.33590000  0.38180000  1
  H  H25  1  0.23570000  0.30800000  0.77400000  1
  H  H26  1  0.24093000  0.64300000  0.21790000  1
  H  H27  1  0.24413000  0.38330000  0.02620000  1
  H  H28  1  0.26103000  0.53100000  0.08130000  1
  H  H29  1  0.26917000  0.20470000  0.38650000  1
  H  H30  1  0.27510000  0.16540000  0.67190000  1
  H  H31  1  0.27767000  0.60730000  0.68110000  1
  H  H32  1  0.29607000  0.37520000  0.52980000  1
  H  H33  1  0.30413000  0.65370000  0.07600000  1
  H  H34  1  0.30973000  0.73240000  0.27510000  1
  H  H35  1  0.32797000  0.48110000  0.67590000  1
  H  H36  1  0.35263000  0.74560000  0.14750000  1
  H  H37  1  0.35293000  0.64960000  0.27880000  1
  H  H38  1  0.38433000  0.42750000  0.32270000  1
  H  H39  1  0.38823000  0.38180000  0.04590000  1
  H  H40  1  0.40237000  0.77400000  0.46600000  1
  H  H41  1  0.40760000  0.21790000  0.57490000  1
  H  H42  1  0.41080000  0.02620000  0.64290000  1
  H  H43  1  0.42770000  0.08130000  0.55030000  1
  H  H44  1  0.43583000  0.38650000  0.18180000  1
  H  H45  1  0.44177000  0.67190000  0.50650000  1
  H  H46  1  0.44433000  0.68110000  0.07380000  1
  H  H47  1  0.46273000  0.52980000  0.15460000  1
  H  H48  1  0.47080000  0.07600000  0.42230000  1
  H  H49  1  0.47640000  0.27510000  0.54270000  1
  H  H50  1  0.49463000  0.67590000  0.19480000  1
  H  H51  1  0.51930000  0.14750000  0.40190000  1
  H  H52  1  0.51960000  0.27880000  0.62920000  1
  H  H53  1  0.55100000  0.32270000  0.89520000  1
  H  H54  1  0.55490000  0.04590000  0.66410000  1
  H  H55  1  0.56903000  0.46600000  0.69200000  1
  H  H56  1  0.57427000  0.57490000  0.35700000  1
  H  H57  1  0.57747000  0.64290000  0.61670000  1
  H  H58  1  0.59437000  0.55030000  0.46900000  1
  H  H59  1  0.60250000  0.18180000  0.79530000  1
  H  H60  1  0.60843000  0.50650000  0.83460000  1
  H  H61  1  0.61100000  0.07380000  0.39270000  1
  H  H62  1  0.62940000  0.15460000  0.62480000  1
  H  H63  1  0.63747000  0.42230000  0.34630000  1
  H  H64  1  0.64307000  0.54270000  0.26760000  1
  H  H65  1  0.66130000  0.19480000  0.51890000  1
  H  H66  1  0.68597000  0.40190000  0.25440000  1
  H  H67  1  0.68627000  0.62920000  0.35040000  1
  H  H68  1  0.71767000  0.89520000  0.57250000  1
  H  H69  1  0.72157000  0.66410000  0.61820000  1
  H  H70  1  0.73570000  0.69200000  0.22600000  1
  H  H71  1  0.74093000  0.35700000  0.78210000  1
  H  H72  1  0.74413000  0.61670000  0.97380000  1
  H  H73  1  0.76103000  0.46900000  0.91870000  1
  H  H74  1  0.76917000  0.79530000  0.61350000  1
  H  H75  1  0.77510000  0.83460000  0.32810000  1
  H  H76  1  0.77767000  0.39270000  0.31890000  1
  H  H77  1  0.79607000  0.62480000  0.47020000  1
  H  H78  1  0.80413000  0.34630000  0.92400000  1
  H  H79  1  0.80973000  0.26760000  0.72490000  1
  H  H80  1  0.82797000  0.51890000  0.32410000  1
  H  H81  1  0.85263000  0.25440000  0.85250000  1
  H  H82  1  0.85293000  0.35040000  0.72120000  1
  H  H83  1  0.88433000  0.57250000  0.67730000  1
  H  H84  1  0.88823000  0.61820000  0.95410000  1
  H  H85  1  0.90237000  0.22600000  0.53400000  1
  H  H86  1  0.90760000  0.78210000  0.42510000  1
  H  H87  1  0.91080000  0.97380000  0.35710000  1
  H  H88  1  0.92770000  0.91870000  0.44970000  1
  H  H89  1  0.93583000  0.61350000  0.81820000  1
  H  H90  1  0.94177000  0.32810000  0.49350000  1
  H  H91  1  0.94433000  0.31890000  0.92620000  1
  H  H92  1  0.96273000  0.47020000  0.84540000  1
  H  H93  1  0.97080000  0.92400000  0.57770000  1
  H  H94  1  0.97640000  0.72490000  0.45730000  1
  H  H95  1  0.99463000  0.32410000  0.80520000  1
  C  C96  1  0.02740000  0.79440000  0.21060000  1
  C  C97  1  0.04200000  0.88890000  0.57440000  1
  C  C98  1  0.05813000  0.46810000  0.94620000  1
  C  C99  1  0.08130000  0.83280000  0.48050000  1
  C  C100  1  0.10850000  0.88640000  0.43630000  1
  C  C101  1  0.11347000  0.27920000  0.43530000  1
  C  C102  1  0.14303000  0.50380000  0.28200000  1
  C  C103  1  0.14537000  0.35150000  0.41700000  1
  C  C104  1  0.15407000  0.42850000  0.67030000  1
  C  C105  1  0.16217000  0.15070000  0.44160000  1
  C  C106  1  0.16643000  0.48020000  0.19650000  1
  C  C107  1  0.19407000  0.21060000  0.41620000  1
  C  C108  1  0.20867000  0.57440000  0.68550000  1
  C  C109  1  0.22480000  0.94620000  0.47810000  1
  C  C110  1  0.24797000  0.48050000  0.64770000  1
  C  C111  1  0.27517000  0.43630000  0.54990000  1
  C  C112  1  0.28013000  0.43530000  0.15610000  1
  C  C113  1  0.30970000  0.28200000  0.77820000  1
  C  C114  1  0.31203000  0.41700000  0.06550000  1
  C  C115  1  0.32073000  0.67030000  0.24180000  1
  C  C116  1  0.32883000  0.44160000  0.29090000  1
  C  C117  1  0.33310000  0.19650000  0.71630000  1
  C  C118  1  0.36073000  0.41620000  0.20560000  1
  C  C119  1  0.37533000  0.68550000  0.11110000  1
  C  C120  1  0.39147000  0.47810000  0.53190000  1
  C  C121  1  0.41463000  0.64770000  0.16720000  1
  C  C122  1  0.44183000  0.54990000  0.11360000  1
  C  C123  1  0.44680000  0.15610000  0.72080000  1
  C  C124  1  0.47637000  0.77820000  0.49620000  1
  C  C125  1  0.47870000  0.06550000  0.64850000  1
  C  C126  1  0.48740000  0.24180000  0.57150000  1
  C  C127  1  0.49550000  0.29090000  0.84930000  1
  C  C128  1  0.49977000  0.71630000  0.51980000  1
  C  C129  1  0.52740000  0.20560000  0.78940000  1
  C  C130  1  0.54200000  0.11110000  0.42560000  1
  C  C131  1  0.55813000  0.53190000  0.05380000  1
  C  C132  1  0.58130000  0.16720000  0.51950000  1
  C  C133  1  0.60850000  0.11360000  0.56370000  1
  C  C134  1  0.61347000  0.72080000  0.56470000  1
  C  C135  1  0.64303000  0.49620000  0.71800000  1
  C  C136  1  0.64537000  0.64850000  0.58300000  1
  C  C137  1  0.65407000  0.57150000  0.32970000  1
  C  C138  1  0.66217000  0.84930000  0.55840000  1
  C  C139  1  0.66643000  0.51980000  0.80350000  1
  C  C140  1  0.69407000  0.78940000  0.58380000  1
  C  C141  1  0.70867000  0.42560000  0.31450000  1
  C  C142  1  0.72480000  0.05380000  0.52190000  1
  C  C143  1  0.74797000  0.51950000  0.35230000  1
  C  C144  1  0.77517000  0.56370000  0.45010000  1
  C  C145  1  0.78013000  0.56470000  0.84390000  1
  C  C146  1  0.80970000  0.71800000  0.22180000  1
  C  C147  1  0.81203000  0.58300000  0.93450000  1
  C  C148  1  0.82073000  0.32970000  0.75820000  1
  C  C149  1  0.82883000  0.55840000  0.70910000  1
  C  C150  1  0.83310000  0.80350000  0.28370000  1
  C  C151  1  0.86073000  0.58380000  0.79440000  1
  C  C152  1  0.87533000  0.31450000  0.88890000  1
  C  C153  1  0.89147000  0.52190000  0.46810000  1
  C  C154  1  0.91463000  0.35230000  0.83280000  1
  C  C155  1  0.94183000  0.45010000  0.88640000  1
  C  C156  1  0.94680000  0.84390000  0.27920000  1
  C  C157  1  0.97637000  0.22180000  0.50380000  1
  C  C158  1  0.97870000  0.93450000  0.35150000  1
  C  C159  1  0.98740000  0.75820000  0.42850000  1
  C  C160  1  0.99550000  0.70910000  0.15070000  1
  C  C161  1  0.99977000  0.28370000  0.48020000  1
  N  N162  1  0.05767000  0.15450000  0.48480000  1
  N  N163  1  0.16507000  0.43680000  0.49740000  1
  N  N164  1  0.22433000  0.48480000  0.33030000  1
  N  N165  1  0.33173000  0.49740000  0.06060000  1
  N  N166  1  0.39100000  0.33030000  0.84550000  1
  N  N167  1  0.49840000  0.06060000  0.56320000  1
  N  N168  1  0.55767000  0.84550000  0.51520000  1
  N  N169  1  0.66507000  0.56320000  0.50260000  1
  N  N170  1  0.72433000  0.51520000  0.66970000  1
  N  N171  1  0.83173000  0.50260000  0.93940000  1
  N  N172  1  0.89100000  0.66970000  0.15450000  1
  N  N173  1  0.99840000  0.93940000  0.43680000  1
  Cl  Cl174  1  0.02010000  0.13116000  0.67676000  1
  Cl  Cl175  1  0.18677000  0.67676000  0.54560000  1
  Cl  Cl176  1  0.35343000  0.54560000  0.86884000  1
  Cl  Cl177  1  0.52010000  0.86884000  0.32324000  1
  Cl  Cl178  1  0.68677000  0.32324000  0.45440000  1
  Cl  Cl179  1  0.85343000  0.45440000  0.13116000  1
  O  O180  1  0.04703000  0.51490000  0.02670000  1
  O  O181  1  0.15863000  0.43380000  0.90630000  1
  O  O182  1  0.21370000  0.02670000  0.51180000  1
  O  O183  1  0.32530000  0.90630000  0.47250000  1
  O  O184  1  0.38037000  0.51180000  0.48510000  1
  O  O185  1  0.49197000  0.47250000  0.56620000  1
  O  O186  1  0.54703000  0.48510000  0.97330000  1
  O  O187  1  0.65863000  0.56620000  0.09370000  1
  O  O188  1  0.71370000  0.97330000  0.48820000  1
  O  O189  1  0.82530000  0.09370000  0.52750000  1
  O  O190  1  0.88037000  0.48820000  0.51490000  1
  O  O191  1  0.99197000  0.52750000  0.43380000  1
