# generated using pymatgen
data_ZnH16C22(N3O)2
_symmetry_space_group_name_H-M   'P 1'
_cell_length_a   7.80050000
_cell_length_b   11.29470000
_cell_length_c   13.15520000
_cell_angle_alpha   82.71900000
_cell_angle_beta   80.49900000
_cell_angle_gamma   83.19400000
_symmetry_Int_Tables_number   1
_chemical_formula_structural   ZnH16C22(N3O)2
_chemical_formula_sum   'Zn2 H32 C44 N12 O4'
_cell_volume   1128.25808789
_cell_formula_units_Z   2
loop_
 _symmetry_equiv_pos_site_id
 _symmetry_equiv_pos_as_xyz
  1  'x, y, z'
loop_
 _atom_site_type_symbol
 _atom_site_label
 _atom_site_symmetry_multiplicity
 _atom_site_fract_x
 _atom_site_fract_y
 _atom_site_fract_z
 _atom_site_occupancy
  Zn  Zn0  1  0.28362000  0.23530000  0.26422000  1
  Zn  Zn1  1  0.71638000  0.76470000  0.73578000  1
  H  H2  1  0.01340000  0.91920000  0.34550000  1
  H  H3  1  0.04390000  0.68360000  0.90570000  1
  H  H4  1  0.06060000  0.63890000  0.41240000  1
  H  H5  1  0.10190000  0.62680000  0.70370000  1
  H  H6  1  0.12370000  0.90570000  0.85540000  1
  H  H7  1  0.21100000  0.27760000  0.50220000  1
  H  H8  1  0.23130000  0.35280000  0.01080000  1
  H  H9  1  0.24780000  0.88540000  0.43350000  1
  H  H10  1  0.28220000  0.52080000  0.20970000  1
  H  H11  1  0.29910000  0.98680000  0.94790000  1
  H  H12  1  0.34400000  0.46520000  0.66390000  1
  H  H13  1  0.34800000  0.73060000  0.87140000  1
  H  H14  1  0.37230000  0.62140000  0.37230000  1
  H  H15  1  0.42560000  0.79330000  0.57970000  1
  H  H16  1  0.47100000  0.38600000  0.87860000  1
  H  H17  1  0.47140000  0.97910000  0.24280000  1
  H  H18  1  0.52860000  0.02090000  0.75720000  1
  H  H19  1  0.52900000  0.61400000  0.12140000  1
  H  H20  1  0.57440000  0.20670000  0.42030000  1
  H  H21  1  0.62770000  0.37860000  0.62770000  1
  H  H22  1  0.65200000  0.26940000  0.12860000  1
  H  H23  1  0.65600000  0.53480000  0.33610000  1
  H  H24  1  0.70090000  0.01320000  0.05210000  1
  H  H25  1  0.71780000  0.47920000  0.79030000  1
  H  H26  1  0.75220000  0.11460000  0.56650000  1
  H  H27  1  0.76870000  0.64720000  0.98920000  1
  H  H28  1  0.78900000  0.72240000  0.49780000  1
  H  H29  1  0.87630000  0.09430000  0.14460000  1
  H  H30  1  0.89810000  0.37320000  0.29630000  1
  H  H31  1  0.93940000  0.36110000  0.58760000  1
  H  H32  1  0.95610000  0.31640000  0.09430000  1
  H  H33  1  0.98660000  0.08080000  0.65450000  1
  C  C34  1  0.00780000  0.95190000  0.40750000  1
  C  C35  1  0.02670000  0.60950000  0.94360000  1
  C  C36  1  0.05890000  0.64000000  0.64100000  1
  C  C37  1  0.07370000  0.94310000  0.91390000  1
  C  C38  1  0.10490000  0.05150000  0.05480000  1
  C  C39  1  0.11350000  0.30720000  0.47130000  1
  C  C40  1  0.13880000  0.41230000  0.00620000  1
  C  C41  1  0.14290000  0.97820000  0.55380000  1
  C  C42  1  0.14780000  0.93140000  0.46050000  1
  C  C43  1  0.14930000  0.61120000  0.54930000  1
  C  C44  1  0.16840000  0.52210000  0.94890000  1
  C  C45  1  0.17870000  0.99270000  0.96860000  1
  C  C46  1  0.21950000  0.11000000  0.11030000  1
  C  C47  1  0.29390000  0.95550000  0.60910000  1
  C  C48  1  0.32850000  0.55420000  0.52280000  1
  C  C49  1  0.34190000  0.54850000  0.89550000  1
  C  C50  1  0.38790000  0.48170000  0.18180000  1
  C  C51  1  0.40640000  0.48000000  0.59770000  1
  C  C52  1  0.40830000  0.65560000  0.86270000  1
  C  C53  1  0.41880000  0.86100000  0.61430000  1
  C  C54  1  0.42310000  0.57300000  0.42420000  1
  C  C55  1  0.47590000  0.98540000  0.71190000  1
  C  C56  1  0.52410000  0.01460000  0.28810000  1
  C  C57  1  0.57690000  0.42700000  0.57580000  1
  C  C58  1  0.58120000  0.13900000  0.38570000  1
  C  C59  1  0.59170000  0.34440000  0.13730000  1
  C  C60  1  0.59360000  0.52000000  0.40230000  1
  C  C61  1  0.61210000  0.51830000  0.81820000  1
  C  C62  1  0.65810000  0.45150000  0.10450000  1
  C  C63  1  0.67150000  0.44580000  0.47720000  1
  C  C64  1  0.70610000  0.04450000  0.39090000  1
  C  C65  1  0.78050000  0.89000000  0.88970000  1
  C  C66  1  0.82130000  0.00730000  0.03140000  1
  C  C67  1  0.83160000  0.47790000  0.05110000  1
  C  C68  1  0.85070000  0.38880000  0.45070000  1
  C  C69  1  0.85220000  0.06860000  0.53950000  1
  C  C70  1  0.85710000  0.02180000  0.44620000  1
  C  C71  1  0.86120000  0.58770000  0.99380000  1
  C  C72  1  0.88650000  0.69280000  0.52870000  1
  C  C73  1  0.89510000  0.94850000  0.94520000  1
  C  C74  1  0.92630000  0.05690000  0.08610000  1
  C  C75  1  0.94110000  0.36000000  0.35900000  1
  C  C76  1  0.97330000  0.39050000  0.05640000  1
  C  C77  1  0.99220000  0.04810000  0.59250000  1
  N  N78  1  0.03770000  0.64590000  0.47780000  1
  N  N79  1  0.10620000  0.30840000  0.37180000  1
  N  N80  1  0.33240000  0.03450000  0.67280000  1
  N  N81  1  0.42090000  0.36430000  0.18560000  1
  N  N82  1  0.46640000  0.11990000  0.32200000  1
  N  N83  1  0.47510000  0.46230000  0.86710000  1
  N  N84  1  0.52490000  0.53770000  0.13290000  1
  N  N85  1  0.53360000  0.88010000  0.67800000  1
  N  N86  1  0.57910000  0.63570000  0.81440000  1
  N  N87  1  0.66760000  0.96550000  0.32720000  1
  N  N88  1  0.89380000  0.69160000  0.62820000  1
  N  N89  1  0.96230000  0.35410000  0.52220000  1
  O  O90  1  0.14330000  0.15100000  0.19466000  1
  O  O91  1  0.37420000  0.11870000  0.07470000  1
  O  O92  1  0.62580000  0.88130000  0.92530000  1
  O  O93  1  0.85670000  0.84900000  0.80534000  1
