# generated using pymatgen
data_Eu3H26C44S4(NO4)4
_symmetry_space_group_name_H-M   'P 1'
_cell_length_a   9.14960000
_cell_length_b   23.42600000
_cell_length_c   26.84800000
_cell_angle_alpha   76.75360000
_cell_angle_beta   80.18910000
_cell_angle_gamma   78.73850000
_symmetry_Int_Tables_number   1
_chemical_formula_structural   Eu3H26C44S4(NO4)4
_chemical_formula_sum   'Eu12 H104 C176 S16 N16 O64'
_cell_volume   5445.81197946
_cell_formula_units_Z   4
loop_
 _symmetry_equiv_pos_site_id
 _symmetry_equiv_pos_as_xyz
  1  'x, y, z'
loop_
 _atom_site_type_symbol
 _atom_site_label
 _atom_site_symmetry_multiplicity
 _atom_site_fract_x
 _atom_site_fract_y
 _atom_site_fract_z
 _atom_site_occupancy
  Eu  Eu0  1  0.13580000  0.41950000  0.07562000  1
  Eu  Eu1  1  0.14691000  0.57855000  0.01851000  1
  Eu  Eu2  1  0.22638000  0.46758000  0.92716000  1
  Eu  Eu3  1  0.25603000  0.07855000  0.51851000  1
  Eu  Eu4  1  0.36908000  0.91950000  0.57562000  1
  Eu  Eu5  1  0.37888000  0.96758000  0.42716000  1
  Eu  Eu6  1  0.62112000  0.03242000  0.57284000  1
  Eu  Eu7  1  0.63092000  0.08050000  0.42438000  1
  Eu  Eu8  1  0.74397000  0.92145000  0.48149000  1
  Eu  Eu9  1  0.77362000  0.53242000  0.07284000  1
  Eu  Eu10  1  0.85309000  0.42145000  0.98149000  1
  Eu  Eu11  1  0.86420000  0.58050000  0.92438000  1
  H  H12  1  0.00330000  0.61730000  0.71470000  1
  H  H13  1  0.01370000  0.13570000  0.16230000  1
  H  H14  1  0.02450000  0.57770000  0.34770000  1
  H  H15  1  0.02850000  0.59160000  0.63420000  1
  H  H16  1  0.03660000  0.04160000  0.77720000  1
  H  H17  1  0.03670000  0.81940000  0.42620000  1
  H  H18  1  0.04740000  0.26720000  0.57660000  1
  H  H19  1  0.05010000  0.07770000  0.84770000  1
  H  H20  1  0.08010000  0.64540000  0.39800000  1
  H  H21  1  0.08350000  0.80310000  0.91730000  1
  H  H22  1  0.09060000  0.65560000  0.56180000  1
  H  H23  1  0.09550000  0.04870000  0.68770000  1
  H  H24  1  0.10880000  0.76720000  0.07660000  1
  H  H25  1  0.12350000  0.85460000  0.10200000  1
  H  H26  1  0.13260000  0.23420000  0.85760000  1
  H  H27  1  0.14460000  0.54160000  0.27720000  1
  H  H28  1  0.16550000  0.74390000  0.56610000  1
  H  H29  1  0.16810000  0.54870000  0.18770000  1
  H  H30  1  0.16840000  0.04210000  0.98890000  1
  H  H31  1  0.17140000  0.07290000  0.30410000  1
  H  H32  1  0.19610000  0.30310000  0.41730000  1
  H  H33  1  0.19940000  0.45790000  0.51110000  1
  H  H34  1  0.22000000  0.45360000  0.77180000  1
  H  H35  1  0.22440000  0.26580000  0.64240000  1
  H  H36  1  0.23670000  0.07640000  0.21440000  1
  H  H37  1  0.24540000  0.42970000  0.69090000  1
  H  H38  1  0.25430000  0.90840000  0.86580000  1
  H  H39  1  0.28150000  0.14150000  0.88430000  1
  H  H40  1  0.28230000  0.68060000  0.07380000  1
  H  H41  1  0.28490000  0.98390000  0.06490000  1
  H  H42  1  0.28570000  0.91110000  0.21410000  1
  H  H43  1  0.30730000  0.35850000  0.61570000  1
  H  H44  1  0.30800000  0.84440000  0.93820000  1
  H  H45  1  0.31170000  0.36430000  0.33770000  1
  H  H46  1  0.31180000  0.30320000  0.95360000  1
  H  H47  1  0.32980000  0.13190000  0.04050000  1
  H  H48  1  0.33370000  0.51610000  0.43510000  1
  H  H49  1  0.33530000  0.88270000  0.78530000  1
  H  H50  1  0.34710000  0.71220000  0.47740000  1
  H  H51  1  0.36080000  0.57600000  0.61860000  1
  H  H52  1  0.36600000  0.07030000  0.80910000  1
  H  H53  1  0.41090000  0.58890000  0.28590000  1
  H  H54  1  0.43140000  0.80320000  0.45360000  1
  H  H55  1  0.44460000  0.07600000  0.11860000  1
  H  H56  1  0.44540000  0.04640000  0.72820000  1
  H  H57  1  0.45160000  0.57290000  0.80410000  1
  H  H58  1  0.45810000  0.84290000  0.16330000  1
  H  H59  1  0.46330000  0.21220000  0.97740000  1
  H  H60  1  0.46430000  0.65710000  0.33670000  1
  H  H61  1  0.47250000  0.57640000  0.71440000  1
  H  H62  1  0.47550000  0.75610000  0.93390000  1
  H  H63  1  0.49780000  0.63190000  0.54050000  1
  H  H64  1  0.50220000  0.36810000  0.45950000  1
  H  H65  1  0.52450000  0.24390000  0.06610000  1
  H  H66  1  0.52750000  0.42360000  0.28560000  1
  H  H67  1  0.53570000  0.34290000  0.66330000  1
  H  H68  1  0.53670000  0.78780000  0.02260000  1
  H  H69  1  0.54190000  0.15710000  0.83670000  1
  H  H70  1  0.54840000  0.42710000  0.19590000  1
  H  H71  1  0.55460000  0.95360000  0.27180000  1
  H  H72  1  0.55540000  0.92400000  0.88140000  1
  H  H73  1  0.56860000  0.19680000  0.54640000  1
  H  H74  1  0.58910000  0.41110000  0.71410000  1
  H  H75  1  0.63400000  0.92970000  0.19090000  1
  H  H76  1  0.63920000  0.42400000  0.38140000  1
  H  H77  1  0.65290000  0.28780000  0.52260000  1
  H  H78  1  0.66470000  0.11730000  0.21470000  1
  H  H79  1  0.66630000  0.48390000  0.56490000  1
  H  H80  1  0.67020000  0.86810000  0.95950000  1
  H  H81  1  0.68820000  0.69680000  0.04640000  1
  H  H82  1  0.68830000  0.63570000  0.66230000  1
  H  H83  1  0.69200000  0.15560000  0.06180000  1
  H  H84  1  0.69270000  0.64150000  0.38430000  1
  H  H85  1  0.71430000  0.08890000  0.78590000  1
  H  H86  1  0.71510000  0.01610000  0.93510000  1
  H  H87  1  0.71770000  0.31940000  0.92620000  1
  H  H88  1  0.71850000  0.85850000  0.11570000  1
  H  H89  1  0.74570000  0.09160000  0.13420000  1
  H  H90  1  0.75460000  0.57030000  0.30910000  1
  H  H91  1  0.76330000  0.92360000  0.78560000  1
  H  H92  1  0.77560000  0.73420000  0.35760000  1
  H  H93  1  0.78000000  0.54640000  0.22820000  1
  H  H94  1  0.80060000  0.54210000  0.48890000  1
  H  H95  1  0.80390000  0.69690000  0.58270000  1
  H  H96  1  0.82860000  0.92710000  0.69590000  1
  H  H97  1  0.83160000  0.95790000  0.01110000  1
  H  H98  1  0.83190000  0.45130000  0.81230000  1
  H  H99  1  0.83450000  0.25610000  0.43390000  1
  H  H100  1  0.85540000  0.45840000  0.72280000  1
  H  H101  1  0.86740000  0.76580000  0.14240000  1
  H  H102  1  0.87650000  0.14540000  0.89800000  1
  H  H103  1  0.89120000  0.23280000  0.92340000  1
  H  H104  1  0.90450000  0.95130000  0.31230000  1
  H  H105  1  0.90940000  0.34440000  0.43820000  1
  H  H106  1  0.91650000  0.19690000  0.08270000  1
  H  H107  1  0.91990000  0.35460000  0.60200000  1
  H  H108  1  0.94990000  0.92230000  0.15230000  1
  H  H109  1  0.95260000  0.73280000  0.42340000  1
  H  H110  1  0.96330000  0.18060000  0.57380000  1
  H  H111  1  0.96340000  0.95840000  0.22280000  1
  H  H112  1  0.97150000  0.40840000  0.36580000  1
  H  H113  1  0.97550000  0.42230000  0.65230000  1
  H  H114  1  0.98630000  0.86430000  0.83770000  1
  H  H115  1  0.99670000  0.38270000  0.28530000  1
  C  C116  1  0.00013000  0.10408000  0.96046000  1
  C  C117  1  0.00152000  0.88054000  0.95122000  1
  C  C118  1  0.00204000  0.31308000  0.50504000  1
  C  C119  1  0.00748000  0.98115000  0.23949000  1
  C  C120  1  0.00785000  0.26472000  0.54678000  1
  C  C121  1  0.01510000  0.42076000  0.61744000  1
  C  C122  1  0.01589000  0.61639000  0.41023000  1
  C  C123  1  0.01981000  0.12385000  0.13033000  1
  C  C124  1  0.02861000  0.02306000  0.70752000  1
  C  C125  1  0.03389000  0.84322000  0.91280000  1
  C  C126  1  0.03588000  0.01112000  0.31532000  1
  C  C127  1  0.04251000  0.88361000  0.08977000  1
  C  C128  1  0.04306000  0.78674000  0.45454000  1
  C  C129  1  0.05330000  0.07924000  0.88256000  1
  C  C130  1  0.05523000  0.57936000  0.70978000  1
  C  C131  1  0.05677000  0.86509000  0.99937000  1
  C  C132  1  0.06467000  0.39592000  0.53954000  1
  C  C133  1  0.07125000  0.56410000  0.66180000  1
  C  C134  1  0.07235000  0.68988000  0.53522000  1
  C  C135  1  0.07877000  0.36509000  0.49937000  1
  C  C136  1  0.08851000  0.06674000  0.11824000  1
  C  C137  1  0.10373000  0.79018000  0.49776000  1
  C  C138  1  0.10678000  0.01799000  0.21045000  1
  C  C139  1  0.11515000  0.53909000  0.75021000  1
  C  C140  1  0.11648000  0.45704000  0.58540000  1
  C  C141  1  0.12071000  0.74193000  0.53725000  1
  C  C142  1  0.13103000  0.04874000  0.28760000  1
  C  C143  1  0.14929000  0.50871000  0.65371000  1
  C  C144  1  0.14941000  0.01747000  0.15411000  1
  C  C145  1  0.15892000  0.04296000  0.91460000  1
  C  C146  1  0.16672000  0.38054000  0.45122000  1
  C  C147  1  0.16833000  0.05129000  0.23405000  1
  C  C148  1  0.17984000  0.81308000  0.00504000  1
  C  C149  1  0.18065000  0.76472000  0.04678000  1
  C  C150  1  0.18384000  0.48236000  0.74356000  1
  C  C151  1  0.18400000  0.49951000  0.59929000  1
  C  C152  1  0.19896000  0.46848000  0.69520000  1
  C  C153  1  0.20006000  0.22968000  0.88200000  1
  C  C154  1  0.21009000  0.34322000  0.41280000  1
  C  C155  1  0.21214000  0.27817000  0.90335000  1
  C  C156  1  0.22812000  0.51885000  0.26051000  1
  C  C157  1  0.24081000  0.52306000  0.20752000  1
  C  C158  1  0.24417000  0.96783000  0.14223000  1
  C  C159  1  0.27349000  0.43326000  0.38176000  1
  C  C160  1  0.27399000  0.37615000  0.36967000  1
  C  C161  1  0.27872000  0.53535000  0.56621000  1
  C  C162  1  0.28280000  0.00049000  0.90071000  1
  C  C163  1  0.28434000  0.71326000  0.04546000  1
  C  C164  1  0.28974000  0.17492000  0.89760000  1
  C  C165  1  0.29715000  0.93590000  0.83820000  1
  C  C166  1  0.29745000  0.81012000  0.96478000  1
  C  C167  1  0.30653000  0.27084000  0.93850000  1
  C  C168  1  0.30688000  0.91766000  0.17758000  1
  C  C169  1  0.31171000  0.99129000  0.84629000  1
  C  C170  1  0.31174000  0.27032000  0.61800000  1
  C  C171  1  0.32099000  0.48253000  0.34589000  1
  C  C172  1  0.33522000  0.48201000  0.28955000  1
  C  C173  1  0.34437000  0.92064000  0.79022000  1
  C  C174  1  0.35423000  0.53217000  0.35777000  1
  C  C175  1  0.35981000  0.57348000  0.58390000  1
  C  C176  1  0.36226000  0.32508000  0.60240000  1
  C  C177  1  0.36232000  0.48888000  0.18468000  1
  C  C178  1  0.36264000  0.03152000  0.80480000  1
  C  C179  1  0.38028000  0.96465000  0.93379000  1
  C  C180  1  0.39167000  0.70982000  0.00224000  1
  C  C181  1  0.39365000  0.16850000  0.93340000  1
  C  C182  1  0.39366000  0.22183000  0.59665000  1
  C  C183  1  0.39512000  0.58789000  0.49687000  1
  C  C184  1  0.39675000  0.21610000  0.95280000  1
  C  C185  1  0.39989000  0.75807000  0.96275000  1
  C  C186  1  0.40212000  0.58234000  0.32242000  1
  C  C187  1  0.40332000  0.88051000  0.14945000  1
  C  C188  1  0.40445000  0.96091000  0.74979000  1
  C  C189  1  0.40787000  0.90736000  0.09650000  1
  C  C190  1  0.40976000  0.01764000  0.75644000  1
  C  C191  1  0.41173000  0.59264000  0.40350000  1
  C  C192  1  0.42120000  0.10438000  0.04122000  1
  C  C193  1  0.43320000  0.60438000  0.54122000  1
  C  C194  1  0.43328000  0.61949000  0.35055000  1
  C  C195  1  0.43435000  0.71610000  0.45280000  1
  C  C196  1  0.43902000  0.61249000  0.44587000  1
  C  C197  1  0.45367000  0.44871000  0.26595000  1
  C  C198  1  0.46737000  0.45126000  0.21240000  1
  C  C199  1  0.47988000  0.91211000  0.00313000  1
  C  C200  1  0.48281000  0.07348000  0.08390000  1
  C  C201  1  0.48413000  0.77084000  0.43850000  1
  C  C202  1  0.49555000  0.33150000  0.56660000  1
  C  C203  1  0.49738000  0.88751000  0.05413000  1
  C  C204  1  0.50262000  0.11249000  0.94587000  1
  C  C205  1  0.50445000  0.66850000  0.43340000  1
  C  C206  1  0.51587000  0.22916000  0.56150000  1
  C  C207  1  0.51719000  0.92652000  0.91610000  1
  C  C208  1  0.52012000  0.08789000  0.99687000  1
  C  C209  1  0.53263000  0.54874000  0.78760000  1
  C  C210  1  0.54633000  0.55129000  0.73405000  1
  C  C211  1  0.56098000  0.38751000  0.55413000  1
  C  C212  1  0.56565000  0.28390000  0.54720000  1
  C  C213  1  0.56672000  0.38051000  0.64945000  1
  C  C214  1  0.56680000  0.39562000  0.45878000  1
  C  C215  1  0.57880000  0.89562000  0.95878000  1
  C  C216  1  0.58827000  0.40736000  0.59650000  1
  C  C217  1  0.59024000  0.98236000  0.24356000  1
  C  C218  1  0.59213000  0.09264000  0.90350000  1
  C  C219  1  0.59555000  0.03909000  0.25021000  1
  C  C220  1  0.59668000  0.11949000  0.85055000  1
  C  C221  1  0.59788000  0.41766000  0.67758000  1
  C  C222  1  0.60011000  0.24193000  0.03725000  1
  C  C223  1  0.60325000  0.78390000  0.04720000  1
  C  C224  1  0.60488000  0.41211000  0.50313000  1
  C  C225  1  0.60634000  0.77817000  0.40335000  1
  C  C226  1  0.60635000  0.83150000  0.06660000  1
  C  C227  1  0.60833000  0.29018000  0.99776000  1
  C  C228  1  0.61972000  0.03535000  0.06621000  1
  C  C229  1  0.63736000  0.96848000  0.19520000  1
  C  C230  1  0.63768000  0.51112000  0.81532000  1
  C  C231  1  0.63774000  0.67492000  0.39760000  1
  C  C232  1  0.64019000  0.42652000  0.41610000  1
  C  C233  1  0.64577000  0.46783000  0.64223000  1
  C  C234  1  0.65563000  0.07936000  0.20978000  1
  C  C235  1  0.66478000  0.51799000  0.71045000  1
  C  C236  1  0.67901000  0.51747000  0.65411000  1
  C  C237  1  0.68826000  0.72968000  0.38200000  1
  C  C238  1  0.68829000  0.00871000  0.15371000  1
  C  C239  1  0.69312000  0.08234000  0.82242000  1
  C  C240  1  0.69347000  0.72916000  0.06150000  1
  C  C241  1  0.70255000  0.18988000  0.03522000  1
  C  C242  1  0.70285000  0.06410000  0.16180000  1
  C  C243  1  0.71026000  0.82508000  0.10240000  1
  C  C244  1  0.71566000  0.28674000  0.95454000  1
  C  C245  1  0.71720000  0.99951000  0.09929000  1
  C  C246  1  0.72128000  0.46465000  0.43379000  1
  C  C247  1  0.72601000  0.62385000  0.63033000  1
  C  C248  1  0.72651000  0.56674000  0.61824000  1
  C  C249  1  0.75583000  0.03217000  0.85777000  1
  C  C250  1  0.75919000  0.47694000  0.79248000  1
  C  C251  1  0.77188000  0.48115000  0.73949000  1
  C  C252  1  0.78786000  0.72183000  0.09665000  1
  C  C253  1  0.78991000  0.65678000  0.58720000  1
  C  C254  1  0.79994000  0.77032000  0.11800000  1
  C  C255  1  0.80104000  0.53152000  0.30480000  1
  C  C256  1  0.81600000  0.50049000  0.40071000  1
  C  C257  1  0.81616000  0.51764000  0.25644000  1
  C  C258  1  0.81935000  0.23528000  0.95322000  1
  C  C259  1  0.82016000  0.18692000  0.99496000  1
  C  C260  1  0.83167000  0.94871000  0.76595000  1
  C  C261  1  0.83328000  0.61946000  0.54878000  1
  C  C262  1  0.84108000  0.95704000  0.08540000  1
  C  C263  1  0.85059000  0.98253000  0.84589000  1
  C  C264  1  0.85071000  0.49129000  0.34629000  1
  C  C265  1  0.86897000  0.95126000  0.71240000  1
  C  C266  1  0.87929000  0.25807000  0.46275000  1
  C  C267  1  0.88352000  0.54296000  0.41460000  1
  C  C268  1  0.88485000  0.46091000  0.24979000  1
  C  C269  1  0.89322000  0.98201000  0.78955000  1
  C  C270  1  0.89627000  0.20982000  0.50224000  1
  C  C271  1  0.91149000  0.93326000  0.88176000  1
  C  C272  1  0.92123000  0.63491000  0.50063000  1
  C  C273  1  0.92765000  0.31012000  0.46478000  1
  C  C274  1  0.92875000  0.43590000  0.33820000  1
  C  C275  1  0.93533000  0.60408000  0.46046000  1
  C  C276  1  0.94323000  0.13491000  0.00063000  1
  C  C277  1  0.94477000  0.42064000  0.29022000  1
  C  C278  1  0.94670000  0.92076000  0.11744000  1
  C  C279  1  0.95694000  0.21326000  0.54546000  1
  C  C280  1  0.95749000  0.11639000  0.91023000  1
  C  C281  1  0.96412000  0.98888000  0.68468000  1
  C  C282  1  0.96611000  0.15678000  0.08720000  1
  C  C283  1  0.97139000  0.97694000  0.29248000  1
  C  C284  1  0.98019000  0.87615000  0.86967000  1
  C  C285  1  0.98411000  0.38361000  0.58977000  1
  C  C286  1  0.98490000  0.57924000  0.38256000  1
  C  C287  1  0.99215000  0.73528000  0.45322000  1
  C  C288  1  0.99252000  0.01885000  0.76051000  1
  C  C289  1  0.99796000  0.68692000  0.49496000  1
  C  C290  1  0.99848000  0.11946000  0.04878000  1
  C  C291  1  0.99987000  0.89592000  0.03954000  1
  S  S292  1  0.00670000  0.99105000  0.61799000  1
  S  S293  1  0.10335000  0.34900000  0.88408000  1
  S  S294  1  0.11411000  0.56289000  0.80841000  1
  S  S295  1  0.14121000  0.85957000  0.50305000  1
  S  S296  1  0.33643000  0.15100000  0.61592000  1
  S  S297  1  0.38426000  0.49105000  0.11799000  1
  S  S298  1  0.48541000  0.93711000  0.69159000  1
  S  S299  1  0.49617000  0.35957000  0.00305000  1
  S  S300  1  0.50383000  0.64043000  0.99695000  1
  S  S301  1  0.51459000  0.06289000  0.30841000  1
  S  S302  1  0.61574000  0.50895000  0.88201000  1
  S  S303  1  0.66357000  0.84900000  0.38408000  1
  S  S304  1  0.85879000  0.14043000  0.49695000  1
  S  S305  1  0.88589000  0.43711000  0.19159000  1
  S  S306  1  0.89665000  0.65100000  0.11592000  1
  S  S307  1  0.99330000  0.00895000  0.38201000  1
  N  N308  1  0.08079000  0.06566000  0.06816000  1
  N  N309  1  0.12185000  0.05853000  0.96177000  1
  N  N310  1  0.14215000  0.44147000  0.53823000  1
  N  N311  1  0.21461000  0.43434000  0.43184000  1
  N  N312  1  0.30646000  0.54367000  0.51301000  1
  N  N313  1  0.30660000  0.95947000  0.09373000  1
  N  N314  1  0.35980000  0.54053000  0.40627000  1
  N  N315  1  0.36314000  0.95633000  0.98699000  1
  N  N316  1  0.63686000  0.04367000  0.01301000  1
  N  N317  1  0.64020000  0.45947000  0.59373000  1
  N  N318  1  0.69340000  0.04053000  0.90627000  1
  N  N319  1  0.69354000  0.45633000  0.48699000  1
  N  N320  1  0.78539000  0.56566000  0.56816000  1
  N  N321  1  0.85785000  0.55853000  0.46177000  1
  N  N322  1  0.87815000  0.94147000  0.03823000  1
  N  N323  1  0.91921000  0.93434000  0.93184000  1
  O  O324  1  0.00718000  0.10409000  0.48795000  1
  O  O325  1  0.02040000  0.51151000  0.06429000  1
  O  O326  1  0.02461000  0.64613000  0.07505000  1
  O  O327  1  0.04079000  0.43104000  0.16618000  1
  O  O328  1  0.05831000  0.35071000  0.83507000  1
  O  O329  1  0.07217000  0.04493000  0.59453000  1
  O  O330  1  0.11030000  0.39404000  0.99796000  1
  O  O331  1  0.11081000  0.93653000  0.61245000  1
  O  O332  1  0.13417000  0.00869000  0.40037000  1
  O  O333  1  0.13722000  0.57484000  0.93072000  1
  O  O334  1  0.16890000  0.61886000  0.79474000  1
  O  O335  1  0.20306000  0.39185000  0.88263000  1
  O  O336  1  0.21325000  0.51595000  0.83815000  1
  O  O337  1  0.22492000  0.84868000  0.54708000  1
  O  O338  1  0.22576000  0.88392000  0.45436000  1
  O  O339  1  0.23116000  0.98297000  0.50651000  1
  O  O340  1  0.24409000  0.14929000  0.66493000  1
  O  O341  1  0.25421000  0.14613000  0.57505000  1
  O  O342  1  0.27936000  0.48297000  0.00651000  1
  O  O343  1  0.28837000  0.54493000  0.09453000  1
  O  O344  1  0.34021000  0.43653000  0.11245000  1
  O  O345  1  0.35722000  0.07484000  0.43072000  1
  O  O346  1  0.36199000  0.93104000  0.66618000  1
  O  O347  1  0.37932000  0.34868000  0.04708000  1
  O  O348  1  0.40078000  0.60409000  0.98795000  1
  O  O349  1  0.40380000  0.01151000  0.56429000  1
  O  O350  1  0.41750000  0.11886000  0.29474000  1
  O  O351  1  0.43265000  0.01595000  0.33815000  1
  O  O352  1  0.43596000  0.38392000  0.95436000  1
  O  O353  1  0.45677000  0.50869000  0.90037000  1
  O  O354  1  0.47754000  0.10815000  0.61737000  1
  O  O355  1  0.49770000  0.89404000  0.49796000  1
  O  O356  1  0.50230000  0.10596000  0.50204000  1
  O  O357  1  0.52246000  0.89185000  0.38263000  1
  O  O358  1  0.54323000  0.49131000  0.09963000  1
  O  O359  1  0.56404000  0.61608000  0.04564000  1
  O  O360  1  0.56735000  0.98405000  0.66185000  1
  O  O361  1  0.58250000  0.88114000  0.70526000  1
  O  O362  1  0.59620000  0.98849000  0.43571000  1
  O  O363  1  0.59922000  0.39591000  0.01205000  1
  O  O364  1  0.62068000  0.65132000  0.95292000  1
  O  O365  1  0.63801000  0.06896000  0.33382000  1
  O  O366  1  0.64278000  0.92516000  0.56928000  1
  O  O367  1  0.65979000  0.56347000  0.88755000  1
  O  O368  1  0.71163000  0.45507000  0.90547000  1
  O  O369  1  0.72064000  0.51703000  0.99349000  1
  O  O370  1  0.74579000  0.85387000  0.42495000  1
  O  O371  1  0.75591000  0.85071000  0.33507000  1
  O  O372  1  0.76884000  0.01703000  0.49349000  1
  O  O373  1  0.77424000  0.11608000  0.54564000  1
  O  O374  1  0.77508000  0.15132000  0.45292000  1
  O  O375  1  0.78675000  0.48405000  0.16185000  1
  O  O376  1  0.79694000  0.60815000  0.11737000  1
  O  O377  1  0.83110000  0.38114000  0.20526000  1
  O  O378  1  0.86278000  0.42516000  0.06928000  1
  O  O379  1  0.86583000  0.99131000  0.59963000  1
  O  O380  1  0.88919000  0.06347000  0.38755000  1
  O  O381  1  0.88970000  0.60596000  0.00204000  1
  O  O382  1  0.92783000  0.95507000  0.40547000  1
  O  O383  1  0.94169000  0.64929000  0.16493000  1
  O  O384  1  0.95921000  0.56896000  0.83382000  1
  O  O385  1  0.97539000  0.35387000  0.92495000  1
  O  O386  1  0.97960000  0.48849000  0.93571000  1
  O  O387  1  0.99282000  0.89591000  0.51205000  1
