# generated using pymatgen
data_AgH12C14N4O
_symmetry_space_group_name_H-M   'P 1'
_cell_length_a   7.93410000
_cell_length_b   11.55000000
_cell_length_c   18.11570000
_cell_angle_alpha   90.00000000
_cell_angle_beta   90.00000000
_cell_angle_gamma   90.00000000
_symmetry_Int_Tables_number   1
_chemical_formula_structural   AgH12C14N4O
_chemical_formula_sum   'Ag4 H48 C56 N16 O4'
_cell_volume   1660.10200552
_cell_formula_units_Z   4
loop_
 _symmetry_equiv_pos_site_id
 _symmetry_equiv_pos_as_xyz
  1  'x, y, z'
loop_
 _atom_site_type_symbol
 _atom_site_label
 _atom_site_symmetry_multiplicity
 _atom_site_fract_x
 _atom_site_fract_y
 _atom_site_fract_z
 _atom_site_occupancy
  Ag  Ag0  1  0.00000000  0.00000000  0.40102000  1
  Ag  Ag1  1  0.00000000  0.00000000  0.59898000  1
  Ag  Ag2  1  0.50000000  0.50000000  0.09898000  1
  Ag  Ag3  1  0.50000000  0.50000000  0.90102000  1
  H  H4  1  0.02700000  0.19780000  0.30630000  1
  H  H5  1  0.02700000  0.19780000  0.69370000  1
  H  H6  1  0.07520000  0.28380000  0.19220000  1
  H  H7  1  0.07520000  0.28380000  0.80780000  1
  H  H8  1  0.18300000  0.45500000  0.13200000  1
  H  H9  1  0.18300000  0.45500000  0.86800000  1
  H  H10  1  0.19260000  0.05240000  0.20650000  1
  H  H11  1  0.19260000  0.05240000  0.79350000  1
  H  H12  1  0.21000000  0.55000000  0.16700000  1
  H  H13  1  0.21000000  0.55000000  0.83300000  1
  H  H14  1  0.23560000  0.96410000  0.09290000  1
  H  H15  1  0.23560000  0.96410000  0.90710000  1
  H  H16  1  0.26440000  0.46410000  0.40710000  1
  H  H17  1  0.26440000  0.46410000  0.59290000  1
  H  H18  1  0.29000000  0.05000000  0.33300000  1
  H  H19  1  0.29000000  0.05000000  0.66700000  1
  H  H20  1  0.30740000  0.55240000  0.29350000  1
  H  H21  1  0.30740000  0.55240000  0.70650000  1
  H  H22  1  0.31700000  0.95500000  0.36800000  1
  H  H23  1  0.31700000  0.95500000  0.63200000  1
  H  H24  1  0.42480000  0.78380000  0.30780000  1
  H  H25  1  0.42480000  0.78380000  0.69220000  1
  H  H26  1  0.47300000  0.69780000  0.19370000  1
  H  H27  1  0.47300000  0.69780000  0.80630000  1
  H  H28  1  0.52700000  0.30220000  0.19370000  1
  H  H29  1  0.52700000  0.30220000  0.80630000  1
  H  H30  1  0.57520000  0.21620000  0.30780000  1
  H  H31  1  0.57520000  0.21620000  0.69220000  1
  H  H32  1  0.68300000  0.04500000  0.36800000  1
  H  H33  1  0.68300000  0.04500000  0.63200000  1
  H  H34  1  0.69260000  0.44760000  0.29350000  1
  H  H35  1  0.69260000  0.44760000  0.70650000  1
  H  H36  1  0.71000000  0.95000000  0.33300000  1
  H  H37  1  0.71000000  0.95000000  0.66700000  1
  H  H38  1  0.73560000  0.53590000  0.40710000  1
  H  H39  1  0.73560000  0.53590000  0.59290000  1
  H  H40  1  0.76440000  0.03590000  0.09290000  1
  H  H41  1  0.76440000  0.03590000  0.90710000  1
  H  H42  1  0.79000000  0.45000000  0.16700000  1
  H  H43  1  0.79000000  0.45000000  0.83300000  1
  H  H44  1  0.80740000  0.94760000  0.20650000  1
  H  H45  1  0.80740000  0.94760000  0.79350000  1
  H  H46  1  0.81700000  0.54500000  0.13200000  1
  H  H47  1  0.81700000  0.54500000  0.86800000  1
  H  H48  1  0.92480000  0.71620000  0.19220000  1
  H  H49  1  0.92480000  0.71620000  0.80780000  1
  H  H50  1  0.97300000  0.80220000  0.30630000  1
  H  H51  1  0.97300000  0.80220000  0.69370000  1
  C  C52  1  0.08520000  0.26960000  0.30375000  1
  C  C53  1  0.08520000  0.26960000  0.69625000  1
  C  C54  1  0.11260000  0.32110000  0.23600000  1
  C  C55  1  0.11260000  0.32110000  0.76400000  1
  C  C56  1  0.11520000  0.27070000  0.44081000  1
  C  C57  1  0.11520000  0.27070000  0.55919000  1
  C  C58  1  0.14160000  0.32140000  0.36792000  1
  C  C59  1  0.14160000  0.32140000  0.63208000  1
  C  C60  1  0.19500000  0.42750000  0.23157000  1
  C  C61  1  0.19500000  0.42750000  0.76843000  1
  C  C62  1  0.22510000  0.42760000  0.36340000  1
  C  C63  1  0.22510000  0.42760000  0.63660000  1
  C  C64  1  0.24910000  0.98000000  0.20410000  1
  C  C65  1  0.24910000  0.98000000  0.79590000  1
  C  C66  1  0.25090000  0.48000000  0.29590000  1
  C  C67  1  0.25090000  0.48000000  0.70410000  1
  C  C68  1  0.27490000  0.92760000  0.13660000  1
  C  C69  1  0.27490000  0.92760000  0.86340000  1
  C  C70  1  0.30500000  0.92750000  0.26843000  1
  C  C71  1  0.30500000  0.92750000  0.73157000  1
  C  C72  1  0.35840000  0.82140000  0.13208000  1
  C  C73  1  0.35840000  0.82140000  0.86792000  1
  C  C74  1  0.38480000  0.77070000  0.05919000  1
  C  C75  1  0.38480000  0.77070000  0.94081000  1
  C  C76  1  0.38740000  0.82110000  0.26400000  1
  C  C77  1  0.38740000  0.82110000  0.73600000  1
  C  C78  1  0.41480000  0.76960000  0.19625000  1
  C  C79  1  0.41480000  0.76960000  0.80375000  1
  C  C80  1  0.58520000  0.23040000  0.19625000  1
  C  C81  1  0.58520000  0.23040000  0.80375000  1
  C  C82  1  0.61260000  0.17890000  0.26400000  1
  C  C83  1  0.61260000  0.17890000  0.73600000  1
  C  C84  1  0.61520000  0.22930000  0.05919000  1
  C  C85  1  0.61520000  0.22930000  0.94081000  1
  C  C86  1  0.64160000  0.17860000  0.13208000  1
  C  C87  1  0.64160000  0.17860000  0.86792000  1
  C  C88  1  0.69500000  0.07250000  0.26843000  1
  C  C89  1  0.69500000  0.07250000  0.73157000  1
  C  C90  1  0.72510000  0.07240000  0.13660000  1
  C  C91  1  0.72510000  0.07240000  0.86340000  1
  C  C92  1  0.74910000  0.52000000  0.29590000  1
  C  C93  1  0.74910000  0.52000000  0.70410000  1
  C  C94  1  0.75090000  0.02000000  0.20410000  1
  C  C95  1  0.75090000  0.02000000  0.79590000  1
  C  C96  1  0.77490000  0.57240000  0.36340000  1
  C  C97  1  0.77490000  0.57240000  0.63660000  1
  C  C98  1  0.80500000  0.57250000  0.23157000  1
  C  C99  1  0.80500000  0.57250000  0.76843000  1
  C  C100  1  0.85840000  0.67860000  0.36792000  1
  C  C101  1  0.85840000  0.67860000  0.63208000  1
  C  C102  1  0.88480000  0.72930000  0.44081000  1
  C  C103  1  0.88480000  0.72930000  0.55919000  1
  C  C104  1  0.88740000  0.67890000  0.23600000  1
  C  C105  1  0.88740000  0.67890000  0.76400000  1
  C  C106  1  0.91480000  0.73040000  0.30375000  1
  C  C107  1  0.91480000  0.73040000  0.69625000  1
  N  N108  1  0.06180000  0.16960000  0.46096000  1
  N  N109  1  0.06180000  0.16960000  0.53904000  1
  N  N110  1  0.22650000  0.48230000  0.16309000  1
  N  N111  1  0.22650000  0.48230000  0.83691000  1
  N  N112  1  0.27350000  0.98230000  0.33691000  1
  N  N113  1  0.27350000  0.98230000  0.66309000  1
  N  N114  1  0.43820000  0.66960000  0.03904000  1
  N  N115  1  0.43820000  0.66960000  0.96096000  1
  N  N116  1  0.56180000  0.33040000  0.03904000  1
  N  N117  1  0.56180000  0.33040000  0.96096000  1
  N  N118  1  0.72650000  0.01770000  0.33691000  1
  N  N119  1  0.72650000  0.01770000  0.66309000  1
  N  N120  1  0.77350000  0.51770000  0.16309000  1
  N  N121  1  0.77350000  0.51770000  0.83691000  1
  N  N122  1  0.93820000  0.83040000  0.46096000  1
  N  N123  1  0.93820000  0.83040000  0.53904000  1
  O  O124  1  0.15000000  0.33900000  0.50000000  1
  O  O125  1  0.35000000  0.83900000  0.00000000  1
  O  O126  1  0.65000000  0.16100000  0.00000000  1
  O  O127  1  0.85000000  0.66100000  0.50000000  1
