# generated using pymatgen
data_PrCu3(CO2)9
_symmetry_space_group_name_H-M   'P 1'
_cell_length_a   17.58000000
_cell_length_b   17.58000000
_cell_length_c   17.58000000
_cell_angle_alpha   90.00000000
_cell_angle_beta   90.00000000
_cell_angle_gamma   90.00000000
_symmetry_Int_Tables_number   1
_chemical_formula_structural   PrCu3(CO2)9
_chemical_formula_sum   'Pr4 Cu12 C36 O72'
_cell_volume   5433.21151200
_cell_formula_units_Z   4
loop_
 _symmetry_equiv_pos_site_id
 _symmetry_equiv_pos_as_xyz
  1  'x, y, z'
loop_
 _atom_site_type_symbol
 _atom_site_label
 _atom_site_symmetry_multiplicity
 _atom_site_fract_x
 _atom_site_fract_y
 _atom_site_fract_z
 _atom_site_occupancy
  Pr  Pr0  1  0.10136000  0.89864000  0.39864000  1
  Pr  Pr1  1  0.39864000  0.10136000  0.89864000  1
  Pr  Pr2  1  0.60136000  0.60136000  0.60136000  1
  Pr  Pr3  1  0.89864000  0.39864000  0.10136000  1
  Cu  Cu4  1  0.00127000  0.09444000  0.15196000  1
  Cu  Cu5  1  0.09444000  0.15196000  0.00127000  1
  Cu  Cu6  1  0.15196000  0.00127000  0.09444000  1
  Cu  Cu7  1  0.34804000  0.99873000  0.59444000  1
  Cu  Cu8  1  0.40556000  0.84804000  0.50127000  1
  Cu  Cu9  1  0.49873000  0.90556000  0.65196000  1
  Cu  Cu10  1  0.50127000  0.40556000  0.84804000  1
  Cu  Cu11  1  0.59444000  0.34804000  0.99873000  1
  Cu  Cu12  1  0.65196000  0.49873000  0.90556000  1
  Cu  Cu13  1  0.84804000  0.50127000  0.40556000  1
  Cu  Cu14  1  0.90556000  0.65196000  0.49873000  1
  Cu  Cu15  1  0.99873000  0.59444000  0.34804000  1
  C  C16  1  0.00040000  0.48710000  0.24230000  1
  C  C17  1  0.00770000  0.73630000  0.40900000  1
  C  C18  1  0.01290000  0.75770000  0.50040000  1
  C  C19  1  0.08640000  0.71020000  0.38530000  1
  C  C20  1  0.09100000  0.99230000  0.23630000  1
  C  C21  1  0.11470000  0.91360000  0.21020000  1
  C  C22  1  0.21020000  0.11470000  0.91360000  1
  C  C23  1  0.23630000  0.09100000  0.99230000  1
  C  C24  1  0.24230000  0.00040000  0.48710000  1
  C  C25  1  0.25770000  0.99960000  0.98710000  1
  C  C26  1  0.26370000  0.90900000  0.49230000  1
  C  C27  1  0.28980000  0.88530000  0.41360000  1
  C  C28  1  0.38530000  0.08640000  0.71020000  1
  C  C29  1  0.40900000  0.00770000  0.73630000  1
  C  C30  1  0.41360000  0.28980000  0.88530000  1
  C  C31  1  0.48710000  0.24230000  0.00040000  1
  C  C32  1  0.49230000  0.26370000  0.90900000  1
  C  C33  1  0.49960000  0.51290000  0.74230000  1
  C  C34  1  0.50040000  0.01290000  0.75770000  1
  C  C35  1  0.50770000  0.76370000  0.59100000  1
  C  C36  1  0.51290000  0.74230000  0.49960000  1
  C  C37  1  0.58640000  0.78980000  0.61470000  1
  C  C38  1  0.59100000  0.50770000  0.76370000  1
  C  C39  1  0.61470000  0.58640000  0.78980000  1
  C  C40  1  0.71020000  0.38530000  0.08640000  1
  C  C41  1  0.73630000  0.40900000  0.00770000  1
  C  C42  1  0.74230000  0.49960000  0.51290000  1
  C  C43  1  0.75770000  0.50040000  0.01290000  1
  C  C44  1  0.76370000  0.59100000  0.50770000  1
  C  C45  1  0.78980000  0.61470000  0.58640000  1
  C  C46  1  0.88530000  0.41360000  0.28980000  1
  C  C47  1  0.90900000  0.49230000  0.26370000  1
  C  C48  1  0.91360000  0.21020000  0.11470000  1
  C  C49  1  0.98710000  0.25770000  0.99960000  1
  C  C50  1  0.99230000  0.23630000  0.09100000  1
  C  C51  1  0.99960000  0.98710000  0.25770000  1
  O  O52  1  0.00900000  0.30130000  0.12690000  1
  O  O53  1  0.01210000  0.45310000  0.17650000  1
  O  O54  1  0.01910000  0.21890000  0.95370000  1
  O  O55  1  0.04610000  0.17780000  0.09790000  1
  O  O56  1  0.04630000  0.51910000  0.28110000  1
  O  O57  1  0.04690000  0.82350000  0.51210000  1
  O  O58  1  0.09790000  0.04610000  0.17780000  1
  O  O59  1  0.09810000  0.64400000  0.36760000  1
  O  O60  1  0.11100000  0.86080000  0.25980000  1
  O  O61  1  0.12690000  0.00900000  0.30130000  1
  O  O62  1  0.13240000  0.90190000  0.14400000  1
  O  O63  1  0.13920000  0.75980000  0.38900000  1
  O  O64  1  0.14400000  0.13240000  0.90190000  1
  O  O65  1  0.17650000  0.01210000  0.45310000  1
  O  O66  1  0.17780000  0.09790000  0.04610000  1
  O  O67  1  0.19870000  0.87310000  0.50900000  1
  O  O68  1  0.21890000  0.95370000  0.01910000  1
  O  O69  1  0.24020000  0.88900000  0.36080000  1
  O  O70  1  0.25980000  0.11100000  0.86080000  1
  O  O71  1  0.28110000  0.04630000  0.51910000  1
  O  O72  1  0.30130000  0.12690000  0.00900000  1
  O  O73  1  0.32220000  0.90210000  0.54610000  1
  O  O74  1  0.32350000  0.98790000  0.95310000  1
  O  O75  1  0.35600000  0.86760000  0.40190000  1
  O  O76  1  0.36080000  0.24020000  0.88900000  1
  O  O77  1  0.36760000  0.09810000  0.64400000  1
  O  O78  1  0.37310000  0.99100000  0.80130000  1
  O  O79  1  0.38900000  0.13920000  0.75980000  1
  O  O80  1  0.40190000  0.35600000  0.86760000  1
  O  O81  1  0.40210000  0.95390000  0.67780000  1
  O  O82  1  0.45310000  0.17650000  0.01210000  1
  O  O83  1  0.45370000  0.48090000  0.78110000  1
  O  O84  1  0.45390000  0.82220000  0.59790000  1
  O  O85  1  0.48090000  0.78110000  0.45370000  1
  O  O86  1  0.48790000  0.54690000  0.67650000  1
  O  O87  1  0.49100000  0.69870000  0.62690000  1
  O  O88  1  0.50900000  0.19870000  0.87310000  1
  O  O89  1  0.51210000  0.04690000  0.82350000  1
  O  O90  1  0.51910000  0.28110000  0.04630000  1
  O  O91  1  0.54610000  0.32220000  0.90210000  1
  O  O92  1  0.54630000  0.98090000  0.71890000  1
  O  O93  1  0.54690000  0.67650000  0.48790000  1
  O  O94  1  0.59790000  0.45390000  0.82220000  1
  O  O95  1  0.59810000  0.85600000  0.63240000  1
  O  O96  1  0.61100000  0.63920000  0.74020000  1
  O  O97  1  0.62690000  0.49100000  0.69870000  1
  O  O98  1  0.63240000  0.59810000  0.85600000  1
  O  O99  1  0.63920000  0.74020000  0.61100000  1
  O  O100  1  0.64400000  0.36760000  0.09810000  1
  O  O101  1  0.67650000  0.48790000  0.54690000  1
  O  O102  1  0.67780000  0.40210000  0.95390000  1
  O  O103  1  0.69870000  0.62690000  0.49100000  1
  O  O104  1  0.71890000  0.54630000  0.98090000  1
  O  O105  1  0.74020000  0.61100000  0.63920000  1
  O  O106  1  0.75980000  0.38900000  0.13920000  1
  O  O107  1  0.78110000  0.45370000  0.48090000  1
  O  O108  1  0.80130000  0.37310000  0.99100000  1
  O  O109  1  0.82220000  0.59790000  0.45390000  1
  O  O110  1  0.82350000  0.51210000  0.04690000  1
  O  O111  1  0.85600000  0.63240000  0.59810000  1
  O  O112  1  0.86080000  0.25980000  0.11100000  1
  O  O113  1  0.86760000  0.40190000  0.35600000  1
  O  O114  1  0.87310000  0.50900000  0.19870000  1
  O  O115  1  0.88900000  0.36080000  0.24020000  1
  O  O116  1  0.90190000  0.14400000  0.13240000  1
  O  O117  1  0.90210000  0.54610000  0.32220000  1
  O  O118  1  0.95310000  0.32350000  0.98790000  1
  O  O119  1  0.95370000  0.01910000  0.21890000  1
  O  O120  1  0.95390000  0.67780000  0.40210000  1
  O  O121  1  0.98090000  0.71890000  0.54630000  1
  O  O122  1  0.98790000  0.95310000  0.32350000  1
  O  O123  1  0.99100000  0.80130000  0.37310000  1
