# generated using pymatgen
data_Fe2H16C24N4O9
_symmetry_space_group_name_H-M   'P 1'
_cell_length_a   10.48390000
_cell_length_b   11.84000000
_cell_length_c   14.03400000
_cell_angle_alpha   105.64500000
_cell_angle_beta   101.22200000
_cell_angle_gamma   112.35800000
_symmetry_Int_Tables_number   1
_chemical_formula_structural   Fe2H16C24N4O9
_chemical_formula_sum   'Fe4 H32 C48 N8 O18'
_cell_volume   1462.45122380
_cell_formula_units_Z   2
loop_
 _symmetry_equiv_pos_site_id
 _symmetry_equiv_pos_as_xyz
  1  'x, y, z'
loop_
 _atom_site_type_symbol
 _atom_site_label
 _atom_site_symmetry_multiplicity
 _atom_site_fract_x
 _atom_site_fract_y
 _atom_site_fract_z
 _atom_site_occupancy
  Fe  Fe0  1  0.18612000  0.99349000  0.21414000  1
  Fe  Fe1  1  0.44780000  0.72517000  0.69138000  1
  Fe  Fe2  1  0.55220000  0.27483000  0.30861000  1
  Fe  Fe3  1  0.81388000  0.00651000  0.78586000  1
  H  H4  1  0.00630000  0.21980000  0.12990000  1
  H  H5  1  0.01860000  0.51780000  0.19430000  1
  H  H6  1  0.02910000  0.68520000  0.13810000  1
  H  H7  1  0.05130000  0.10430000  0.98620000  1
  H  H8  1  0.06190000  0.30250000  0.31220000  1
  H  H9  1  0.09390000  0.03960000  0.70970000  1
  H  H10  1  0.11320000  0.67480000  0.61900000  1
  H  H11  1  0.12980000  0.26400000  0.68450000  1
  H  H12  1  0.14330000  0.14370000  0.52910000  1
  H  H13  1  0.15440000  0.56830000  0.36530000  1
  H  H14  1  0.24540000  0.49110000  0.74690000  1
  H  H15  1  0.29530000  0.95090000  0.41440000  1
  H  H16  1  0.34030000  0.10930000  0.78030000  1
  H  H17  1  0.38580000  0.48530000  0.50910000  1
  H  H18  1  0.40040000  0.82920000  0.89910000  1
  H  H19  1  0.44980000  0.19230000  0.96330000  1
  H  H20  1  0.55020000  0.80770000  0.03670000  1
  H  H21  1  0.59960000  0.17080000  0.10090000  1
  H  H22  1  0.61420000  0.51470000  0.49090000  1
  H  H23  1  0.65970000  0.89070000  0.21970000  1
  H  H24  1  0.70470000  0.04910000  0.58560000  1
  H  H25  1  0.75460000  0.50890000  0.25310000  1
  H  H26  1  0.84560000  0.43170000  0.63470000  1
  H  H27  1  0.85670000  0.85630000  0.47090000  1
  H  H28  1  0.87020000  0.73600000  0.31550000  1
  H  H29  1  0.88680000  0.32520000  0.38100000  1
  H  H30  1  0.90610000  0.96040000  0.29030000  1
  H  H31  1  0.93810000  0.69750000  0.68780000  1
  H  H32  1  0.94870000  0.89570000  0.01380000  1
  H  H33  1  0.97090000  0.31480000  0.86190000  1
  H  H34  1  0.98140000  0.48220000  0.80570000  1
  H  H35  1  0.99370000  0.78020000  0.87010000  1
  C  C36  1  0.03070000  0.72270000  0.73231000  1
  C  C37  1  0.06390000  0.77301000  0.84083000  1
  C  C38  1  0.07640000  0.60520000  0.24012000  1
  C  C39  1  0.08270000  0.70640000  0.20701000  1
  C  C40  1  0.11110000  0.10811000  0.94487000  1
  C  C41  1  0.13570000  0.06920000  0.78213000  1
  C  C42  1  0.13730000  0.71060000  0.69151000  1
  C  C43  1  0.15650000  0.63510000  0.34178000  1
  C  C44  1  0.18190000  0.30710000  0.64770000  1
  C  C45  1  0.19040000  0.23550000  0.55567000  1
  C  C46  1  0.20440000  0.81208000  0.90405000  1
  C  C47  1  0.24000000  0.86266000  0.36964000  1
  C  C48  1  0.24050000  0.76711000  0.40842000  1
  C  C49  1  0.25150000  0.44380000  0.68472000  1
  C  C50  1  0.25490000  0.87117000  0.02246000  1
  C  C51  1  0.25960000  0.15451000  0.99427000  1
  C  C52  1  0.27080000  0.30341000  0.50364000  1
  C  C53  1  0.28430000  0.11190000  0.82397000  1
  C  C54  1  0.29500000  0.23382000  0.40689000  1
  C  C55  1  0.30550000  0.79991000  0.85627000  1
  C  C56  1  0.31200000  0.18928000  0.11118000  1
  C  C57  1  0.33260000  0.80797000  0.52058000  1
  C  C58  1  0.33470000  0.43986000  0.54515000  1
  C  C59  1  0.34930000  0.15900000  0.93286000  1
  C  C60  1  0.65070000  0.84100000  0.06714000  1
  C  C61  1  0.66530000  0.56014000  0.45485000  1
  C  C62  1  0.66740000  0.19203000  0.47942000  1
  C  C63  1  0.68800000  0.81072000  0.88882000  1
  C  C64  1  0.69450000  0.20009000  0.14373000  1
  C  C65  1  0.70500000  0.76618000  0.59311000  1
  C  C66  1  0.71570000  0.88810000  0.17603000  1
  C  C67  1  0.72920000  0.69659000  0.49636000  1
  C  C68  1  0.74040000  0.84549000  0.00573000  1
  C  C69  1  0.74510000  0.12883000  0.97754000  1
  C  C70  1  0.74850000  0.55620000  0.31528000  1
  C  C71  1  0.75950000  0.23289000  0.59158000  1
  C  C72  1  0.76000000  0.13734000  0.63036000  1
  C  C73  1  0.79560000  0.18792000  0.09595000  1
  C  C74  1  0.80960000  0.76450000  0.44433000  1
  C  C75  1  0.81810000  0.69290000  0.35230000  1
  C  C76  1  0.84350000  0.36490000  0.65822000  1
  C  C77  1  0.86270000  0.28940000  0.30849000  1
  C  C78  1  0.86430000  0.93080000  0.21787000  1
  C  C79  1  0.88890000  0.89189000  0.05513000  1
  C  C80  1  0.91730000  0.29360000  0.79299000  1
  C  C81  1  0.92360000  0.39480000  0.75988000  1
  C  C82  1  0.93610000  0.22699000  0.15917000  1
  C  C83  1  0.96930000  0.27730000  0.26769000  1
  N  N84  1  0.04902000  0.06856000  0.84100000  1
  N  N85  1  0.16336000  0.83411000  0.27049000  1
  N  N86  1  0.27412000  0.74846000  0.75216000  1
  N  N87  1  0.32698000  0.51021000  0.63441000  1
  N  N88  1  0.67302000  0.48979000  0.36559000  1
  N  N89  1  0.72588000  0.25154000  0.24784000  1
  N  N90  1  0.83664000  0.16589000  0.72951000  1
  N  N91  1  0.95098000  0.93144000  0.15900000  1
  O  O92  1  0.15885000  0.87205000  0.06435000  1
  O  O93  1  0.21066000  0.11131000  0.36027000  1
  O  O94  1  0.21583000  0.14511000  0.15080000  1
  O  O95  1  0.33498000  0.71515000  0.54821000  1
  O  O96  1  0.38789000  0.91699000  0.07018000  1
  O  O97  1  0.39677000  0.30250000  0.38165000  1
  O  O98  1  0.39931000  0.92788000  0.57653000  1
  O  O99  1  0.42541000  0.05890000  0.25753000  1
  O  O100  1  0.44759000  0.25845000  0.16001000  1
  O  O101  1  0.55241000  0.74155000  0.83999000  1
  O  O102  1  0.57459000  0.94110000  0.74247000  1
  O  O103  1  0.60069000  0.07212000  0.42347000  1
  O  O104  1  0.60323000  0.69750000  0.61835000  1
  O  O105  1  0.61211000  0.08301000  0.92982000  1
  O  O106  1  0.66502000  0.28485000  0.45179000  1
  O  O107  1  0.78417000  0.85489000  0.84920000  1
  O  O108  1  0.78934000  0.88869000  0.63973000  1
  O  O109  1  0.84115000  0.12795000  0.93565000  1
