# generated using pymatgen
data_Gd2Cu3H18C42(NO4)6
_symmetry_space_group_name_H-M   'P 1'
_cell_length_a   13.95800000
_cell_length_b   20.52900000
_cell_length_c   30.68200000
_cell_angle_alpha   90.00000000
_cell_angle_beta   90.00000000
_cell_angle_gamma   98.82000000
_symmetry_Int_Tables_number   1
_chemical_formula_structural   Gd2Cu3H18C42(NO4)6
_chemical_formula_sum   'Gd8 Cu12 H72 C168 N24 O96'
_cell_volume   8687.77332619
_cell_formula_units_Z   4
loop_
 _symmetry_equiv_pos_site_id
 _symmetry_equiv_pos_as_xyz
  1  'x, y, z'
loop_
 _atom_site_type_symbol
 _atom_site_label
 _atom_site_symmetry_multiplicity
 _atom_site_fract_x
 _atom_site_fract_y
 _atom_site_fract_z
 _atom_site_occupancy
  Gd  Gd0  1  0.02419000  0.37493000  0.55086000  1
  Gd  Gd1  1  0.03870000  0.39563000  0.81033000  1
  Gd  Gd2  1  0.46130000  0.10437000  0.31033000  1
  Gd  Gd3  1  0.47581000  0.12507000  0.05086000  1
  Gd  Gd4  1  0.52419000  0.87493000  0.94914000  1
  Gd  Gd5  1  0.53870000  0.89563000  0.68967000  1
  Gd  Gd6  1  0.96130000  0.60437000  0.18967000  1
  Gd  Gd7  1  0.97581000  0.62507000  0.44914000  1
  Cu  Cu8  1  0.00456000  0.74263000  0.65767000  1
  Cu  Cu9  1  0.00830000  0.27960000  0.02201000  1
  Cu  Cu10  1  0.02668000  0.88862000  0.31523000  1
  Cu  Cu11  1  0.47332000  0.61138000  0.81523000  1
  Cu  Cu12  1  0.49170000  0.22040000  0.52201000  1
  Cu  Cu13  1  0.49544000  0.75737000  0.15767000  1
  Cu  Cu14  1  0.50456000  0.24263000  0.84233000  1
  Cu  Cu15  1  0.50830000  0.77960000  0.47799000  1
  Cu  Cu16  1  0.52668000  0.38862000  0.18477000  1
  Cu  Cu17  1  0.97332000  0.11138000  0.68477000  1
  Cu  Cu18  1  0.99170000  0.72040000  0.97799000  1
  Cu  Cu19  1  0.99544000  0.25737000  0.34233000  1
  H  H20  1  0.04250000  0.61320000  0.91560000  1
  H  H21  1  0.05190000  0.18750000  0.60590000  1
  H  H22  1  0.05980000  0.73910000  0.56110000  1
  H  H23  1  0.06910000  0.79450000  0.24680000  1
  H  H24  1  0.07300000  0.29350000  0.92710000  1
  H  H25  1  0.09180000  0.36470000  0.28170000  1
  H  H26  1  0.14390000  0.04660000  0.67370000  1
  H  H27  1  0.15970000  0.19470000  0.32120000  1
  H  H28  1  0.17850000  0.58930000  0.87930000  1
  H  H29  1  0.18390000  0.21940000  0.03050000  1
  H  H30  1  0.18690000  0.77980000  0.96080000  1
  H  H31  1  0.19530000  0.20600000  0.56750000  1
  H  H32  1  0.19650000  0.77020000  0.51880000  1
  H  H33  1  0.19860000  0.26810000  0.88420000  1
  H  H34  1  0.20030000  0.77270000  0.20570000  1
  H  H35  1  0.20670000  0.79560000  0.66800000  1
  H  H36  1  0.22110000  0.95710000  0.29390000  1
  H  H37  1  0.23760000  0.39000000  0.24470000  1
  H  H38  1  0.26240000  0.11000000  0.74470000  1
  H  H39  1  0.27890000  0.54290000  0.79390000  1
  H  H40  1  0.29330000  0.70440000  0.16800000  1
  H  H41  1  0.29970000  0.72730000  0.70570000  1
  H  H42  1  0.30140000  0.23190000  0.38420000  1
  H  H43  1  0.30350000  0.72980000  0.01880000  1
  H  H44  1  0.30470000  0.29400000  0.06750000  1
  H  H45  1  0.31310000  0.72020000  0.46080000  1
  H  H46  1  0.31610000  0.28060000  0.53050000  1
  H  H47  1  0.32150000  0.91070000  0.37930000  1
  H  H48  1  0.34030000  0.30530000  0.82120000  1
  H  H49  1  0.35610000  0.45340000  0.17370000  1
  H  H50  1  0.40820000  0.13530000  0.78170000  1
  H  H51  1  0.42700000  0.20650000  0.42710000  1
  H  H52  1  0.43090000  0.70550000  0.74680000  1
  H  H53  1  0.44020000  0.76090000  0.06110000  1
  H  H54  1  0.44810000  0.31250000  0.10590000  1
  H  H55  1  0.45750000  0.88680000  0.41560000  1
  H  H56  1  0.54250000  0.11320000  0.58440000  1
  H  H57  1  0.55190000  0.68750000  0.89410000  1
  H  H58  1  0.55980000  0.23910000  0.93890000  1
  H  H59  1  0.56910000  0.29450000  0.25320000  1
  H  H60  1  0.57300000  0.79350000  0.57290000  1
  H  H61  1  0.59180000  0.86470000  0.21830000  1
  H  H62  1  0.64390000  0.54660000  0.82630000  1
  H  H63  1  0.65970000  0.69470000  0.17880000  1
  H  H64  1  0.67850000  0.08930000  0.62070000  1
  H  H65  1  0.68390000  0.71940000  0.46950000  1
  H  H66  1  0.68690000  0.27980000  0.53920000  1
  H  H67  1  0.69530000  0.70600000  0.93250000  1
  H  H68  1  0.69650000  0.27020000  0.98120000  1
  H  H69  1  0.69860000  0.76810000  0.61580000  1
  H  H70  1  0.70030000  0.27270000  0.29430000  1
  H  H71  1  0.70670000  0.29560000  0.83200000  1
  H  H72  1  0.72110000  0.45710000  0.20610000  1
  H  H73  1  0.73760000  0.89000000  0.25530000  1
  H  H74  1  0.76240000  0.61000000  0.75530000  1
  H  H75  1  0.77890000  0.04290000  0.70610000  1
  H  H76  1  0.79330000  0.20440000  0.33200000  1
  H  H77  1  0.79970000  0.22730000  0.79430000  1
  H  H78  1  0.80140000  0.73190000  0.11580000  1
  H  H79  1  0.80350000  0.22980000  0.48120000  1
  H  H80  1  0.80470000  0.79400000  0.43250000  1
  H  H81  1  0.81310000  0.22020000  0.03920000  1
  H  H82  1  0.81610000  0.78060000  0.96950000  1
  H  H83  1  0.82150000  0.41070000  0.12070000  1
  H  H84  1  0.84030000  0.80530000  0.67880000  1
  H  H85  1  0.85610000  0.95340000  0.32630000  1
  H  H86  1  0.90820000  0.63530000  0.71830000  1
  H  H87  1  0.92700000  0.70650000  0.07290000  1
  H  H88  1  0.93090000  0.20550000  0.75320000  1
  H  H89  1  0.94020000  0.26090000  0.43890000  1
  H  H90  1  0.94810000  0.81250000  0.39410000  1
  H  H91  1  0.95750000  0.38680000  0.08440000  1
  C  C92  1  0.10110000  0.16190000  0.61250000  1
  C  C93  1  0.10120000  0.64340000  0.91750000  1
  C  C94  1  0.10930000  0.54180000  0.75750000  1
  C  C95  1  0.11690000  0.18210000  0.73530000  1
  C  C96  1  0.11710000  0.67000000  0.13960000  1
  C  C97  1  0.11890000  0.75690000  0.57490000  1
  C  C98  1  0.12240000  0.68410000  0.04020000  1
  C  C99  1  0.12250000  0.27320000  0.94020000  1
  C  C100  1  0.12470000  0.65880000  0.69550000  1
  C  C101  1  0.12820000  0.82420000  0.24820000  1
  C  C102  1  0.13660000  0.33420000  0.28240000  1
  C  C103  1  0.14000000  0.72090000  0.43100000  1
  C  C104  1  0.14430000  0.83410000  0.37008000  1
  C  C105  1  0.15010000  0.29090000  0.40340000  1
  C  C106  1  0.15120000  0.35610000  0.06930000  1
  C  C107  1  0.15480000  0.31180000  0.50170000  1
  C  C108  1  0.15520000  0.07950000  0.65180000  1
  C  C109  1  0.16310000  0.30070000  0.79160000  1
  C  C110  1  0.17670000  0.23500000  0.30580000  1
  C  C111  1  0.18190000  0.62890000  0.89560000  1
  C  C112  1  0.18210000  0.45490000  0.14310000  1
  C  C113  1  0.18580000  0.74070000  0.94420000  1
  C  C114  1  0.18600000  0.17250000  0.58910000  1
  C  C115  1  0.18830000  0.23080000  0.00050000  1
  C  C116  1  0.19770000  0.25830000  0.91450000  1
  C  C117  1  0.20090000  0.77440000  0.54960000  1
  C  C118  1  0.20140000  0.59050000  0.75190000  1
  C  C119  1  0.20550000  0.78910000  0.63730000  1
  C  C120  1  0.20630000  0.81090000  0.22350000  1
  C  C121  1  0.20660000  0.64590000  0.72520000  1
  C  C122  1  0.20780000  0.69400000  0.11440000  1
  C  C123  1  0.20960000  0.19360000  0.76200000  1
  C  C124  1  0.21020000  0.70200000  0.06890000  1
  C  C125  1  0.21710000  0.91940000  0.27570000  1
  C  C126  1  0.22360000  0.34990000  0.26050000  1
  C  C127  1  0.22810000  0.27090000  0.43280000  1
  C  C128  1  0.23030000  0.77060000  0.42370000  1
  C  C129  1  0.23130000  0.82660000  0.39770000  1
  C  C130  1  0.23280000  0.25260000  0.78540000  1
  C  C131  1  0.23320000  0.28360000  0.47730000  1
  C  C132  1  0.24160000  0.36570000  0.09690000  1
  C  C133  1  0.24200000  0.08670000  0.62950000  1
  C  C134  1  0.25800000  0.41330000  0.12950000  1
  C  C135  1  0.25840000  0.13430000  0.59690000  1
  C  C136  1  0.26680000  0.21640000  0.97730000  1
  C  C137  1  0.26720000  0.24740000  0.28540000  1
  C  C138  1  0.26870000  0.67340000  0.89770000  1
  C  C139  1  0.26970000  0.72940000  0.92370000  1
  C  C140  1  0.27190000  0.22910000  0.93280000  1
  C  C141  1  0.27640000  0.15010000  0.76050000  1
  C  C142  1  0.28290000  0.58060000  0.77570000  1
  C  C143  1  0.28980000  0.79800000  0.56890000  1
  C  C144  1  0.29040000  0.30640000  0.26200000  1
  C  C145  1  0.29220000  0.80600000  0.61440000  1
  C  C146  1  0.29340000  0.85410000  0.22520000  1
  C  C147  1  0.29370000  0.68910000  0.72350000  1
  C  C148  1  0.29450000  0.71090000  0.13730000  1
  C  C149  1  0.29860000  0.90950000  0.25190000  1
  C  C150  1  0.29910000  0.72560000  0.04960000  1
  C  C151  1  0.30230000  0.24170000  0.41450000  1
  C  C152  1  0.31170000  0.26920000  0.50050000  1
  C  C153  1  0.31400000  0.32750000  0.08910000  1
  C  C154  1  0.31420000  0.75930000  0.44420000  1
  C  C155  1  0.31790000  0.04510000  0.64310000  1
  C  C156  1  0.31810000  0.87110000  0.39560000  1
  C  C157  1  0.32330000  0.26500000  0.80580000  1
  C  C158  1  0.33690000  0.19930000  0.29160000  1
  C  C159  1  0.34480000  0.42050000  0.15180000  1
  C  C160  1  0.34520000  0.18820000  0.00170000  1
  C  C161  1  0.34880000  0.14390000  0.56930000  1
  C  C162  1  0.34990000  0.20910000  0.90340000  1
  C  C163  1  0.35570000  0.66590000  0.87008000  1
  C  C164  1  0.36000000  0.77910000  0.93100000  1
  C  C165  1  0.36340000  0.16580000  0.78240000  1
  C  C166  1  0.37180000  0.67580000  0.74820000  1
  C  C167  1  0.37530000  0.84120000  0.19550000  1
  C  C168  1  0.37750000  0.22680000  0.44020000  1
  C  C169  1  0.37760000  0.81590000  0.54020000  1
  C  C170  1  0.38110000  0.74310000  0.07490000  1
  C  C171  1  0.38290000  0.83000000  0.63960000  1
  C  C172  1  0.38310000  0.31790000  0.23530000  1
  C  C173  1  0.39070000  0.95820000  0.25750000  1
  C  C174  1  0.39880000  0.85660000  0.41750000  1
  C  C175  1  0.39890000  0.33810000  0.11250000  1
  C  C176  1  0.60110000  0.66190000  0.88750000  1
  C  C177  1  0.60120000  0.14340000  0.58250000  1
  C  C178  1  0.60930000  0.04180000  0.74250000  1
  C  C179  1  0.61690000  0.68210000  0.76470000  1
  C  C180  1  0.61710000  0.17000000  0.36040000  1
  C  C181  1  0.61890000  0.25690000  0.92510000  1
  C  C182  1  0.62240000  0.18410000  0.45980000  1
  C  C183  1  0.62250000  0.77320000  0.55980000  1
  C  C184  1  0.62470000  0.15880000  0.80450000  1
  C  C185  1  0.62820000  0.32420000  0.25180000  1
  C  C186  1  0.63660000  0.83420000  0.21760000  1
  C  C187  1  0.64000000  0.22090000  0.06900000  1
  C  C188  1  0.64430000  0.33410000  0.12992000  1
  C  C189  1  0.65010000  0.79090000  0.09660000  1
  C  C190  1  0.65120000  0.85610000  0.43070000  1
  C  C191  1  0.65480000  0.81180000  0.99830000  1
  C  C192  1  0.65520000  0.57950000  0.84820000  1
  C  C193  1  0.66310000  0.80070000  0.70840000  1
  C  C194  1  0.67670000  0.73500000  0.19420000  1
  C  C195  1  0.68190000  0.12890000  0.60440000  1
  C  C196  1  0.68210000  0.95490000  0.35690000  1
  C  C197  1  0.68580000  0.24070000  0.55580000  1
  C  C198  1  0.68600000  0.67250000  0.91090000  1
  C  C199  1  0.68830000  0.73080000  0.49950000  1
  C  C200  1  0.69770000  0.75830000  0.58550000  1
  C  C201  1  0.70090000  0.27440000  0.95040000  1
  C  C202  1  0.70140000  0.09050000  0.74810000  1
  C  C203  1  0.70550000  0.28910000  0.86270000  1
  C  C204  1  0.70630000  0.31090000  0.27650000  1
  C  C205  1  0.70660000  0.14590000  0.77480000  1
  C  C206  1  0.70780000  0.19400000  0.38560000  1
  C  C207  1  0.70960000  0.69360000  0.73800000  1
  C  C208  1  0.71020000  0.20200000  0.43110000  1
  C  C209  1  0.71710000  0.41940000  0.22430000  1
  C  C210  1  0.72360000  0.84990000  0.23950000  1
  C  C211  1  0.72810000  0.77090000  0.06720000  1
  C  C212  1  0.73030000  0.27060000  0.07630000  1
  C  C213  1  0.73130000  0.32660000  0.10230000  1
  C  C214  1  0.73280000  0.75260000  0.71460000  1
  C  C215  1  0.73320000  0.78360000  0.02270000  1
  C  C216  1  0.74160000  0.86570000  0.40310000  1
  C  C217  1  0.74200000  0.58670000  0.87050000  1
  C  C218  1  0.75800000  0.91330000  0.37050000  1
  C  C219  1  0.75840000  0.63430000  0.90310000  1
  C  C220  1  0.76680000  0.71640000  0.52270000  1
  C  C221  1  0.76720000  0.74740000  0.21460000  1
  C  C222  1  0.76870000  0.17340000  0.60230000  1
  C  C223  1  0.76970000  0.22940000  0.57630000  1
  C  C224  1  0.77190000  0.72910000  0.56720000  1
  C  C225  1  0.77640000  0.65010000  0.73950000  1
  C  C226  1  0.78290000  0.08060000  0.72430000  1
  C  C227  1  0.78980000  0.29800000  0.93110000  1
  C  C228  1  0.79040000  0.80640000  0.23800000  1
  C  C229  1  0.79220000  0.30600000  0.88560000  1
  C  C230  1  0.79340000  0.35410000  0.27480000  1
  C  C231  1  0.79370000  0.18910000  0.77650000  1
  C  C232  1  0.79450000  0.21090000  0.36270000  1
  C  C233  1  0.79860000  0.40950000  0.24810000  1
  C  C234  1  0.79910000  0.22560000  0.45040000  1
  C  C235  1  0.80230000  0.74170000  0.08550000  1
  C  C236  1  0.81170000  0.76920000  0.99950000  1
  C  C237  1  0.81400000  0.82750000  0.41090000  1
  C  C238  1  0.81420000  0.25930000  0.05580000  1
  C  C239  1  0.81790000  0.54510000  0.85690000  1
  C  C240  1  0.81810000  0.37110000  0.10440000  1
  C  C241  1  0.82330000  0.76500000  0.69420000  1
  C  C242  1  0.83690000  0.69930000  0.20840000  1
  C  C243  1  0.84480000  0.92050000  0.34820000  1
  C  C244  1  0.84520000  0.68820000  0.49830000  1
  C  C245  1  0.84880000  0.64390000  0.93070000  1
  C  C246  1  0.84990000  0.70910000  0.59660000  1
  C  C247  1  0.85570000  0.16590000  0.62992000  1
  C  C248  1  0.86000000  0.27910000  0.56900000  1
  C  C249  1  0.86340000  0.66580000  0.71760000  1
  C  C250  1  0.87180000  0.17580000  0.75180000  1
  C  C251  1  0.87530000  0.34120000  0.30450000  1
  C  C252  1  0.87750000  0.72680000  0.05980000  1
  C  C253  1  0.87760000  0.31590000  0.95980000  1
  C  C254  1  0.88110000  0.24310000  0.42510000  1
  C  C255  1  0.88290000  0.33000000  0.86040000  1
  C  C256  1  0.88310000  0.81790000  0.26470000  1
  C  C257  1  0.89070000  0.45820000  0.24250000  1
  C  C258  1  0.89880000  0.35660000  0.08250000  1
  C  C259  1  0.89890000  0.83810000  0.38750000  1
  N  N260  1  0.08550000  0.11700000  0.64397000  1
  N  N261  1  0.10220000  0.69810000  0.94138000  1
  N  N262  1  0.11280000  0.27750000  0.30462000  1
  N  N263  1  0.11710000  0.26020000  0.98296000  1
  N  N264  1  0.12050000  0.76430000  0.61873000  1
  N  N265  1  0.13300000  0.87780000  0.27399000  1
  N  N266  1  0.36700000  0.62220000  0.77399000  1
  N  N267  1  0.37950000  0.73570000  0.11873000  1
  N  N268  1  0.38290000  0.23980000  0.48296000  1
  N  N269  1  0.38720000  0.22250000  0.80462000  1
  N  N270  1  0.39780000  0.80190000  0.44138000  1
  N  N271  1  0.41450000  0.38300000  0.14397000  1
  N  N272  1  0.58550000  0.61700000  0.85603000  1
  N  N273  1  0.60220000  0.19810000  0.55862000  1
  N  N274  1  0.61280000  0.77750000  0.19538000  1
  N  N275  1  0.61710000  0.76020000  0.51704000  1
  N  N276  1  0.62050000  0.26430000  0.88127000  1
  N  N277  1  0.63300000  0.37780000  0.22601000  1
  N  N278  1  0.86700000  0.12220000  0.72601000  1
  N  N279  1  0.87950000  0.23570000  0.38127000  1
  N  N280  1  0.88290000  0.73980000  0.01704000  1
  N  N281  1  0.88720000  0.72250000  0.69538000  1
  N  N282  1  0.89780000  0.30190000  0.05862000  1
  N  N283  1  0.91450000  0.88300000  0.35603000  1
  O  O284  1  0.03070000  0.56210000  0.75050000  1
  O  O285  1  0.03850000  0.65390000  0.11977000  1
  O  O286  1  0.06740000  0.74000000  0.44881000  1
  O  O287  1  0.07200000  0.12320000  0.73350000  1
  O  O288  1  0.07910000  0.32110000  0.48270000  1
  O  O289  1  0.08140000  0.73310000  0.02825000  1
  O  O290  1  0.08180000  0.28110000  0.80863000  1
  O  O291  1  0.08330000  0.24570000  0.39203000  1
  O  O292  1  0.08560000  0.70900000  0.70335000  1
  O  O293  1  0.09160000  0.23020000  0.71601000  1
  O  O294  1  0.09610000  0.42720000  0.14403000  1
  O  O295  1  0.09920000  0.62730000  0.02755000  1
  O  O296  1  0.09960000  0.78240000  0.35348000  1
  O  O297  1  0.10130000  0.29830000  0.07055000  1
  O  O298  1  0.10800000  0.62200000  0.66312000  1
  O  O299  1  0.12010000  0.48510000  0.77053000  1
  O  O300  1  0.12340000  0.66680000  0.18051000  1
  O  O301  1  0.12450000  0.89130000  0.36364000  1
  O  O302  1  0.13160000  0.40060000  0.04620000  1
  O  O303  1  0.14170000  0.66200000  0.42100000  1
  O  O304  1  0.16040000  0.34940000  0.39069000  1
  O  O305  1  0.16880000  0.32510000  0.54165000  1
  O  O306  1  0.19060000  0.36070000  0.78166000  1
  O  O307  1  0.21190000  0.51340000  0.15470000  1
  O  O308  1  0.28810000  0.98660000  0.65470000  1
  O  O309  1  0.30940000  0.13930000  0.28166000  1
  O  O310  1  0.33120000  0.17490000  0.04165000  1
  O  O311  1  0.33960000  0.15060000  0.89069000  1
  O  O312  1  0.35830000  0.83800000  0.92100000  1
  O  O313  1  0.36840000  0.09940000  0.54620000  1
  O  O314  1  0.37550000  0.60870000  0.86364000  1
  O  O315  1  0.37660000  0.83320000  0.68051000  1
  O  O316  1  0.37990000  0.01490000  0.27053000  1
  O  O317  1  0.39200000  0.87800000  0.16312000  1
  O  O318  1  0.39870000  0.20170000  0.57055000  1
  O  O319  1  0.40040000  0.71760000  0.85348000  1
  O  O320  1  0.40080000  0.87270000  0.52755000  1
  O  O321  1  0.40390000  0.07280000  0.64403000  1
  O  O322  1  0.40840000  0.26980000  0.21601000  1
  O  O323  1  0.41440000  0.79100000  0.20335000  1
  O  O324  1  0.41670000  0.25430000  0.89203000  1
  O  O325  1  0.41820000  0.21890000  0.30863000  1
  O  O326  1  0.41860000  0.76690000  0.52825000  1
  O  O327  1  0.42090000  0.17890000  0.98270000  1
  O  O328  1  0.42800000  0.37680000  0.23350000  1
  O  O329  1  0.43260000  0.76000000  0.94881000  1
  O  O330  1  0.46150000  0.84610000  0.61977000  1
  O  O331  1  0.46930000  0.93790000  0.25050000  1
  O  O332  1  0.53070000  0.06210000  0.74950000  1
  O  O333  1  0.53850000  0.15390000  0.38023000  1
  O  O334  1  0.56740000  0.24000000  0.05119000  1
  O  O335  1  0.57200000  0.62320000  0.76650000  1
  O  O336  1  0.57910000  0.82110000  0.01730000  1
  O  O337  1  0.58140000  0.23310000  0.47175000  1
  O  O338  1  0.58180000  0.78110000  0.69137000  1
  O  O339  1  0.58330000  0.74570000  0.10797000  1
  O  O340  1  0.58560000  0.20900000  0.79665000  1
  O  O341  1  0.59160000  0.73020000  0.78399000  1
  O  O342  1  0.59610000  0.92720000  0.35597000  1
  O  O343  1  0.59920000  0.12730000  0.47245000  1
  O  O344  1  0.59960000  0.28240000  0.14652000  1
  O  O345  1  0.60130000  0.79830000  0.42945000  1
  O  O346  1  0.60800000  0.12200000  0.83688000  1
  O  O347  1  0.62010000  0.98510000  0.72947000  1
  O  O348  1  0.62340000  0.16680000  0.31949000  1
  O  O349  1  0.62450000  0.39130000  0.13636000  1
  O  O350  1  0.63160000  0.90060000  0.45380000  1
  O  O351  1  0.64170000  0.16200000  0.07900000  1
  O  O352  1  0.66040000  0.84940000  0.10931000  1
  O  O353  1  0.66880000  0.82510000  0.95835000  1
  O  O354  1  0.69060000  0.86070000  0.71834000  1
  O  O355  1  0.71190000  0.01340000  0.34530000  1
  O  O356  1  0.78810000  0.48660000  0.84530000  1
  O  O357  1  0.80940000  0.63930000  0.21834000  1
  O  O358  1  0.83120000  0.67490000  0.45835000  1
  O  O359  1  0.83960000  0.65060000  0.60931000  1
  O  O360  1  0.85830000  0.33800000  0.57900000  1
  O  O361  1  0.86840000  0.59940000  0.95380000  1
  O  O362  1  0.87550000  0.10870000  0.63636000  1
  O  O363  1  0.87660000  0.33320000  0.81949000  1
  O  O364  1  0.87990000  0.51490000  0.22947000  1
  O  O365  1  0.89200000  0.37800000  0.33688000  1
  O  O366  1  0.89870000  0.70170000  0.92945000  1
  O  O367  1  0.90040000  0.21760000  0.64652000  1
  O  O368  1  0.90080000  0.37270000  0.97245000  1
  O  O369  1  0.90390000  0.57280000  0.85597000  1
  O  O370  1  0.90840000  0.76980000  0.28399000  1
  O  O371  1  0.91440000  0.29100000  0.29665000  1
  O  O372  1  0.91670000  0.75430000  0.60797000  1
  O  O373  1  0.91820000  0.71890000  0.19137000  1
  O  O374  1  0.91860000  0.26690000  0.97175000  1
  O  O375  1  0.92090000  0.67890000  0.51730000  1
  O  O376  1  0.92800000  0.87680000  0.26650000  1
  O  O377  1  0.93260000  0.26000000  0.55119000  1
  O  O378  1  0.96150000  0.34610000  0.88023000  1
  O  O379  1  0.96930000  0.43790000  0.24950000  1
