# generated using pymatgen
data_NiH16C24(NO2)2
_symmetry_space_group_name_H-M   'P 1'
_cell_length_a   25.11490000
_cell_length_b   25.76708304
_cell_length_c   25.76708304
_cell_angle_alpha   76.26068139
_cell_angle_beta   60.83379813
_cell_angle_gamma   60.83379813
_symmetry_Int_Tables_number   1
_chemical_formula_structural   NiH16C24(NO2)2
_chemical_formula_sum   'Ni16 H256 C384 N32 O64'
_cell_volume   12714.49392189
_cell_formula_units_Z   16
loop_
 _symmetry_equiv_pos_site_id
 _symmetry_equiv_pos_as_xyz
  1  'x, y, z'
loop_
 _atom_site_type_symbol
 _atom_site_label
 _atom_site_symmetry_multiplicity
 _atom_site_fract_x
 _atom_site_fract_y
 _atom_site_fract_z
 _atom_site_occupancy
  C  C0  1  0.47010000  0.68500000  0.27160000  1
  C  C1  1  0.04270000  0.77010000  0.18490000  1
  C  C2  1  0.54170000  0.76440000  0.18660000  1
  C  C3  1  0.97340000  0.68640000  0.26460000  1
  C  C4  1  0.68270000  0.66260000  0.27780000  1
  C  C5  1  0.34680000  0.77430000  0.16390000  1
  C  C6  1  0.84510000  0.77640000  0.16080000  1
  C  C7  1  0.18480000  0.66210000  0.27450000  1
  C  C8  1  0.80910000  0.26590000  0.66410000  1
  C  C9  1  0.22960000  0.16220000  0.76520000  1
  C  C10  1  0.72930000  0.16250000  0.76350000  1
  C  C11  1  0.31290000  0.26520000  0.65860000  1
  C  C12  1  0.53080000  0.63440000  0.26360000  1
  C  C13  1  0.04040000  0.76060000  0.13420000  1
  C  C14  1  0.54100000  0.75380000  0.13860000  1
  C  C15  1  0.03590000  0.63680000  0.25380000  1
  C  C16  1  0.83650000  0.78110000  0.10750000  1
  C  C17  1  0.74210000  0.60700000  0.28120000  1
  C  C18  1  0.34220000  0.77580000  0.10700000  1
  C  C19  1  0.24480000  0.60620000  0.27560000  1
  C  C20  1  0.77820000  0.10740000  0.77340000  1
  C  C21  1  0.30820000  0.27480000  0.60580000  1
  C  C22  1  0.80810000  0.27200000  0.60860000  1
  C  C23  1  0.28220000  0.10660000  0.77220000  1
  C  C24  1  0.73170000  0.55950000  0.31690000  1
  C  C25  1  0.67390000  0.11400000  0.76220000  1
  C  C26  1  0.41720000  0.26150000  0.61070000  1
  C  C27  1  0.36340000  0.80930000  0.06030000  1
  C  C28  1  0.86370000  0.81180000  0.05600000  1
  C  C29  1  0.92140000  0.25290000  0.61210000  1
  C  C30  1  0.18700000  0.11160000  0.74840000  1
  C  C31  1  0.45490000  0.65260000  0.20660000  1
  C  C32  1  0.80060000  0.75350000  0.10510000  1
  C  C33  1  0.15440000  0.70650000  0.15210000  1
  C  C34  1  0.23810000  0.55510000  0.30350000  1
  C  C35  1  0.65500000  0.70510000  0.15290000  1
  C  C36  1  0.95340000  0.65190000  0.20470000  1
  C  C37  1  0.80520000  0.60480000  0.25000000  1
  C  C38  1  0.30920000  0.60400000  0.24760000  1
  C  C39  1  0.14920000  0.21680000  0.63240000  1
  C  C40  1  0.97030000  0.13160000  0.71720000  1
  C  C41  1  0.31210000  0.74320000  0.10280000  1
  C  C42  1  0.65020000  0.21240000  0.63260000  1
  C  C43  1  0.47120000  0.13160000  0.71200000  1
  C  C44  1  0.77580000  0.05680000  0.77560000  1
  C  C45  1  0.35790000  0.27620000  0.55420000  1
  C  C46  1  0.72150000  0.05640000  0.77300000  1
  C  C47  1  0.41530000  0.27240000  0.55640000  1
  C  C48  1  0.86200000  0.26880000  0.55580000  1
  C  C49  1  0.28340000  0.05520000  0.76860000  1
  C  C50  1  0.78760000  0.50750000  0.31610000  1
  C  C51  1  0.85770000  0.81350000  0.00710000  1
  C  C52  1  0.91900000  0.26000000  0.55800000  1
  C  C53  1  0.55430000  0.59230000  0.22470000  1
  C  C54  1  0.23340000  0.05940000  0.75660000  1
  C  C55  1  0.09890000  0.72320000  0.09120000  1
  C  C56  1  0.36480000  0.80690000  0.00510000  1
  C  C57  1  0.29510000  0.31610000  0.49250000  1
  C  C58  1  0.29210000  0.50430000  0.30390000  1
  C  C59  1  0.60240000  0.71690000  0.09110000  1
  C  C60  1  0.05580000  0.59120000  0.21600000  1
  C  C61  1  0.86480000  0.99290000  0.81350000  1
  C  C62  1  0.79880000  0.75240000  0.05160000  1
  C  C63  1  0.86130000  0.55190000  0.25170000  1
  C  C64  1  0.36990000  0.99490000  0.80690000  1
  C  C65  1  0.79640000  0.30390000  0.49570000  1
  C  C66  1  0.36510000  0.54990000  0.24530000  1
  C  C67  1  0.51620000  0.60040000  0.19300000  1
  C  C68  1  0.66100000  0.69210000  0.10010000  1
  C  C69  1  0.15910000  0.69310000  0.09850000  1
  C  C70  1  0.01480000  0.59880000  0.19180000  1
  C  C71  1  0.31310000  0.73990000  0.05050000  1
  C  C72  1  0.85200000  0.50310000  0.28310000  1
  C  C73  1  0.82670000  0.78410000  0.00170000  1
  C  C74  1  0.15590000  0.21110000  0.57230000  1
  C  C75  1  0.82840000  0.99830000  0.78410000  1
  C  C76  1  0.03010000  0.07180000  0.71020000  1
  C  C77  1  0.35510000  0.28310000  0.49690000  1
  C  C78  1  0.85490000  0.27690000  0.50150000  1
  C  C79  1  0.65570000  0.20520000  0.57320000  1
  C  C80  1  0.53240000  0.07350000  0.70470000  1
  C  C81  1  0.33710000  0.77600000  0.00060000  1
  C  C82  1  0.35640000  0.49850000  0.27690000  1
  C  C83  1  0.33770000  0.99940000  0.77600000  1
  C  C84  1  0.10860000  0.19810000  0.57130000  1
  C  C85  1  0.09040000  0.07080000  0.69640000  1
  C  C86  1  0.60840000  0.19460000  0.57140000  1
  C  C87  1  0.59330000  0.07090000  0.69390000  1
  C  C88  1  0.66600000  0.53380000  0.22820000  1
  C  C89  1  0.04060000  0.72610000  0.03450000  1
  C  C90  1  0.29120000  0.31690000  0.44050000  1
  C  C91  1  0.91970000  0.94400000  0.81180000  1
  C  C92  1  0.61650000  0.53590000  0.21730000  1
  C  C93  1  0.09920000  0.71600000  0.03540000  1
  C  C94  1  0.54730000  0.71620000  0.03360000  1
  C  C95  1  0.17060000  0.53510000  0.21430000  1
  C  C96  1  0.42370000  0.93970000  0.80930000  1
  C  C97  1  0.20010000  0.22580000  0.52280000  1
  C  C98  1  0.79320000  0.30350000  0.44490000  1
  C  C99  1  0.02080000  0.02170000  0.72550000  1
  C  C100  1  0.60450000  0.70820000  0.03560000  1
  C  C101  1  0.11910000  0.53540000  0.20700000  1
  C  C102  1  0.52570000  0.02210000  0.71590000  1
  C  C103  1  0.70530000  0.21250000  0.52010000  1
  C  C104  1  0.91210000  0.44580000  0.27620000  1
  C  C105  1  0.83260000  0.77560000  0.94320000  1
  C  C106  1  0.77790000  0.77300000  0.94360000  1
  C  C107  1  0.97170000  0.44360000  0.27240000  1
  C  C108  1  0.10990000  0.19840000  0.51660000  1
  C  C109  1  0.33860000  0.76860000  0.94480000  1
  C  C110  1  0.41780000  0.44420000  0.26880000  1
  C  C111  1  0.14500000  0.01530000  0.69710000  1
  C  C112  1  0.64830000  0.01650000  0.69290000  1
  C  C113  1  0.60890000  0.19310000  0.51610000  1
  C  C114  1  0.04250000  0.72550000  0.97830000  1
  C  C115  1  0.72290000  0.47720000  0.22580000  1
  C  C116  1  0.47700000  0.44200000  0.26000000  1
  C  C117  1  0.85040000  0.94840000  0.75240000  1
  C  C118  1  0.41320000  0.25170000  0.44810000  1
  C  C119  1  0.29280000  0.75660000  0.94060000  1
  C  C120  1  0.91500000  0.24530000  0.45010000  1
  C  C121  1  0.19980000  0.22820000  0.46620000  1
  C  C122  1  0.54780000  0.71590000  0.97790000  1
  C  C123  1  0.22540000  0.47990000  0.21250000  1
  C  C124  1  0.07510000  0.96550000  0.72610000  1
  C  C125  1  0.36360000  0.94950000  0.73990000  1
  C  C126  1  0.58090000  0.96640000  0.71620000  1
  C  C127  1  0.16030000  0.69710000  0.98470000  1
  C  C128  1  0.62650000  0.48340000  0.19840000  1
  C  C129  1  0.15240000  0.21730000  0.46410000  1
  C  C130  1  0.13460000  0.96460000  0.71600000  1
  C  C131  1  0.70570000  0.21430000  0.46490000  1
  C  C132  1  0.12500000  0.48390000  0.19310000  1
  C  C133  1  0.66480000  0.69290000  0.98350000  1
  C  C134  1  0.34910000  0.28120000  0.39300000  1
  C  C135  1  0.94400000  0.89250000  0.78110000  1
  C  C136  1  0.64010000  0.96440000  0.70820000  1
  C  C137  1  0.65450000  0.20700000  0.46460000  1
  C  C138  1  0.85100000  0.27560000  0.39380000  1
  C  C139  1  0.91400000  0.39420000  0.27480000  1
  C  C140  1  0.44920000  0.89300000  0.77580000  1
  C  C141  1  0.88560000  0.77340000  0.89260000  1
  C  C142  1  0.38880000  0.77220000  0.89340000  1
  C  C143  1  0.41670000  0.39140000  0.27200000  1
  C  C144  1  0.02790000  0.38930000  0.26150000  1
  C  C145  1  0.90570000  0.89490000  0.75350000  1
  C  C146  1  0.78790000  0.76220000  0.88600000  1
  C  C147  1  0.41000000  0.25000000  0.39520000  1
  C  C148  1  0.91320000  0.24760000  0.39600000  1
  C  C149  1  0.53350000  0.38790000  0.25290000  1
  C  C150  1  0.41490000  0.89720000  0.74320000  1
  C  C151  1  0.72820000  0.42770000  0.21110000  1
  C  C152  1  0.10190000  0.71020000  0.92820000  1
  C  C153  1  0.29860000  0.74840000  0.88840000  1
  C  C154  1  0.14660000  0.22470000  0.40770000  1
  C  C155  1  0.22890000  0.42680000  0.20520000  1
  C  C156  1  0.19010000  0.90880000  0.72320000  1
  C  C157  1  0.60590000  0.70470000  0.92650000  1
  C  C158  1  0.16520000  0.26360000  0.36560000  1
  C  C159  1  0.67990000  0.42870000  0.19810000  1
  C  C160  1  0.17460000  0.86580000  0.76060000  1
  C  C161  1  0.69350000  0.90890000  0.71690000  1
  C  C162  1  0.16120000  0.69640000  0.92920000  1
  C  C163  1  0.64700000  0.21600000  0.40880000  1
  C  C164  1  0.17980000  0.42860000  0.19460000  1
  C  C165  1  0.66420000  0.69390000  0.92910000  1
  C  C166  1  0.67270000  0.25380000  0.36320000  1
  C  C167  1  0.00590000  0.83920000  0.77640000  1
  C  C168  1  0.34530000  0.27780000  0.33740000  1
  C  C169  1  0.67960000  0.86140000  0.75380000  1
  C  C170  1  0.84690000  0.27450000  0.33790000  1
  C  C171  1  0.51070000  0.83610000  0.77430000  1
  C  C172  1  0.97150000  0.34140000  0.26520000  1
  C  C173  1  0.39180000  0.76520000  0.83780000  1
  C  C174  1  0.47320000  0.33590000  0.26590000  1
  C  C175  1  0.89180000  0.76350000  0.83750000  1
  C  C176  1  0.25760000  0.90150000  0.69310000  1
  C  C177  1  0.61360000  0.19180000  0.40120000  1
  C  C178  1  0.11660000  0.19300000  0.39960000  1
  C  C179  1  0.76110000  0.89990000  0.69210000  1
  C  C180  1  0.15510000  0.27160000  0.31500000  1
  C  C181  1  0.10190000  0.71720000  0.86840000  1
  C  C182  1  0.22760000  0.81510000  0.77010000  1
  C  C183  1  0.78160000  0.36760000  0.21680000  1
  C  C184  1  0.60280000  0.71200000  0.86840000  1
  C  C185  1  0.28280000  0.36740000  0.21240000  1
  C  C186  1  0.65980000  0.26460000  0.31360000  1
  C  C187  1  0.72830000  0.81340000  0.76440000  1
  C  C188  1  0.30650000  0.84790000  0.70650000  1
  C  C189  1  0.10750000  0.20660000  0.34740000  1
  C  C190  1  0.60530000  0.20470000  0.34810000  1
  C  C191  1  0.80790000  0.84710000  0.70510000  1
  C  C192  1  0.36010000  0.15290000  0.29490000  1
  C  C193  1  0.15810000  0.79530000  0.65190000  1
  C  C194  1  0.66150000  0.79340000  0.65260000  1
  C  C195  1  0.86090000  0.15210000  0.29350000  1
  C  C196  1  0.30610000  0.18660000  0.23560000  1
  C  C197  1  0.23800000  0.73540000  0.68640000  1
  C  C198  1  0.86260000  0.63260000  0.78760000  1
  C  C199  1  0.18320000  0.28800000  0.13160000  1
  C  C200  1  0.36600000  0.63240000  0.78320000  1
  C  C201  1  0.81280000  0.18490000  0.22990000  1
  C  C202  1  0.68750000  0.28280000  0.13160000  1
  C  C203  1  0.74170000  0.72840000  0.68500000  1
  C  C204  1  0.35310000  0.10010000  0.30790000  1
  C  C205  1  0.70920000  0.80700000  0.60040000  1
  C  C206  1  0.20660000  0.80820000  0.59880000  1
  C  C207  1  0.85220000  0.09850000  0.30690000  1
  C  C208  1  0.49280000  0.23650000  0.16250000  1
  C  C209  1  0.07500000  0.66410000  0.73410000  1
  C  C210  1  0.99480000  0.23480000  0.16220000  1
  C  C211  1  0.57810000  0.65860000  0.73480000  1
  C  C212  1  0.12110000  0.16390000  0.22570000  1
  C  C213  1  0.45930000  0.72550000  0.66210000  1
  C  C214  1  0.29480000  0.13860000  0.24620000  1
  C  C215  1  0.96050000  0.72220000  0.66260000  1
  C  C216  1  0.62150000  0.16080000  0.22360000  1
  C  C217  1  0.28970000  0.74620000  0.63680000  1
  C  C218  1  0.28720000  0.30610000  0.07090000  1
  C  C219  1  0.80300000  0.57140000  0.80540000  1
  C  C220  1  0.27180000  0.78400000  0.59120000  1
  C  C221  1  0.78680000  0.30360000  0.07080000  1
  C  C222  1  0.31930000  0.09110000  0.28310000  1
  C  C223  1  0.80100000  0.13420000  0.23940000  1
  C  C224  1  0.30670000  0.57130000  0.80190000  1
  C  C225  1  0.79440000  0.73640000  0.63440000  1
  C  C226  1  0.23710000  0.29530000  0.07350000  1
  C  C227  1  0.86090000  0.57320000  0.79480000  1
  C  C228  1  0.82210000  0.09120000  0.27680000  1
  C  C229  1  0.77900000  0.77530000  0.59230000  1
  C  C230  1  0.93540000  0.25160000  0.11160000  1
  C  C231  1  0.74030000  0.28980000  0.07180000  1
  C  C232  1  0.36700000  0.57230000  0.78890000  1
  C  C233  1  0.05530000  0.10280000  0.25680000  1
  C  C234  1  0.17430000  0.61210000  0.74710000  1
  C  C235  1  0.55680000  0.75240000  0.60400000  1
  C  C236  1  0.05520000  0.75000000  0.60480000  1
  C  C237  1  0.43610000  0.23780000  0.11400000  1
  C  C238  1  0.55410000  0.10510000  0.24650000  1
  C  C239  1  0.67870000  0.61070000  0.73850000  1
  C  C240  1  0.08010000  0.60860000  0.72800000  1
  C  C241  1  0.05440000  0.22780000  0.10660000  1
  C  C242  1  0.55160000  0.22660000  0.10740000  1
  C  C243  1  0.11800000  0.10700000  0.22420000  1
  C  C244  1  0.58300000  0.60580000  0.72520000  1
  C  C245  1  0.52040000  0.72440000  0.60620000  1
  C  C246  1  0.32610000  0.79300000  0.53540000  1
  C  C247  1  0.31270000  0.03560000  0.29180000  1
  C  C248  1  0.61760000  0.10750000  0.21890000  1
  C  C249  1  0.02330000  0.71880000  0.60700000  1
  C  C250  1  0.34120000  0.30710000  0.01650000  1
  C  C251  1  0.80200000  0.51610000  0.80690000  1
  C  C252  1  0.38490000  0.78570000  0.53510000  1
  C  C253  1  0.81520000  0.03540000  0.28400000  1
  C  C254  1  0.83380000  0.78270000  0.53590000  1
  C  C255  1  0.30830000  0.51660000  0.80160000  1
  C  C256  1  0.84210000  0.30290000  0.01530000  1
  C  C257  1  0.26350000  0.03360000  0.28380000  1
  C  C258  1  0.05300000  0.05050000  0.26010000  1
  C  C259  1  0.76670000  0.03450000  0.27390000  1
  C  C260  1  0.91780000  0.52010000  0.78750000  1
  C  C261  1  0.24160000  0.28410000  0.02210000  1
  C  C262  1  0.89420000  0.77180000  0.53380000  1
  C  C263  1  0.61040000  0.75470000  0.54990000  1
  C  C264  1  0.99000000  0.24340000  0.05940000  1
  C  C265  1  0.11300000  0.74830000  0.55190000  1
  C  C266  1  0.55120000  0.05160000  0.24760000  1
  C  C267  1  0.17900000  0.55800000  0.74000000  1
  C  C268  1  0.42590000  0.52280000  0.77420000  1
  C  C269  1  0.74630000  0.27450000  0.02170000  1
  C  C270  1  0.31810000  0.80690000  0.48390000  1
  C  C271  1  0.35770000  0.98350000  0.30710000  1
  C  C272  1  0.85740000  0.98470000  0.30290000  1
  C  C273  1  0.13080000  0.55580000  0.73120000  1
  C  C274  1  0.05200000  0.23140000  0.05520000  1
  C  C275  1  0.82490000  0.80160000  0.48340000  1
  C  C276  1  0.68770000  0.55640000  0.72760000  1
  C  C277  1  0.49450000  0.22700000  0.05640000  1
  C  C278  1  0.55140000  0.22440000  0.05680000  1
  C  C279  1  0.63410000  0.55420000  0.72380000  1
  C  C280  1  0.43790000  0.78750000  0.47990000  1
  C  C281  1  0.26370000  0.97790000  0.28410000  1
  C  C282  1  0.86150000  0.46460000  0.79300000  1
  C  C283  1  0.34830000  0.29180000  0.96440000  1
  C  C284  1  0.76800000  0.97830000  0.27450000  1
  C  C285  1  0.54160000  0.69650000  0.55510000  1
  C  C286  1  0.94870000  0.77420000  0.47720000  1
  C  C287  1  0.17270000  0.06030000  0.19070000  1
  C  C288  1  0.92000000  0.46490000  0.78570000  1
  C  C289  1  0.29710000  0.28380000  0.96640000  1
  C  C290  1  0.85060000  0.28400000  0.96460000  1
  C  C291  1  0.36970000  0.46410000  0.78270000  1
  C  C292  1  0.67550000  0.05600000  0.18820000  1
  C  C293  1  0.04860000  0.68310000  0.55950000  1
  C  C294  1  0.80120000  0.27390000  0.96550000  1
  C  C295  1  0.42800000  0.46620000  0.77180000  1
  C  C296  1  0.35810000  0.92910000  0.30610000  1
  C  C297  1  0.37440000  0.80540000  0.42860000  1
  C  C298  1  0.85760000  0.92920000  0.30360000  1
  C  C299  1  0.87800000  0.80190000  0.42870000  1
  C  C300  1  0.13180000  0.50150000  0.72310000  1
  C  C301  1  0.11310000  0.00060000  0.22400000  1
  C  C302  1  0.11370000  0.22400000  0.99940000  1
  C  C303  1  0.31060000  0.92650000  0.29530000  1
  C  C304  1  0.43410000  0.79480000  0.42680000  1
  C  C305  1  0.63330000  0.72310000  0.49850000  1
  C  C306  1  0.13510000  0.71690000  0.50310000  1
  C  C307  1  0.81210000  0.92820000  0.28980000  1
  C  C308  1  0.61080000  0.00170000  0.21590000  1
  C  C309  1  0.93930000  0.78890000  0.42770000  1
  C  C310  1  0.61250000  0.21590000  0.99830000  1
  C  C311  1  0.63820000  0.49690000  0.71690000  1
  C  C312  1  0.10350000  0.26010000  0.94950000  1
  C  C313  1  0.80540000  0.40120000  0.80820000  1
  C  C314  1  0.95070000  0.30690000  0.90150000  1
  C  C315  1  0.45320000  0.30790000  0.89990000  1
  C  C316  1  0.30960000  0.39960000  0.80700000  1
  C  C317  1  0.16030000  0.45010000  0.75470000  1
  C  C318  1  0.59600000  0.69610000  0.50430000  1
  C  C319  1  0.17170000  0.00510000  0.19310000  1
  C  C320  1  0.66490000  0.44810000  0.74830000  1
  C  C321  1  0.60280000  0.24760000  0.94840000  1
  C  C322  1  0.67120000  0.00710000  0.18650000  1
  C  C323  1  0.86300000  0.40880000  0.78400000  1
  C  C324  1  0.41040000  0.28310000  0.90890000  1
  C  C325  1  0.10030000  0.49570000  0.69610000  1
  C  C326  1  0.10370000  0.68390000  0.50750000  1
  C  C327  1  0.17680000  0.19310000  0.99490000  1
  C  C328  1  0.91330000  0.27680000  0.90880000  1
  C  C329  1  0.04940000  0.94060000  0.24340000  1
  C  C330  1  0.37130000  0.40770000  0.77530000  1
  C  C331  1  0.73700000  0.74000000  0.44200000  1
  C  C332  1  0.67830000  0.18650000  0.99290000  1
  C  C333  1  0.61120000  0.49250000  0.68390000  1
  C  C334  1  0.10720000  0.94480000  0.23140000  1
  C  C335  1  0.68660000  0.73120000  0.44420000  1
  C  C336  1  0.24410000  0.72760000  0.44360000  1
  C  C337  1  0.55090000  0.94360000  0.22700000  1
  C  C338  1  0.18830000  0.72380000  0.44580000  1
  C  C339  1  0.60820000  0.94320000  0.22440000  1
  C  C340  1  0.31480000  0.86840000  0.28800000  1
  C  C341  1  0.49520000  0.78760000  0.36740000  1
  C  C342  1  0.15810000  0.25680000  0.89720000  1
  C  C343  1  0.81910000  0.86840000  0.28280000  1
  C  C344  1  0.99840000  0.78320000  0.36760000  1
  C  C345  1  0.16080000  0.39600000  0.75240000  1
  C  C346  1  0.66000000  0.39520000  0.75000000  1
  C  C347  1  0.81000000  0.34810000  0.79530000  1
  C  C348  1  0.51300000  0.29490000  0.84710000  1
  C  C349  1  0.09670000  0.44490000  0.69650000  1
  C  C350  1  0.01300000  0.29350000  0.84790000  1
  C  C351  1  0.65920000  0.24650000  0.89490000  1
  C  C352  1  0.31410000  0.34740000  0.79340000  1
  C  C353  1  0.04700000  0.88840000  0.25160000  1
  C  C354  1  0.78640000  0.74710000  0.38790000  1
  C  C355  1  0.73150000  0.18820000  0.94400000  1
  C  C356  1  0.23300000  0.19070000  0.93970000  1
  C  C357  1  0.28940000  0.73850000  0.38930000  1
  C  C358  1  0.55010000  0.88600000  0.23780000  1
  C  C359  1  0.60810000  0.44050000  0.68310000  1
  C  C360  1  0.16100000  0.89340000  0.22780000  1
  C  C361  1  0.68870000  0.72800000  0.39140000  1
  C  C362  1  0.18880000  0.72520000  0.39420000  1
  C  C363  1  0.65900000  0.89260000  0.22660000  1
  C  C364  1  0.12660000  0.39380000  0.72440000  1
  C  C365  1  0.22500000  0.22420000  0.89300000  1
  C  C366  1  0.63030000  0.39300000  0.71880000  1
  C  C367  1  0.72510000  0.21890000  0.89250000  1
  C  C368  1  0.92650000  0.36320000  0.74620000  1
  C  C369  1  0.43340000  0.24620000  0.86140000  1
  C  C370  1  0.93520000  0.23940000  0.86580000  1
  C  C371  1  0.42880000  0.36560000  0.73640000  1
  C  C372  1  0.23670000  0.73480000  0.34140000  1
  C  C373  1  0.65530000  0.83750000  0.23650000  1
  C  C374  1  0.15700000  0.83780000  0.23480000  1
  C  C375  1  0.73910000  0.73410000  0.33590000  1
  C  C376  1  0.12140000  0.33790000  0.72550000  1
  C  C377  1  0.78230000  0.22360000  0.83920000  1
  C  C378  1  0.28500000  0.22570000  0.83610000  1
  C  C379  1  0.62310000  0.33740000  0.72220000  1
  C  C380  1  0.92440000  0.31360000  0.73540000  1
  C  C381  1  0.49270000  0.23560000  0.81340000  1
  C  C382  1  0.99770000  0.22990000  0.81510000  1
  C  C383  1  0.42670000  0.31500000  0.72840000  1
  H  H384  1  0.96590000  0.28380000  0.70980000  1
  H  H385  1  0.50630000  0.20980000  0.78380000  1
  H  H386  1  0.01340000  0.20290000  0.78590000  1
  H  H387  1  0.46780000  0.28540000  0.70200000  1
  H  H388  1  0.77000000  0.26990000  0.70030000  1
  H  H389  1  0.22810000  0.19880000  0.76880000  1
  H  H390  1  0.73170000  0.19840000  0.76240000  1
  H  H391  1  0.27490000  0.26510000  0.69430000  1
  H  H392  1  0.55500000  0.62960000  0.28480000  1
  H  H393  1  0.99920000  0.77960000  0.13040000  1
  H  H394  1  0.49930000  0.77080000  0.13600000  1
  H  H395  1  0.06380000  0.63340000  0.27060000  1
  H  H396  1  0.68710000  0.56280000  0.34120000  1
  H  H397  1  0.37790000  0.83540000  0.06420000  1
  H  H398  1  0.88700000  0.83170000  0.05630000  1
  H  H399  1  0.26730000  0.28080000  0.60660000  1
  H  H400  1  0.76760000  0.27860000  0.60820000  1
  H  H401  1  0.31580000  0.10680000  0.77940000  1
  H  H402  1  0.81340000  0.10690000  0.77850000  1
  H  H403  1  0.19440000  0.55570000  0.32290000  1
  H  H404  1  0.63640000  0.11580000  0.76000000  1
  H  H405  1  0.77760000  0.73570000  0.13990000  1
  H  H406  1  0.45640000  0.25750000  0.61170000  1
  H  H407  1  0.31540000  0.63870000  0.23010000  1
  H  H408  1  0.81140000  0.63810000  0.22750000  1
  H  H409  1  0.25570000  0.33890000  0.52550000  1
  H  H410  1  0.84980000  0.02570000  0.83590000  1
  H  H411  1  0.29120000  0.72350000  0.13690000  1
  H  H412  1  0.96150000  0.24710000  0.61250000  1
  H  H413  1  0.35670000  0.02870000  0.82710000  1
  H  H414  1  0.75540000  0.32430000  0.52910000  1
  H  H415  1  0.15530000  0.11190000  0.73810000  1
  H  H416  1  0.69460000  0.68700000  0.15920000  1
  H  H417  1  0.42810000  0.65830000  0.18770000  1
  H  H418  1  0.19440000  0.68750000  0.15790000  1
  H  H419  1  0.92590000  0.65750000  0.18650000  1
  H  H420  1  0.78120000  0.47450000  0.33890000  1
  H  H421  1  0.87550000  0.83590000  0.97430000  1
  H  H422  1  0.66280000  0.56910000  0.23730000  1
  H  H423  1  0.99990000  0.73340000  0.07020000  1
  H  H424  1  0.45110000  0.27750000  0.52150000  1
  H  H425  1  0.71650000  0.02110000  0.77770000  1
  H  H426  1  0.38540000  0.82710000  0.97130000  1
  H  H427  1  0.07630000  0.18940000  0.60700000  1
  H  H428  1  0.57470000  0.18820000  0.60740000  1
  H  H429  1  0.28450000  0.47090000  0.32430000  1
  H  H430  1  0.59810000  0.10660000  0.68700000  1
  H  H431  1  0.09580000  0.10640000  0.68660000  1
  H  H432  1  0.50710000  0.72200000  0.06940000  1
  H  H433  1  0.16890000  0.57100000  0.22020000  1
  H  H434  1  0.90560000  0.55000000  0.23120000  1
  H  H435  1  0.95750000  0.25870000  0.52210000  1
  H  H436  1  0.77880000  0.73040000  0.04920000  1
  H  H437  1  0.24990000  0.34120000  0.43720000  1
  H  H438  1  0.23200000  0.02390000  0.75410000  1
  H  H439  1  0.94330000  0.94370000  0.83170000  1
  H  H440  1  0.44210000  0.93580000  0.83540000  1
  H  H441  1  0.40960000  0.54730000  0.22250000  1
  H  H442  1  0.75010000  0.32290000  0.44430000  1
  H  H443  1  0.29800000  0.71430000  0.04670000  1
  H  H444  1  0.97800000  0.02400000  0.73560000  1
  H  H445  1  0.23170000  0.23460000  0.52480000  1
  H  H446  1  0.73760000  0.77770000  0.97890000  1
  H  H447  1  0.97260000  0.47850000  0.27750000  1
  H  H448  1  0.48400000  0.02330000  0.72370000  1
  H  H449  1  0.70380000  0.66710000  0.07090000  1
  H  H450  1  0.53170000  0.57230000  0.16490000  1
  H  H451  1  0.74060000  0.21640000  0.52080000  1
  H  H452  1  0.47960000  0.47790000  0.25870000  1
  H  H453  1  0.02700000  0.56920000  0.16680000  1
  H  H454  1  0.20000000  0.66570000  0.06990000  1
  H  H455  1  0.25590000  0.75410000  0.97610000  1
  H  H456  1  0.00200000  0.73560000  0.97600000  1
  H  H457  1  0.75650000  0.47520000  0.23460000  1
  H  H458  1  0.50730000  0.72370000  0.97670000  1
  H  H459  1  0.08150000  0.18550000  0.51450000  1
  H  H460  1  0.57790000  0.18280000  0.51500000  1
  H  H461  1  0.18840000  0.01310000  0.68470000  1
  H  H462  1  0.69100000  0.01530000  0.68170000  1
  H  H463  1  0.26140000  0.47920000  0.21640000  1
  H  H464  1  0.45560000  0.23120000  0.45000000  1
  H  H465  1  0.82800000  0.95080000  0.73040000  1
  H  H466  1  0.95690000  0.22250000  0.45270000  1
  H  H467  1  0.87390000  0.39340000  0.28080000  1
  H  H468  1  0.42260000  0.77940000  0.89320000  1
  H  H469  1  0.92030000  0.77850000  0.89310000  1
  H  H470  1  0.20150000  0.68470000  0.98690000  1
  H  H471  1  0.59600000  0.48550000  0.18550000  1
  H  H472  1  0.37580000  0.39180000  0.27860000  1
  H  H473  1  0.23190000  0.23730000  0.43090000  1
  H  H474  1  0.09290000  0.48500000  0.18280000  1
  H  H475  1  0.34470000  0.95330000  0.71430000  1
  H  H476  1  0.70630000  0.68170000  0.98470000  1
  H  H477  1  0.07010000  0.92980000  0.73340000  1
  H  H478  1  0.18460000  0.28480000  0.37040000  1
  H  H479  1  0.57650000  0.93060000  0.72200000  1
  H  H480  1  0.73990000  0.22020000  0.42900000  1
  H  H481  1  0.12960000  0.86960000  0.77960000  1
  H  H482  1  0.06810000  0.38830000  0.25750000  1
  H  H483  1  0.75220000  0.76000000  0.88420000  1
  H  H484  1  0.69720000  0.27060000  0.36660000  1
  H  H485  1  0.63530000  0.86400000  0.77080000  1
  H  H486  1  0.57400000  0.38750000  0.24710000  1
  H  H487  1  0.26720000  0.73810000  0.88810000  1
  H  H488  1  0.59620000  0.16680000  0.43080000  1
  H  H489  1  0.77470000  0.92910000  0.66710000  1
  H  H490  1  0.26990000  0.93010000  0.66570000  1
  H  H491  1  0.91750000  0.86010000  0.73570000  1
  H  H492  1  0.10400000  0.16490000  0.42770000  1
  H  H493  1  0.95410000  0.23010000  0.36130000  1
  H  H494  1  0.44950000  0.22750000  0.36190000  1
  H  H495  1  0.42810000  0.86310000  0.72350000  1
  H  H496  1  0.16980000  0.29800000  0.28540000  1
  H  H497  1  0.21630000  0.78590000  0.79710000  1
  H  H498  1  0.68330000  0.39300000  0.18940000  1
  H  H499  1  0.18210000  0.39260000  0.18820000  1
  H  H500  1  0.70470000  0.68700000  0.89340000  1
  H  H501  1  0.20220000  0.68660000  0.89360000  1
  H  H502  1  0.71610000  0.78380000  0.79020000  1
  H  H503  1  0.67570000  0.29020000  0.28380000  1
  H  H504  1  0.96920000  0.30570000  0.26510000  1
  H  H505  1  0.42690000  0.76880000  0.80120000  1
  H  H506  1  0.47030000  0.29970000  0.26990000  1
  H  H507  1  0.93010000  0.76240000  0.80160000  1
  H  H508  1  0.35230000  0.84210000  0.68750000  1
  H  H509  1  0.08640000  0.18770000  0.34170000  1
  H  H510  1  0.58340000  0.18650000  0.34250000  1
  H  H511  1  0.85380000  0.84080000  0.68700000  1
  H  H512  1  0.38160000  0.15920000  0.31300000  1
  H  H513  1  0.11240000  0.81350000  0.65750000  1
  H  H514  1  0.61580000  0.81230000  0.65830000  1
  H  H515  1  0.88190000  0.15790000  0.31250000  1
  H  H516  1  0.49410000  0.23760000  0.19840000  1
  H  H517  1  0.03990000  0.70030000  0.73010000  1
  H  H518  1  0.99690000  0.23120000  0.19880000  1
  H  H519  1  0.54000000  0.69430000  0.73490000  1
  H  H520  1  0.24970000  0.70980000  0.71620000  1
  H  H521  1  0.29010000  0.21620000  0.20980000  1
  H  H522  1  0.78240000  0.31340000  0.10640000  1
  H  H523  1  0.28510000  0.31300000  0.10660000  1
  H  H524  1  0.76290000  0.60740000  0.81180000  1
  H  H525  1  0.26570000  0.60700000  0.81060000  1
  H  H526  1  0.79930000  0.21410000  0.20290000  1
  H  H527  1  0.75320000  0.70200000  0.71460000  1
  H  H528  1  0.01470000  0.13690000  0.27650000  1
  H  H529  1  0.03890000  0.77250000  0.63810000  1
  H  H530  1  0.54550000  0.76990000  0.63870000  1
  H  H531  1  0.69660000  0.83510000  0.57230000  1
  H  H532  1  0.51330000  0.13990000  0.26430000  1
  H  H533  1  0.86570000  0.06990000  0.33430000  1
  H  H534  1  0.37090000  0.07090000  0.33290000  1
  H  H535  1  0.19380000  0.83320000  0.56920000  1
  H  H536  1  0.89340000  0.26190000  0.11190000  1
  H  H537  1  0.20860000  0.61250000  0.75290000  1
  H  H538  1  0.27010000  0.13600000  0.22920000  1
  H  H539  1  0.33440000  0.72940000  0.63340000  1
  H  H540  1  0.39640000  0.24000000  0.11580000  1
  H  H541  1  0.71390000  0.61170000  0.74250000  1
  H  H542  1  0.77880000  0.13040000  0.22040000  1
  H  H543  1  0.38910000  0.77980000  0.57100000  1
  H  H544  1  0.22910000  0.06940000  0.27800000  1
  H  H545  1  0.83980000  0.71520000  0.62960000  1
  H  H546  1  0.73330000  0.07020000  0.26660000  1
  H  H547  1  0.37270000  0.31830000  0.01530000  1
  H  H548  1  0.01230000  0.04670000  0.28570000  1
  H  H549  1  0.76070000  0.51500000  0.81720000  1
  H  H550  1  0.90010000  0.76270000  0.56910000  1
  H  H551  1  0.04620000  0.60820000  0.72140000  1
  H  H552  1  0.26700000  0.51450000  0.81450000  1
  H  H553  1  0.87310000  0.31530000  0.01310000  1
  H  H554  1  0.59190000  0.22150000  0.10690000  1
  H  H555  1  0.09520000  0.22060000  0.10680000  1
  H  H556  1  0.54810000  0.60660000  0.71920000  1
  H  H557  1  0.63210000  0.77750000  0.54730000  1
  H  H558  1  0.50920000  0.04920000  0.26960000  1
  H  H559  1  0.13680000  0.76880000  0.55000000  1
  H  H560  1  0.95700000  0.52080000  0.78360000  1
  H  H561  1  0.38800000  0.98470000  0.31830000  1
  H  H562  1  0.88620000  0.98690000  0.31530000  1
  H  H563  1  0.27570000  0.81720000  0.48500000  1
  H  H564  1  0.78150000  0.81450000  0.48550000  1
  H  H565  1  0.20770000  0.27630000  0.02330000  1
  H  H566  1  0.46630000  0.52480000  0.76540000  1
  H  H567  1  0.71360000  0.26440000  0.02400000  1
  H  H568  1  0.98610000  0.24590000  0.02390000  1
  H  H569  1  0.93560000  0.33430000  0.93010000  1
  H  H570  1  0.76300000  0.43080000  0.83320000  1
  H  H571  1  0.21620000  0.52210000  0.74130000  1
  H  H572  1  0.26890000  0.42770000  0.83510000  1
  H  H573  1  0.47780000  0.78360000  0.47920000  1
  H  H574  1  0.44180000  0.33290000  0.92910000  1
  H  H575  1  0.23100000  0.97670000  0.27630000  1
  H  H576  1  0.72860000  0.52150000  0.72250000  1
  H  H577  1  0.49420000  0.22230000  0.02110000  1
  H  H578  1  0.99110000  0.76540000  0.47520000  1
  H  H579  1  0.73760000  0.97600000  0.26440000  1
  H  H580  1  0.05900000  0.28570000  0.95330000  1
  H  H581  1  0.51730000  0.67710000  0.55570000  1
  H  H582  1  0.17940000  0.45270000  0.77750000  1
  H  H583  1  0.21330000  0.06420000  0.16460000  1
  H  H584  1  0.71870000  0.05630000  0.16830000  1
  H  H585  1  0.01000000  0.97610000  0.24590000  1
  H  H586  1  0.02830000  0.65880000  0.56280000  1
  H  H587  1  0.55840000  0.26960000  0.95080000  1
  H  H588  1  0.73830000  0.74130000  0.47790000  1
  H  H589  1  0.68680000  0.45000000  0.76880000  1
  H  H590  1  0.96010000  0.42900000  0.77980000  1
  H  H591  1  0.29850000  0.27800000  0.93060000  1
  H  H592  1  0.88880000  0.89360000  0.31340000  1
  H  H593  1  0.39170000  0.89340000  0.31300000  1
  H  H594  1  0.07970000  0.52910000  0.67570000  1
  H  H595  1  0.37030000  0.81180000  0.39260000  1
  H  H596  1  0.87270000  0.81060000  0.39300000  1
  H  H597  1  0.18380000  0.17290000  0.02870000  1
  H  H598  1  0.51530000  0.97890000  0.22230000  1
  H  H599  1  0.25010000  0.72250000  0.47850000  1
  H  H600  1  0.80350000  0.26660000  0.92980000  1
  H  H601  1  0.46920000  0.43090000  0.76270000  1
  H  H602  1  0.68570000  0.16410000  0.02570000  1
  H  H603  1  0.59460000  0.52550000  0.66110000  1
  H  H604  1  0.76990000  0.34250000  0.81350000  1
  H  H605  1  0.03980000  0.31250000  0.84210000  1
  H  H606  1  0.27410000  0.34170000  0.81230000  1
  H  H607  1  0.54080000  0.31300000  0.84080000  1
  H  H608  1  0.00530000  0.88810000  0.26190000  1
  H  H609  1  0.60880000  0.67570000  0.47090000  1
  H  H610  1  0.21250000  0.97130000  0.17290000  1
  H  H611  1  0.82110000  0.75290000  0.38750000  1
  H  H612  1  0.15160000  0.27650000  0.86310000  1
  H  H613  1  0.71140000  0.97430000  0.16410000  1
  H  H614  1  0.12010000  0.66110000  0.47450000  1
  H  H615  1  0.67700000  0.36190000  0.77250000  1
  H  H616  1  0.18420000  0.36130000  0.76990000  1
  H  H617  1  0.32560000  0.74250000  0.38830000  1
  H  H618  1  0.65320000  0.26430000  0.86010000  1
  H  H619  1  0.51220000  0.88420000  0.24000000  1
  H  H620  1  0.07300000  0.44430000  0.67710000  1
  H  H621  1  0.69880000  0.89310000  0.22150000  1
  H  H622  1  0.20200000  0.89320000  0.22060000  1
  H  H623  1  0.65440000  0.72140000  0.39180000  1
  H  H624  1  0.15470000  0.71920000  0.39340000  1
  H  H625  1  0.77500000  0.16830000  0.94370000  1
  H  H626  1  0.27750000  0.16460000  0.93580000  1
  H  H627  1  0.59110000  0.43720000  0.65880000  1
  H  H628  1  0.96780000  0.36660000  0.72940000  1
  H  H629  1  0.40610000  0.22920000  0.86400000  1
  H  H630  1  0.90920000  0.22040000  0.86960000  1
  H  H631  1  0.46940000  0.37040000  0.71520000  1
  H  H632  1  0.23430000  0.73490000  0.30570000  1
  H  H633  1  0.69250000  0.80160000  0.23760000  1
  H  H634  1  0.19570000  0.80120000  0.23120000  1
  H  H635  1  0.74020000  0.73010000  0.29970000  1
  H  H636  1  0.45520000  0.71460000  0.29800000  1
  H  H637  1  0.00220000  0.79710000  0.21410000  1
  H  H638  1  0.49990000  0.79020000  0.21620000  1
  H  H639  1  0.95950000  0.71620000  0.29020000  1
  N  N640  1  0.43090000  0.69570000  0.24530000  1
  N  N641  1  0.09810000  0.74360000  0.19420000  1
  N  N642  1  0.59630000  0.74160000  0.19600000  1
  N  N643  1  0.93180000  0.69520000  0.24200000  1
  N  N644  1  0.67910000  0.16350000  0.75550000  1
  N  N645  1  0.36760000  0.25590000  0.66210000  1
  N  N646  1  0.86870000  0.25400000  0.66360000  1
  N  N647  1  0.18380000  0.16230000  0.75410000  1
  N  N648  1  0.02970000  0.33790000  0.25590000  1
  N  N649  1  0.84260000  0.75550000  0.83650000  1
  N  N650  1  0.34610000  0.75410000  0.83770000  1
  N  N651  1  0.53230000  0.33640000  0.25400000  1
  N  N652  1  0.12660000  0.24530000  0.30430000  1
  N  N653  1  0.29230000  0.80580000  0.74360000  1
  N  N654  1  0.62700000  0.24200000  0.30480000  1
  N  N655  1  0.79230000  0.80400000  0.74160000  1
  N  N656  1  0.33790000  0.19600000  0.25840000  1
  N  N657  1  0.17380000  0.75800000  0.69520000  1
  N  N658  1  0.84170000  0.19420000  0.25640000  1
  N  N659  1  0.67620000  0.75470000  0.69570000  1
  N  N660  1  0.12270000  0.66360000  0.74600000  1
  N  N661  1  0.93790000  0.24590000  0.16230000  1
  N  N662  1  0.43460000  0.24450000  0.16350000  1
  N  N663  1  0.62350000  0.66210000  0.74410000  1
  N  N664  1  0.10020000  0.83770000  0.24590000  1
  N  N665  1  0.78630000  0.74600000  0.33640000  1
  N  N666  1  0.28560000  0.74410000  0.33790000  1
  N  N667  1  0.59810000  0.83650000  0.24450000  1
  N  N668  1  0.86900000  0.30480000  0.75800000  1
  N  N669  1  0.53390000  0.25840000  0.80400000  1
  N  N670  1  0.03590000  0.25640000  0.80580000  1
  N  N671  1  0.37190000  0.30430000  0.75470000  1
  Ni  Ni672  1  0.87290000  0.22915000  0.74425000  1
  Ni  Ni673  1  0.12259000  0.24285000  0.72961000  1
  Ni  Ni674  1  0.62178000  0.24196000  0.72854000  1
  Ni  Ni675  1  0.37478000  0.22911000  0.74075000  1
  Ni  Ni676  1  0.10205000  0.74425000  0.77085000  1
  Ni  Ni677  1  0.35032000  0.27146000  0.24196000  1
  Ni  Ni678  1  0.85220000  0.27039000  0.24285000  1
  Ni  Ni679  1  0.60389000  0.74075000  0.77089000  1
  Ni  Ni680  1  0.11553000  0.25925000  0.22911000  1
  Ni  Ni681  1  0.36544000  0.72961000  0.75715000  1
  Ni  Ni682  1  0.86374000  0.72854000  0.75804000  1
  Ni  Ni683  1  0.61715000  0.25575000  0.22915000  1
  Ni  Ni684  1  0.34464000  0.77089000  0.25925000  1
  Ni  Ni685  1  0.59228000  0.75804000  0.27146000  1
  Ni  Ni686  1  0.09505000  0.75715000  0.27039000  1
  Ni  Ni687  1  0.84630000  0.77085000  0.25575000  1
  O  O688  1  0.62350000  0.66460000  0.30040000  1
  O  O689  1  0.38050000  0.79590000  0.16530000  1
  O  O690  1  0.69220000  0.70750000  0.25190000  1
  O  O691  1  0.31680000  0.74960000  0.20880000  1
  O  O692  1  0.88070000  0.79720000  0.16100000  1
  O  O693  1  0.81470000  0.75030000  0.20630000  1
  O  O694  1  0.12690000  0.66370000  0.29290000  1
  O  O695  1  0.19500000  0.70740000  0.24880000  1
  O  O696  1  0.97560000  0.17820000  0.71340000  1
  O  O697  1  0.10130000  0.21260000  0.67860000  1
  O  O698  1  0.47640000  0.17880000  0.70980000  1
  O  O699  1  0.60040000  0.21040000  0.67800000  1
  O  O700  1  0.91310000  0.13500000  0.72780000  1
  O  O701  1  0.19260000  0.22770000  0.63450000  1
  O  O702  1  0.41650000  0.13430000  0.72290000  1
  O  O703  1  0.69430000  0.22210000  0.63350000  1
  O  O704  1  0.04170000  0.83900000  0.79720000  1
  O  O705  1  0.28810000  0.30040000  0.33540000  1
  O  O706  1  0.54580000  0.83470000  0.79590000  1
  O  O707  1  0.79060000  0.29290000  0.33630000  1
  O  O708  1  0.82710000  0.36550000  0.22770000  1
  O  O709  1  0.04810000  0.72780000  0.86500000  1
  O  O710  1  0.55080000  0.72290000  0.86570000  1
  O  O711  1  0.32780000  0.36650000  0.22210000  1
  O  O712  1  0.39970000  0.25190000  0.29250000  1
  O  O713  1  0.02100000  0.79370000  0.75030000  1
  O  O714  1  0.90240000  0.24880000  0.29260000  1
  O  O715  1  0.52560000  0.79120000  0.74960000  1
  O  O716  1  0.15380000  0.71340000  0.82180000  1
  O  O717  1  0.77990000  0.32140000  0.21260000  1
  O  O718  1  0.27840000  0.32200000  0.21040000  1
  O  O719  1  0.65520000  0.70980000  0.82120000  1
  O  O720  1  0.18620000  0.29020000  0.17880000  1
  O  O721  1  0.81080000  0.67800000  0.78960000  1
  O  O722  1  0.31390000  0.67860000  0.78740000  1
  O  O723  1  0.68900000  0.28660000  0.17820000  1
  O  O724  1  0.06640000  0.20880000  0.25040000  1
  O  O725  1  0.44380000  0.75120000  0.70740000  1
  O  O726  1  0.56500000  0.20630000  0.24970000  1
  O  O727  1  0.94410000  0.74810000  0.70750000  1
  O  O728  1  0.91640000  0.63350000  0.77790000  1
  O  O729  1  0.13940000  0.27710000  0.13430000  1
  O  O730  1  0.64090000  0.27220000  0.13500000  1
  O  O731  1  0.42030000  0.63450000  0.77230000  1
  O  O732  1  0.41980000  0.70710000  0.66370000  1
  O  O733  1  0.17640000  0.16530000  0.20410000  1
  O  O734  1  0.92390000  0.69960000  0.66460000  1
  O  O735  1  0.67790000  0.16100000  0.20280000  1
  O  O736  1  0.54990000  0.77790000  0.36650000  1
  O  O737  1  0.27370000  0.86570000  0.27710000  1
  O  O738  1  0.05480000  0.77230000  0.36550000  1
  O  O739  1  0.77590000  0.86500000  0.27220000  1
  O  O740  1  0.48880000  0.78960000  0.32200000  1
  O  O741  1  0.36500000  0.82120000  0.29020000  1
  O  O742  1  0.99250000  0.78740000  0.32140000  1
  O  O743  1  0.86720000  0.82180000  0.28660000  1
  O  O744  1  0.15120000  0.29260000  0.75120000  1
  O  O745  1  0.08350000  0.33630000  0.70710000  1
  O  O746  1  0.77130000  0.24970000  0.79370000  1
  O  O747  1  0.83890000  0.20280000  0.83900000  1
  O  O748  1  0.27520000  0.25040000  0.79120000  1
  O  O749  1  0.65160000  0.29250000  0.74810000  1
  O  O750  1  0.34170000  0.20410000  0.83470000  1
  O  O751  1  0.58850000  0.33540000  0.69960000  1
