# generated using pymatgen
data_Dy52Zn3H220C320(N23O114)2
_symmetry_space_group_name_H-M   'P 1'
_cell_length_a   21.10700000
_cell_length_b   21.18500000
_cell_length_c   36.32300000
_cell_angle_alpha   89.00100000
_cell_angle_beta   82.48600000
_cell_angle_gamma   68.35900000
_symmetry_Int_Tables_number   1
_chemical_formula_structural   Dy52Zn3H220C320(N23O114)2
_chemical_formula_sum   'Dy52 Zn3 H220 C320 N46 O228'
_cell_volume   14959.05270595
_cell_formula_units_Z   1
loop_
 _symmetry_equiv_pos_site_id
 _symmetry_equiv_pos_as_xyz
  1  'x, y, z'
loop_
 _atom_site_type_symbol
 _atom_site_label
 _atom_site_symmetry_multiplicity
 _atom_site_fract_x
 _atom_site_fract_y
 _atom_site_fract_z
 _atom_site_occupancy
  Dy  Dy0  1  0.00507000  0.25325000  0.18013000  1
  Dy  Dy1  1  0.07711000  0.85175000  0.76456000  1
  Dy  Dy2  1  0.10994000  0.18719000  0.72946000  1
  Dy  Dy3  1  0.11215000  0.01079000  0.73195000  1
  Dy  Dy4  1  0.12647000  0.87345000  0.65913000  1
  Dy  Dy5  1  0.13964000  0.79225000  0.85536000  1
  Dy  Dy6  1  0.16663000  0.97045000  0.88011000  1
  Dy  Dy7  1  0.17981000  0.66536000  0.77749000  1
  Dy  Dy8  1  0.21559000  0.06460000  0.79400000  1
  Dy  Dy9  1  0.27193000  0.59552000  0.67891000  1
  Dy  Dy10  1  0.27459000  0.03940000  0.69137000  1
  Dy  Dy11  1  0.32229000  0.68510000  0.90012000  1
  Dy  Dy12  1  0.32249000  0.74466000  0.62108000  1
  Dy  Dy13  1  0.35590000  0.95003000  0.85166000  1
  Dy  Dy14  1  0.36884000  0.53591000  0.76603000  1
  Dy  Dy15  1  0.38170000  0.30609000  0.28391000  1
  Dy  Dy16  1  0.39484000  0.87682000  0.63078000  1
  Dy  Dy17  1  0.45400000  0.59495000  0.22395000  1
  Dy  Dy18  1  0.45877000  0.76196000  0.86257000  1
  Dy  Dy19  1  0.46866000  0.96429000  0.69841000  1
  Dy  Dy20  1  0.47000000  0.75894000  0.54858000  1
  Dy  Dy21  1  0.47138000  0.43682000  0.27715000  1
  Dy  Dy22  1  0.47596000  0.58212000  0.82672000  1
  Dy  Dy23  1  0.47745000  0.13990000  0.20716000  1
  Dy  Dy24  1  0.48875000  0.10452000  0.09994000  1
  Dy  Dy25  1  0.49990000  0.30962000  0.35575000  1
  Dy  Dy26  1  0.50010000  0.69038000  0.64425000  1
  Dy  Dy27  1  0.51125000  0.89548000  0.90006000  1
  Dy  Dy28  1  0.52255000  0.86010000  0.79284000  1
  Dy  Dy29  1  0.52404000  0.41788000  0.17328000  1
  Dy  Dy30  1  0.52862000  0.56318000  0.72285000  1
  Dy  Dy31  1  0.53000000  0.24106000  0.45142000  1
  Dy  Dy32  1  0.53134000  0.03571000  0.30159000  1
  Dy  Dy33  1  0.54123000  0.23804000  0.13743000  1
  Dy  Dy34  1  0.54600000  0.40505000  0.77605000  1
  Dy  Dy35  1  0.60516000  0.12318000  0.36922000  1
  Dy  Dy36  1  0.61830000  0.69391000  0.71609000  1
  Dy  Dy37  1  0.63116000  0.46409000  0.23397000  1
  Dy  Dy38  1  0.64410000  0.04997000  0.14834000  1
  Dy  Dy39  1  0.67751000  0.25534000  0.37892000  1
  Dy  Dy40  1  0.67771000  0.31490000  0.09988000  1
  Dy  Dy41  1  0.72541000  0.96060000  0.30863000  1
  Dy  Dy42  1  0.72807000  0.40448000  0.32109000  1
  Dy  Dy43  1  0.78441000  0.93540000  0.20600000  1
  Dy  Dy44  1  0.82019000  0.33464000  0.22251000  1
  Dy  Dy45  1  0.83337000  0.02955000  0.11989000  1
  Dy  Dy46  1  0.86036000  0.20775000  0.14464000  1
  Dy  Dy47  1  0.87353000  0.12655000  0.34087000  1
  Dy  Dy48  1  0.88785000  0.98921000  0.26805000  1
  Dy  Dy49  1  0.89006000  0.81281000  0.27054000  1
  Dy  Dy50  1  0.92289000  0.14825000  0.23544000  1
  Dy  Dy51  1  0.99493000  0.74675000  0.81987000  1
  Zn  Zn52  1  0.00000000  0.50000000  0.00000000  1
  Zn  Zn53  1  0.10766000  0.71566000  0.42767000  1
  Zn  Zn54  1  0.89234000  0.28434000  0.57233000  1
  H  H55  1  0.01050000  0.79980000  0.10680000  1
  H  H56  1  0.02240000  0.57400000  0.13300000  1
  H  H57  1  0.02300000  0.36720000  0.04070000  1
  H  H58  1  0.02330000  0.95950000  0.04780000  1
  H  H59  1  0.02340000  0.19240000  0.92980000  1
  H  H60  1  0.02790000  0.34620000  0.82000000  1
  H  H61  1  0.02940000  0.20800000  0.59670000  1
  H  H62  1  0.03320000  0.83800000  0.07330000  1
  H  H63  1  0.03330000  0.14660000  0.04250000  1
  H  H64  1  0.03420000  0.69950000  0.93090000  1
  H  H65  1  0.03850000  0.44090000  0.20680000  1
  H  H66  1  0.04480000  0.79280000  0.49500000  1
  H  H67  1  0.05710000  0.53720000  0.22140000  1
  H  H68  1  0.06610000  0.95050000  0.39100000  1
  H  H69  1  0.06820000  0.59530000  0.31710000  1
  H  H70  1  0.06980000  0.83250000  0.55440000  1
  H  H71  1  0.07920000  0.32100000  0.23930000  1
  H  H72  1  0.08150000  0.11000000  0.62520000  1
  H  H73  1  0.08250000  0.47840000  0.90450000  1
  H  H74  1  0.08880000  0.85120000  0.19390000  1
  H  H75  1  0.09300000  0.07960000  0.30900000  1
  H  H76  1  0.09640000  0.31260000  0.93360000  1
  H  H77  1  0.10200000  0.92720000  0.30220000  1
  H  H78  1  0.11690000  0.27380000  0.60410000  1
  H  H79  1  0.11720000  0.74190000  0.27710000  1
  H  H80  1  0.12130000  0.53180000  0.85550000  1
  H  H81  1  0.12350000  0.10420000  0.99720000  1
  H  H82  1  0.12540000  0.92150000  0.00900000  1
  H  H83  1  0.12610000  0.38050000  0.72840000  1
  H  H84  1  0.12850000  0.83830000  0.40650000  1
  H  H85  1  0.13020000  0.19150000  0.54250000  1
  H  H86  1  0.14050000  0.01480000  0.19520000  1
  H  H87  1  0.14060000  0.51070000  0.99600000  1
  H  H88  1  0.14730000  0.22930000  0.89000000  1
  H  H89  1  0.15020000  0.33490000  0.55520000  1
  H  H90  1  0.15160000  0.47440000  0.74050000  1
  H  H91  1  0.15660000  0.49080000  0.32350000  1
  H  H92  1  0.17150000  0.63560000  0.23240000  1
  H  H93  1  0.17550000  0.20780000  0.97330000  1
  H  H94  1  0.17610000  0.22370000  0.14650000  1
  H  H95  1  0.17860000  0.30730000  0.26200000  1
  H  H96  1  0.18690000  0.01340000  0.49050000  1
  H  H97  1  0.19210000  0.03200000  0.33530000  1
  H  H98  1  0.19640000  0.58160000  0.39800000  1
  H  H99  1  0.20210000  0.57070000  0.96810000  1
  H  H100  1  0.20270000  0.13020000  0.22770000  1
  H  H101  1  0.20380000  0.14080000  0.58550000  1
  H  H102  1  0.20450000  0.78760000  0.17950000  1
  H  H103  1  0.21770000  0.33800000  0.66900000  1
  H  H104  1  0.22000000  0.74870000  0.38250000  1
  H  H105  1  0.22520000  0.88720000  0.28970000  1
  H  H106  1  0.23270000  0.10670000  0.93980000  1
  H  H107  1  0.23400000  0.70370000  0.26870000  1
  H  H108  1  0.24600000  0.71360000  0.45320000  1
  H  H109  1  0.24730000  0.28710000  0.73500000  1
  H  H110  1  0.25090000  0.94750000  0.17360000  1
  H  H111  1  0.25120000  0.95860000  0.54200000  1
  H  H112  1  0.25740000  0.39420000  0.62130000  1
  H  H113  1  0.26010000  0.52700000  0.23060000  1
  H  H114  1  0.26120000  0.50990000  0.57900000  1
  H  H115  1  0.26350000  0.71070000  0.51640000  1
  H  H116  1  0.26570000  0.39050000  0.93100000  1
  H  H117  1  0.26670000  0.24660000  0.81760000  1
  H  H118  1  0.26850000  0.52960000  0.34350000  1
  H  H119  1  0.27400000  0.39370000  0.42980000  1
  H  H120  1  0.28080000  0.20150000  0.16570000  1
  H  H121  1  0.28690000  0.41900000  0.17850000  1
  H  H122  1  0.28910000  0.37460000  0.73510000  1
  H  H123  1  0.29030000  0.43870000  0.13670000  1
  H  H124  1  0.29130000  0.31570000  0.42380000  1
  H  H125  1  0.29130000  0.34500000  0.46310000  1
  H  H126  1  0.29220000  0.33900000  0.83860000  1
  H  H127  1  0.29760000  0.36450000  0.14730000  1
  H  H128  1  0.29770000  0.08020000  0.25490000  1
  H  H129  1  0.31180000  0.40610000  0.54850000  1
  H  H130  1  0.31200000  0.44010000  0.87970000  1
  H  H131  1  0.31410000  0.69660000  0.33440000  1
  H  H132  1  0.32170000  0.18480000  0.61330000  1
  H  H133  1  0.34590000  0.32540000  0.05360000  1
  H  H134  1  0.34660000  0.21960000  0.98950000  1
  H  H135  1  0.34940000  0.36020000  0.66380000  1
  H  H136  1  0.35730000  0.58820000  0.47780000  1
  H  H137  1  0.36410000  0.24170000  0.56560000  1
  H  H138  1  0.36480000  0.03190000  0.52650000  1
  H  H139  1  0.37240000  0.37100000  0.07610000  1
  H  H140  1  0.37700000  0.38150000  0.62530000  1
  H  H141  1  0.37870000  0.83190000  0.27390000  1
  H  H142  1  0.38740000  0.50160000  0.43590000  1
  H  H143  1  0.39940000  0.35440000  0.03370000  1
  H  H144  1  0.40060000  0.92420000  0.28800000  1
  H  H145  1  0.41340000  0.11150000  0.95740000  1
  H  H146  1  0.41350000  0.85150000  0.16800000  1
  H  H147  1  0.41660000  0.10700000  0.50490000  1
  H  H148  1  0.41890000  0.37240000  0.65890000  1
  H  H149  1  0.42130000  0.15210000  0.74910000  1
  H  H150  1  0.43270000  0.12280000  0.86260000  1
  H  H151  1  0.43510000  0.53800000  0.54520000  1
  H  H152  1  0.44070000  0.94700000  0.17920000  1
  H  H153  1  0.44300000  0.47410000  0.95870000  1
  H  H154  1  0.44680000  0.68150000  0.41480000  1
  H  H155  1  0.45070000  0.91060000  0.44370000  1
  H  H156  1  0.45190000  0.22240000  0.87720000  1
  H  H157  1  0.46920000  0.79100000  0.39270000  1
  H  H158  1  0.46970000  0.23330000  0.75660000  1
  H  H159  1  0.47460000  0.43510000  0.51370000  1
  H  H160  1  0.47920000  0.60080000  0.36870000  1
  H  H161  1  0.48270000  0.52410000  0.95500000  1
  H  H162  1  0.48610000  0.54620000  0.06670000  1
  H  H163  1  0.49310000  0.14870000  0.65760000  1
  H  H164  1  0.49810000  0.98400000  0.41570000  1
  H  H165  1  0.50190000  0.01600000  0.58430000  1
  H  H166  1  0.50690000  0.85130000  0.34240000  1
  H  H167  1  0.51390000  0.45380000  0.93330000  1
  H  H168  1  0.51730000  0.47590000  0.04500000  1
  H  H169  1  0.52080000  0.39920000  0.63130000  1
  H  H170  1  0.52540000  0.56490000  0.48630000  1
  H  H171  1  0.53030000  0.76670000  0.24340000  1
  H  H172  1  0.53080000  0.20900000  0.60730000  1
  H  H173  1  0.54810000  0.77760000  0.12280000  1
  H  H174  1  0.54930000  0.08940000  0.55630000  1
  H  H175  1  0.55320000  0.31850000  0.58520000  1
  H  H176  1  0.55700000  0.52590000  0.04130000  1
  H  H177  1  0.55930000  0.05300000  0.82080000  1
  H  H178  1  0.56490000  0.46200000  0.45480000  1
  H  H179  1  0.56730000  0.87720000  0.13740000  1
  H  H180  1  0.57870000  0.84790000  0.25090000  1
  H  H181  1  0.58110000  0.62760000  0.34110000  1
  H  H182  1  0.58340000  0.89300000  0.49510000  1
  H  H183  1  0.58650000  0.14850000  0.83200000  1
  H  H184  1  0.58660000  0.88850000  0.04260000  1
  H  H185  1  0.59940000  0.07580000  0.71200000  1
  H  H186  1  0.60060000  0.64560000  0.96630000  1
  H  H187  1  0.61260000  0.49840000  0.56410000  1
  H  H188  1  0.62130000  0.16810000  0.72610000  1
  H  H189  1  0.62300000  0.61850000  0.37470000  1
  H  H190  1  0.62760000  0.62900000  0.92390000  1
  H  H191  1  0.63520000  0.96810000  0.47350000  1
  H  H192  1  0.63590000  0.75830000  0.43440000  1
  H  H193  1  0.64270000  0.41180000  0.52220000  1
  H  H194  1  0.65060000  0.63980000  0.33620000  1
  H  H195  1  0.65340000  0.78040000  0.01050000  1
  H  H196  1  0.65410000  0.67460000  0.94640000  1
  H  H197  1  0.67830000  0.81520000  0.38670000  1
  H  H198  1  0.68590000  0.30340000  0.66560000  1
  H  H199  1  0.68800000  0.55990000  0.12030000  1
  H  H200  1  0.68820000  0.59390000  0.45150000  1
  H  H201  1  0.70230000  0.91980000  0.74510000  1
  H  H202  1  0.70240000  0.63550000  0.85270000  1
  H  H203  1  0.70780000  0.66100000  0.16140000  1
  H  H204  1  0.70870000  0.65500000  0.53690000  1
  H  H205  1  0.70870000  0.68430000  0.57620000  1
  H  H206  1  0.70970000  0.56130000  0.86330000  1
  H  H207  1  0.71090000  0.62540000  0.26490000  1
  H  H208  1  0.71310000  0.58100000  0.82150000  1
  H  H209  1  0.71920000  0.79850000  0.83430000  1
  H  H210  1  0.72600000  0.60630000  0.57020000  1
  H  H211  1  0.73150000  0.47040000  0.65650000  1
  H  H212  1  0.73330000  0.75340000  0.18240000  1
  H  H213  1  0.73430000  0.60950000  0.06900000  1
  H  H214  1  0.73650000  0.28930000  0.48360000  1
  H  H215  1  0.73880000  0.49010000  0.42100000  1
  H  H216  1  0.73990000  0.47300000  0.76940000  1
  H  H217  1  0.74260000  0.60580000  0.37870000  1
  H  H218  1  0.74880000  0.04140000  0.45800000  1
  H  H219  1  0.74910000  0.05250000  0.82640000  1
  H  H220  1  0.75270000  0.71290000  0.26500000  1
  H  H221  1  0.75400000  0.28640000  0.54680000  1
  H  H222  1  0.76600000  0.29630000  0.73130000  1
  H  H223  1  0.76730000  0.89330000  0.06020000  1
  H  H224  1  0.77480000  0.11280000  0.71030000  1
  H  H225  1  0.78000000  0.25130000  0.61750000  1
  H  H226  1  0.78230000  0.66200000  0.33100000  1
  H  H227  1  0.79550000  0.21240000  0.82050000  1
  H  H228  1  0.79620000  0.85920000  0.41450000  1
  H  H229  1  0.79730000  0.86980000  0.77230000  1
  H  H230  1  0.79790000  0.42930000  0.03190000  1
  H  H231  1  0.80360000  0.41840000  0.60200000  1
  H  H232  1  0.80790000  0.96800000  0.66470000  1
  H  H233  1  0.81310000  0.98660000  0.50950000  1
  H  H234  1  0.82140000  0.69270000  0.73800000  1
  H  H235  1  0.82390000  0.77630000  0.85350000  1
  H  H236  1  0.82450000  0.79220000  0.02670000  1
  H  H237  1  0.82850000  0.36440000  0.76760000  1
  H  H238  1  0.84340000  0.50920000  0.67650000  1
  H  H239  1  0.84840000  0.52560000  0.25950000  1
  H  H240  1  0.84980000  0.66510000  0.44480000  1
  H  H241  1  0.85270000  0.77070000  0.11000000  1
  H  H242  1  0.85940000  0.48930000  0.00400000  1
  H  H243  1  0.85950000  0.98520000  0.80480000  1
  H  H244  1  0.86980000  0.80850000  0.45750000  1
  H  H245  1  0.87150000  0.16170000  0.59350000  1
  H  H246  1  0.87390000  0.61950000  0.27160000  1
  H  H247  1  0.87460000  0.07850000  0.99100000  1
  H  H248  1  0.87650000  0.89580000  0.00280000  1
  H  H249  1  0.87870000  0.46820000  0.14450000  1
  H  H250  1  0.88280000  0.25810000  0.72290000  1
  H  H251  1  0.88310000  0.72620000  0.39590000  1
  H  H252  1  0.89800000  0.07280000  0.69780000  1
  H  H253  1  0.90360000  0.68740000  0.06640000  1
  H  H254  1  0.90700000  0.92040000  0.69100000  1
  H  H255  1  0.91120000  0.14880000  0.80610000  1
  H  H256  1  0.91750000  0.52160000  0.09550000  1
  H  H257  1  0.91850000  0.89000000  0.37480000  1
  H  H258  1  0.92080000  0.67900000  0.76070000  1
  H  H259  1  0.93020000  0.16750000  0.44560000  1
  H  H260  1  0.93180000  0.40470000  0.68290000  1
  H  H261  1  0.93390000  0.04950000  0.60900000  1
  H  H262  1  0.94290000  0.46280000  0.77860000  1
  H  H263  1  0.95520000  0.20720000  0.50500000  1
  H  H264  1  0.96150000  0.55910000  0.79320000  1
  H  H265  1  0.96580000  0.30050000  0.06910000  1
  H  H266  1  0.96670000  0.85340000  0.95750000  1
  H  H267  1  0.96680000  0.16200000  0.92670000  1
  H  H268  1  0.97060000  0.79200000  0.40330000  1
  H  H269  1  0.97210000  0.65380000  0.18000000  1
  H  H270  1  0.97660000  0.80760000  0.07020000  1
  H  H271  1  0.97670000  0.04050000  0.95220000  1
  H  H272  1  0.97700000  0.63280000  0.95930000  1
  H  H273  1  0.97760000  0.42600000  0.86700000  1
  H  H274  1  0.98950000  0.20020000  0.89320000  1
  C  C275  1  0.00370000  0.47640000  0.22060000  1
  C  C276  1  0.00490000  0.17090000  0.91340000  1
  C  C277  1  0.00750000  0.17710000  0.60070000  1
  C  C278  1  0.01200000  0.38540000  0.87180000  1
  C  C279  1  0.01400000  0.53540000  0.22890000  1
  C  C280  1  0.01590000  0.05880000  0.05080000  1
  C  C281  1  0.01630000  0.06600000  0.61530000  1
  C  C282  1  0.01960000  0.86530000  0.28840000  1
  C  C283  1  0.02380000  0.61990000  0.96060000  1
  C  C284  1  0.02570000  0.98740000  0.20970000  1
  C  C285  1  0.04080000  0.33700000  0.84360000  1
  C  C286  1  0.04110000  0.11690000  0.61520000  1
  C  C287  1  0.04450000  0.98940000  0.03920000  1
  C  C288  1  0.04570000  0.91820000  0.39230000  1
  C  C289  1  0.04620000  0.91430000  0.92090000  1
  C  C290  1  0.04920000  0.10100000  0.03500000  1
  C  C291  1  0.05350000  0.99850000  0.63130000  1
  C  C292  1  0.05590000  0.52900000  0.76770000  1
  C  C293  1  0.05790000  0.66120000  0.94350000  1
  C  C294  1  0.06210000  0.10200000  0.89740000  1
  C  C295  1  0.07040000  0.58910000  0.77500000  1
  C  C296  1  0.07150000  0.14200000  0.24770000  1
  C  C297  1  0.08110000  0.31870000  0.91040000  1
  C  C298  1  0.08270000  0.85040000  0.40300000  1
  C  C299  1  0.08970000  0.27370000  0.85070000  1
  C  C300  1  0.09020000  0.78200000  0.49910000  1
  C  C301  1  0.09210000  0.41700000  0.74190000  1
  C  C302  1  0.09700000  0.83890000  0.28640000  1
  C  C303  1  0.10020000  0.94130000  0.19560000  1
  C  C304  1  0.10380000  0.07550000  0.00920000  1
  C  C305  1  0.10400000  0.96770000  0.01490000  1
  C  C306  1  0.10450000  0.80640000  0.53620000  1
  C  C307  1  0.10780000  0.58130000  0.29990000  1
  C  C308  1  0.10820000  0.47360000  0.74850000  1
  C  C309  1  0.11140000  0.26820000  0.88460000  1
  C  C310  1  0.11800000  0.21960000  0.81920000  1
  C  C311  1  0.11920000  0.54790000  0.98200000  1
  C  C312  1  0.12060000  0.29720000  0.22460000  1
  C  C313  1  0.12070000  0.87240000  0.19080000  1
  C  C314  1  0.12740000  0.64360000  0.94590000  1
  C  C315  1  0.12770000  0.88290000  0.29350000  1
  C  C316  1  0.12930000  0.46990000  0.89980000  1
  C  C317  1  0.13400000  0.08190000  0.29730000  1
  C  C318  1  0.13610000  0.11180000  0.26510000  1
  C  C319  1  0.13820000  0.77330000  0.27890000  1
  C  C320  1  0.14490000  0.29770000  0.60780000  1
  C  C321  1  0.14930000  0.93320000  0.80730000  1
  C  C322  1  0.15000000  0.25690000  0.67150000  1
  C  C323  1  0.15150000  0.96870000  0.19060000  1
  C  C324  1  0.15210000  0.50270000  0.87000000  1
  C  C325  1  0.15560000  0.58530000  0.96570000  1
  C  C326  1  0.15870000  0.14590000  0.53970000  1
  C  C327  1  0.15970000  0.51780000  0.30340000  1
  C  C328  1  0.16490000  0.33450000  0.57830000  1
  C  C329  1  0.16600000  0.29760000  0.64030000  1
  C  C330  1  0.16730000  0.60420000  0.24990000  1
  C  C331  1  0.17030000  0.68080000  0.92700000  1
  C  C332  1  0.17300000  0.78610000  0.53970000  1
  C  C333  1  0.17680000  0.23960000  0.17010000  1
  C  C334  1  0.17890000  0.28930000  0.23880000  1
  C  C335  1  0.19030000  0.80720000  0.57460000  1
  C  C336  1  0.19090000  0.03990000  0.50960000  1
  C  C337  1  0.19090000  0.83470000  0.18130000  1
  C  C338  1  0.19450000  0.05410000  0.31310000  1
  C  C339  1  0.19700000  0.74570000  0.69660000  1
  C  C340  1  0.19850000  0.11040000  0.25050000  1
  C  C341  1  0.19850000  0.11370000  0.56710000  1
  C  C342  1  0.20240000  0.85780000  0.28680000  1
  C  C343  1  0.20580000  0.33590000  0.64540000  1
  C  C344  1  0.20860000  0.74960000  0.27390000  1
  C  C345  1  0.21150000  0.72860000  0.47340000  1
  C  C346  1  0.21590000  0.60710000  0.38260000  1
  C  C347  1  0.21600000  0.49660000  0.27570000  1
  C  C348  1  0.21890000  0.92680000  0.17880000  1
  C  C349  1  0.22110000  0.73810000  0.50970000  1
  C  C350  1  0.22130000  0.49070000  0.86290000  1
  C  C351  1  0.22210000  0.53920000  0.24890000  1
  C  C352  1  0.22330000  0.18930000  0.96980000  1
  C  C353  1  0.22870000  0.37120000  0.61750000  1
  C  C354  1  0.22940000  0.00560000  0.54180000  1
  C  C355  1  0.23080000  0.04380000  0.56890000  1
  C  C356  1  0.23150000  0.70360000  0.37520000  1
  C  C357  1  0.23640000  0.41800000  0.91520000  1
  C  C358  1  0.24040000  0.22620000  0.18090000  1
  C  C359  1  0.24110000  0.25150000  0.21560000  1
  C  C360  1  0.24380000  0.90050000  0.66980000  1
  C  C361  1  0.24470000  0.52760000  0.83100000  1
  C  C362  1  0.25580000  0.08160000  0.26730000  1
  C  C363  1  0.25820000  0.12780000  0.95010000  1
  C  C364  1  0.26260000  0.57320000  0.35130000  1
  C  C365  1  0.26500000  0.44900000  0.88430000  1
  C  C366  1  0.26600000  0.01570000  0.60140000  1
  C  C367  1  0.27350000  0.43010000  0.27960000  1
  C  C368  1  0.28200000  0.83070000  0.87310000  1
  C  C369  1  0.28730000  0.67310000  0.34510000  1
  C  C370  1  0.29350000  0.27650000  0.73710000  1
  C  C371  1  0.29740000  0.65740000  0.82720000  1
  C  C372  1  0.29830000  0.60970000  0.33333333  1
  C  C373  1  0.30150000  0.34910000  0.43690000  1
  C  C374  1  0.30520000  0.23920000  0.82940000  1
  C  C375  1  0.30550000  0.49610000  0.56630000  1
  C  C376  1  0.30740000  0.23780000  0.23030000  1
  C  C377  1  0.30790000  0.40310000  0.15360000  1
  C  C378  1  0.31450000  0.60150000  0.59000000  1
  C  C379  1  0.31730000  0.33030000  0.73930000  1
  C  C380  1  0.32320000  0.29490000  0.84070000  1
  C  C381  1  0.32430000  0.19490000  0.97930000  1
  C  C382  1  0.32980000  0.09660000  0.94500000  1
  C  C383  1  0.33100000  0.11420000  0.82810000  1
  C  C384  1  0.33660000  0.43450000  0.54740000  1
  C  C385  1  0.33670000  0.45750000  0.66260000  1
  C  C386  1  0.34430000  0.53570000  0.56530000  1
  C  C387  1  0.34790000  0.57740000  0.29960000  1
  C  C388  1  0.34860000  0.17340000  0.83710000  1
  C  C389  1  0.36480000  0.18750000  0.61300000  1
  C  C390  1  0.36560000  0.12940000  0.95960000  1
  C  C391  1  0.36630000  0.02960000  0.92390000  1
  C  C392  1  0.37360000  0.38700000  0.65170000  1
  C  C393  1  0.37440000  0.97420000  0.76320000  1
  C  C394  1  0.37610000  0.06740000  0.12610000  1
  C  C395  1  0.37670000  0.33780000  0.42720000  1
  C  C396  1  0.38310000  0.31590000  0.74770000  1
  C  C397  1  0.38340000  0.59040000  0.45550000  1
  C  C398  1  0.38490000  0.33700000  0.05650000  1
  C  C399  1  0.38580000  0.11680000  0.66860000  1
  C  C400  1  0.38790000  0.38220000  0.15110000  1
  C  C401  1  0.38890000  0.63020000  0.68700000  1
  C  C402  1  0.39060000  0.85580000  0.25420000  1
  C  C403  1  0.39090000  0.22260000  0.58420000  1
  C  C404  1  0.39330000  0.02130000  0.50390000  1
  C  C405  1  0.39510000  0.19760000  0.74630000  1
  C  C406  1  0.40200000  0.53760000  0.43040000  1
  C  C407  1  0.40330000  0.91180000  0.26330000  1
  C  C408  1  0.40440000  0.16530000  0.85560000  1
  C  C409  1  0.40470000  0.15880000  0.63960000  1
  C  C410  1  0.40740000  0.51250000  0.54600000  1
  C  C411  1  0.41120000  0.86620000  0.19230000  1
  C  C412  1  0.41170000  0.36820000  0.75270000  1
  C  C413  1  0.41610000  0.22690000  0.86370000  1
  C  C414  1  0.42030000  0.94970000  0.23510000  1
  C  C415  1  0.42390000  0.06810000  0.49090000  1
  C  C416  1  0.42490000  0.24620000  0.75120000  1
  C  C417  1  0.42640000  0.92500000  0.19910000  1
  C  C418  1  0.43100000  0.44970000  0.52740000  1
  C  C419  1  0.43440000  0.64410000  0.41930000  1
  C  C420  1  0.43460000  0.52370000  0.90880000  1
  C  C421  1  0.43640000  0.00860000  0.24210000  1
  C  C422  1  0.44130000  0.53640000  0.39740000  1
  C  C423  1  0.44140000  0.95190000  0.45590000  1
  C  C424  1  0.44520000  0.27210000  0.06650000  1
  C  C425  1  0.45570000  0.59490000  0.39120000  1
  C  C426  1  0.46150000  0.47950000  0.36910000  1
  C  C427  1  0.46420000  0.05510000  0.45750000  1
  C  C428  1  0.46580000  0.16650000  0.63900000  1
  C  C429  1  0.47210000  0.49080000  0.94210000  1
  C  C430  1  0.47230000  0.99530000  0.43910000  1
  C  C431  1  0.48210000  0.30090000  0.22050000  1
  C  C432  1  0.48870000  0.20380000  0.60820000  1
  C  C433  1  0.49830000  0.90100000  0.55590000  1
  C  C434  1  0.49840000  0.18090000  0.30060000  1
  C  C435  1  0.50160000  0.81910000  0.69940000  1
  C  C436  1  0.50170000  0.09900000  0.44410000  1
  C  C437  1  0.51130000  0.79620000  0.39180000  1
  C  C438  1  0.51790000  0.69910000  0.77950000  1
  C  C439  1  0.52770000  0.00470000  0.56090000  1
  C  C440  1  0.52790000  0.50920000  0.05790000  1
  C  C441  1  0.53420000  0.83350000  0.36100000  1
  C  C442  1  0.53580000  0.94490000  0.54250000  1
  C  C443  1  0.53850000  0.52050000  0.63090000  1
  C  C444  1  0.54430000  0.40510000  0.60880000  1
  C  C445  1  0.55480000  0.72790000  0.93350000  1
  C  C446  1  0.55860000  0.04810000  0.54410000  1
  C  C447  1  0.55870000  0.46360000  0.60260000  1
  C  C448  1  0.56360000  0.99140000  0.75790000  1
  C  C449  1  0.56540000  0.47630000  0.09120000  1
  C  C450  1  0.56560000  0.35590000  0.58070000  1
  C  C451  1  0.56900000  0.55030000  0.47260000  1
  C  C452  1  0.57360000  0.07500000  0.80090000  1
  C  C453  1  0.57510000  0.75380000  0.24880000  1
  C  C454  1  0.57610000  0.93190000  0.50910000  1
  C  C455  1  0.57970000  0.05030000  0.76490000  1
  C  C456  1  0.58390000  0.77310000  0.13630000  1
  C  C457  1  0.58830000  0.63180000  0.24730000  1
  C  C458  1  0.58880000  0.13380000  0.80770000  1
  C  C459  1  0.59260000  0.48750000  0.45400000  1
  C  C460  1  0.59530000  0.84120000  0.36040000  1
  C  C461  1  0.59560000  0.83470000  0.14440000  1
  C  C462  1  0.59670000  0.08820000  0.73670000  1
  C  C463  1  0.59800000  0.46240000  0.56960000  1
  C  C464  1  0.60490000  0.80240000  0.25370000  1
  C  C465  1  0.60670000  0.97870000  0.49610000  1
  C  C466  1  0.60910000  0.77740000  0.41580000  1
  C  C467  1  0.60940000  0.14420000  0.74580000  1
  C  C468  1  0.61110000  0.36980000  0.31300000  1
  C  C469  1  0.61210000  0.61780000  0.84890000  1
  C  C470  1  0.61420000  0.88320000  0.33140000  1
  C  C471  1  0.61510000  0.66300000  0.94350000  1
  C  C472  1  0.61660000  0.40960000  0.54450000  1
  C  C473  1  0.61690000  0.68410000  0.25230000  1
  C  C474  1  0.62330000  0.66220000  0.57280000  1
  C  C475  1  0.62390000  0.93260000  0.87390000  1
  C  C476  1  0.62560000  0.02580000  0.23680000  1
  C  C477  1  0.62640000  0.61300000  0.34830000  1
  C  C478  1  0.63370000  0.97040000  0.07610000  1
  C  C479  1  0.63440000  0.87060000  0.04040000  1
  C  C480  1  0.63520000  0.81250000  0.38700000  1
  C  C481  1  0.65140000  0.82660000  0.16290000  1
  C  C482  1  0.65210000  0.42260000  0.70040000  1
  C  C483  1  0.65570000  0.46430000  0.43470000  1
  C  C484  1  0.66330000  0.54250000  0.33740000  1
  C  C485  1  0.66340000  0.56550000  0.45260000  1
  C  C486  1  0.66900000  0.88580000  0.17190000  1
  C  C487  1  0.67020000  0.90340000  0.05500000  1
  C  C488  1  0.67570000  0.80510000  0.02070000  1
  C  C489  1  0.67680000  0.70510000  0.15930000  1
  C  C490  1  0.68270000  0.66970000  0.26070000  1
  C  C491  1  0.68550000  0.39850000  0.41000000  1
  C  C492  1  0.69210000  0.59690000  0.84640000  1
  C  C493  1  0.69260000  0.76220000  0.76970000  1
  C  C494  1  0.69450000  0.50390000  0.43370000  1
  C  C495  1  0.69480000  0.76080000  0.17060000  1
  C  C496  1  0.69850000  0.65090000  0.56310000  1
  C  C497  1  0.70170000  0.39030000  0.66666667  1
  C  C498  1  0.70260000  0.34260000  0.17280000  1
  C  C499  1  0.70650000  0.72350000  0.26290000  1
  C  C500  1  0.71270000  0.32690000  0.65490000  1
  C  C501  1  0.71800000  0.16930000  0.12690000  1
  C  C502  1  0.72650000  0.56990000  0.72040000  1
  C  C503  1  0.73400000  0.98430000  0.39860000  1
  C  C504  1  0.73500000  0.55100000  0.11570000  1
  C  C505  1  0.73740000  0.42680000  0.64870000  1
  C  C506  1  0.74180000  0.87220000  0.04990000  1
  C  C507  1  0.74420000  0.91840000  0.73270000  1
  C  C508  1  0.75530000  0.47240000  0.16900000  1
  C  C509  1  0.75620000  0.09950000  0.33020000  1
  C  C510  1  0.75890000  0.74850000  0.78440000  1
  C  C511  1  0.75960000  0.77380000  0.81910000  1
  C  C512  1  0.76360000  0.58200000  0.08480000  1
  C  C513  1  0.76850000  0.29640000  0.62480000  1
  C  C514  1  0.76920000  0.95620000  0.43110000  1
  C  C515  1  0.77060000  0.99440000  0.45820000  1
  C  C516  1  0.77130000  0.62880000  0.38250000  1
  C  C517  1  0.77670000  0.81070000  0.03020000  1
  C  C518  1  0.77790000  0.46080000  0.75110000  1
  C  C519  1  0.77870000  0.50930000  0.13710000  1
  C  C520  1  0.77890000  0.26190000  0.49030000  1
  C  C521  1  0.78110000  0.07320000  0.82120000  1
  C  C522  1  0.78400000  0.50340000  0.72430000  1
  C  C523  1  0.78410000  0.39290000  0.61740000  1
  C  C524  1  0.78850000  0.27140000  0.52660000  1
  C  C525  1  0.79140000  0.25040000  0.72610000  1
  C  C526  1  0.79420000  0.66410000  0.35460000  1
  C  C527  1  0.79760000  0.14220000  0.71320000  1
  C  C528  1  0.80150000  0.88630000  0.43290000  1
  C  C529  1  0.80150000  0.88960000  0.74950000  1
  C  C530  1  0.80300000  0.25430000  0.30340000  1
  C  C531  1  0.80550000  0.94590000  0.68690000  1
  C  C532  1  0.80910000  0.16530000  0.81870000  1
  C  C533  1  0.80910000  0.96010000  0.49040000  1
  C  C534  1  0.80970000  0.19280000  0.42540000  1
  C  C535  1  0.82110000  0.71070000  0.76120000  1
  C  C536  1  0.82320000  0.76040000  0.82990000  1
  C  C537  1  0.82700000  0.21390000  0.46030000  1
  C  C538  1  0.82970000  0.31920000  0.07300000  1
  C  C539  1  0.83270000  0.39580000  0.75010000  1
  C  C540  1  0.83400000  0.70240000  0.35970000  1
  C  C541  1  0.83510000  0.66550000  0.42170000  1
  C  C542  1  0.84030000  0.48220000  0.69660000  1
  C  C543  1  0.84130000  0.85410000  0.46030000  1
  C  C544  1  0.84440000  0.41470000  0.03430000  1
  C  C545  1  0.84790000  0.49730000  0.13000000  1
  C  C546  1  0.84850000  0.03130000  0.80940000  1
  C  C547  1  0.85000000  0.74310000  0.32850000  1
  C  C548  1  0.85070000  0.06680000  0.19270000  1
  C  C549  1  0.85510000  0.70230000  0.39220000  1
  C  C550  1  0.86180000  0.22670000  0.72110000  1
  C  C551  1  0.86390000  0.88820000  0.73490000  1
  C  C552  1  0.86600000  0.91810000  0.70270000  1
  C  C553  1  0.87070000  0.53010000  0.10020000  1
  C  C554  1  0.87230000  0.11710000  0.70650000  1
  C  C555  1  0.87260000  0.35640000  0.05410000  1
  C  C556  1  0.87930000  0.12760000  0.80920000  1
  C  C557  1  0.87940000  0.70280000  0.77540000  1
  C  C558  1  0.88080000  0.45210000  0.01800000  1
  C  C559  1  0.88200000  0.78040000  0.18080000  1
  C  C560  1  0.88860000  0.73180000  0.11540000  1
  C  C561  1  0.89180000  0.52640000  0.25150000  1
  C  C562  1  0.89220000  0.41870000  0.70010000  1
  C  C563  1  0.89550000  0.19360000  0.46380000  1
  C  C564  1  0.89600000  0.03230000  0.98510000  1
  C  C565  1  0.89620000  0.92450000  0.99080000  1
  C  C566  1  0.89980000  0.05870000  0.80440000  1
  C  C567  1  0.90300000  0.16110000  0.71360000  1
  C  C568  1  0.90790000  0.58300000  0.25810000  1
  C  C569  1  0.90980000  0.21800000  0.50090000  1
  C  C570  1  0.91030000  0.72630000  0.14930000  1
  C  C571  1  0.91730000  0.14960000  0.59700000  1
  C  C572  1  0.91890000  0.68130000  0.08960000  1
  C  C573  1  0.92850000  0.85800000  0.75230000  1
  C  C574  1  0.92960000  0.41090000  0.22500000  1
  C  C575  1  0.93790000  0.89800000  0.10260000  1
  C  C576  1  0.94210000  0.33880000  0.05650000  1
  C  C577  1  0.94410000  0.47100000  0.23230000  1
  C  C578  1  0.94650000  0.00150000  0.36870000  1
  C  C579  1  0.95080000  0.89900000  0.96500000  1
  C  C580  1  0.95380000  0.08570000  0.07910000  1
  C  C581  1  0.95430000  0.08180000  0.60770000  1
  C  C582  1  0.95550000  0.01060000  0.96080000  1
  C  C583  1  0.95890000  0.88310000  0.38480000  1
  C  C584  1  0.95920000  0.66300000  0.15640000  1
  C  C585  1  0.97430000  0.01260000  0.79030000  1
  C  C586  1  0.97620000  0.38010000  0.03940000  1
  C  C587  1  0.98040000  0.13470000  0.71160000  1
  C  C588  1  0.98370000  0.93400000  0.38470000  1
  C  C589  1  0.98410000  0.94120000  0.94920000  1
  C  C590  1  0.98600000  0.46460000  0.77110000  1
  C  C591  1  0.98800000  0.61460000  0.12820000  1
  C  C592  1  0.99250000  0.82290000  0.39930000  1
  C  C593  1  0.99510000  0.82910000  0.08660000  1
  C  C594  1  0.99630000  0.52360000  0.77940000  1
  N  N595  1  0.03000000  0.37760000  0.90490000  1
  N  N596  1  0.03400000  0.41080000  0.75300000  1
  N  N597  1  0.05400000  0.56470000  0.97800000  1
  N  N598  1  0.05510000  0.80600000  0.40790000  1
  N  N599  1  0.11400000  0.62100000  0.27310000  1
  N  N600  1  0.11710000  0.27250000  0.18980000  1
  N  N601  1  0.13130000  0.00730000  0.00020000  1
  N  N602  1  0.14190000  0.74540000  0.47250000  1
  N  N603  1  0.16230000  0.10910000  0.50850000  1
  N  N604  1  0.16960000  0.42780000  0.92160000  1
  N  N605  1  0.19840000  0.66970000  0.39150000  1
  N  N606  1  0.20660000  0.36990000  0.58440000  1
  N  N607  1  0.23920000  0.79140000  0.27640000  1
  N  N608  1  0.24130000  0.86130000  0.17440000  1
  N  N609  1  0.25480000  0.05600000  0.29990000  1
  N  N610  1  0.25710000  0.21910000  0.98260000  1
  N  N611  1  0.33310000  0.21270000  0.73790000  1
  N  N612  1  0.38160000  0.28640000  0.85370000  1
  N  N613  1  0.39340000  0.83210000  0.22080000  1
  N  N614  1  0.39820000  0.41170000  0.52770000  1
  N  N615  1  0.39980000  0.64400000  0.45030000  1
  N  N616  1  0.40160000  0.96430000  0.48680000  1
  N  N617  1  0.45010000  0.22900000  0.58290000  1
  N  N618  1  0.54990000  0.77100000  0.41710000  1
  N  N619  1  0.59840000  0.03570000  0.51320000  1
  N  N620  1  0.60020000  0.35600000  0.54970000  1
  N  N621  1  0.60180000  0.58830000  0.47230000  1
  N  N622  1  0.60660000  0.16790000  0.77920000  1
  N  N623  1  0.61840000  0.71360000  0.14630000  1
  N  N624  1  0.66690000  0.78730000  0.26210000  1
  N  N625  1  0.74290000  0.78090000  0.01740000  1
  N  N626  1  0.74520000  0.94400000  0.70010000  1
  N  N627  1  0.75870000  0.13870000  0.82560000  1
  N  N628  1  0.76080000  0.20860000  0.72360000  1
  N  N629  1  0.79340000  0.63010000  0.41560000  1
  N  N630  1  0.80160000  0.33030000  0.60850000  1
  N  N631  1  0.83040000  0.57220000  0.07840000  1
  N  N632  1  0.83770000  0.89090000  0.49150000  1
  N  N633  1  0.85810000  0.25460000  0.52750000  1
  N  N634  1  0.86870000  0.99270000  0.99980000  1
  N  N635  1  0.88290000  0.72750000  0.81020000  1
  N  N636  1  0.88600000  0.37900000  0.72690000  1
  N  N637  1  0.94490000  0.19400000  0.59210000  1
  N  N638  1  0.94600000  0.43530000  0.02200000  1
  N  N639  1  0.96600000  0.58920000  0.24700000  1
  N  N640  1  0.97000000  0.62240000  0.09510000  1
  O  O641  1  0.00610000  0.17700000  0.72050000  1
  O  O642  1  0.01200000  0.04920000  0.20910000  1
  O  O643  1  0.01280000  0.04430000  0.77820000  1
  O  O644  1  0.01460000  0.07250000  0.70320000  1
  O  O645  1  0.01810000  0.13740000  0.26460000  1
  O  O646  1  0.02410000  0.95670000  0.63970000  1
  O  O647  1  0.02490000  0.63640000  0.79540000  1
  O  O648  1  0.03980000  0.83270000  0.82601000  1
  O  O649  1  0.05400000  0.86420000  0.90150000  1
  O  O650  1  0.06330000  0.06410000  0.86840000  1
  O  O651  1  0.06390000  0.93370000  0.71537000  1
  O  O652  1  0.07210000  0.74210000  0.76560000  1
  O  O653  1  0.07560000  0.16980000  0.21700000  1
  O  O654  1  0.08780000  0.94610000  0.91900000  1
  O  O655  1  0.10740000  0.70390000  0.83620000  1
  O  O656  1  0.10850000  0.10070000  0.77045000  1
  O  O657  1  0.11210000  0.23470000  0.78570000  1
  O  O658  1  0.11260000  0.08060000  0.91400000  1
  O  O659  1  0.11570000  0.98440000  0.63540000  1
  O  O660  1  0.11610000  0.21980000  0.66440000  1
  O  O661  1  0.12540000  0.59400000  0.75910000  1
  O  O662  1  0.13530000  0.90200000  0.83630000  1
  O  O663  1  0.13880000  0.92100000  0.77497000  1
  O  O664  1  0.13900000  0.73010000  0.90960000  1
  O  O665  1  0.13960000  0.84280000  0.59830000  1
  O  O666  1  0.14530000  0.16010000  0.83110000  1
  O  O667  1  0.15200000  0.80450000  0.71050000  1
  O  O668  1  0.15480000  0.08180000  0.69369000  1
  O  O669  1  0.16610000  0.26050000  0.70140000  1
  O  O670  1  0.17320000  0.77560000  0.79156000  1
  O  O671  1  0.17500000  0.97840000  0.81480000  1
  O  O672  1  0.18780000  0.92470000  0.69150000  1
  O  O673  1  0.19880000  0.57920000  0.82080000  1
  O  O674  1  0.21500000  0.69460000  0.71639000  1
  O  O675  1  0.22130000  0.74150000  0.66300000  1
  O  O676  1  0.22440000  0.99620000  0.74225000  1
  O  O677  1  0.22470000  0.82250000  0.88300000  1
  O  O678  1  0.22560000  0.12560000  0.73864000  1
  O  O679  1  0.23050000  0.66110000  0.92940000  1
  O  O680  1  0.23860000  0.02840000  0.85544000  1
  O  O681  1  0.24790000  0.85730000  0.64581000  1
  O  O682  1  0.24900000  0.70080000  0.85010000  1
  O  O683  1  0.24920000  0.77920000  0.57850000  1
  O  O684  1  0.25210000  0.05160000  0.63030000  1
  O  O685  1  0.26140000  0.56670000  0.74143000  1
  O  O686  1  0.27080000  0.60730000  0.61620000  1
  O  O687  1  0.27440000  0.39650000  0.30800000  1
  O  O688  1  0.27630000  0.47950000  0.67090000  1
  O  O689  1  0.28220000  0.89070000  0.86385000  1
  O  O690  1  0.28530000  0.12430000  0.80810000  1
  O  O691  1  0.29090000  0.64540000  0.79543000  1
  O  O692  1  0.29290000  0.92270000  0.67320000  1
  O  O693  1  0.30620000  0.50650000  0.81930000  1
  O  O694  1  0.30710000  0.26910000  0.25850000  1
  O  O695  1  0.31030000  0.95770000  0.59710000  1
  O  O696  1  0.32090000  0.40870000  0.25240000  1
  O  O697  1  0.32400000  0.05170000  0.14250000  1
  O  O698  1  0.32560000  0.11970000  0.67340000  1
  O  O699  1  0.32660000  0.00630000  0.90980000  1
  O  O700  1  0.32920000  0.97640000  0.79054000  1
  O  O701  1  0.33780000  0.78060000  0.87200000  1
  O  O702  1  0.33960000  0.64680000  0.58060000  1
  O  O703  1  0.35530000  0.65100000  0.65931000  1
  O  O704  1  0.35580000  0.62920000  0.84080000  1
  O  O705  1  0.35640000  0.00030000  0.73210000  1
  O  O706  1  0.35970000  0.51640000  0.29290000  1
  O  O707  1  0.36020000  0.19060000  0.21330000  1
  O  O708  1  0.36420000  0.59760000  0.71110000  1
  O  O709  1  0.36530000  0.05920000  0.84060000  1
  O  O710  1  0.36560000  0.81840000  0.58530000  1
  O  O711  1  0.37000000  0.12690000  0.12180000  1
  O  O712  1  0.37070000  0.42980000  0.75000000  1
  O  O713  1  0.37340000  0.49450000  0.66110000  1
  O  O714  1  0.37520000  0.61240000  0.27890000  1
  O  O715  1  0.37640000  0.57540000  0.91940000  1
  O  O716  1  0.38780000  0.77530000  0.65812000  1
  O  O717  1  0.38900000  0.97960000  0.65619000  1
  O  O718  1  0.39230000  0.34250000  0.39190000  1
  O  O719  1  0.41410000  0.86960000  0.89332000  1
  O  O720  1  0.41500000  0.42530000  0.15860000  1
  O  O721  1  0.41680000  0.37860000  0.31858000  1
  O  O722  1  0.41960000  0.32010000  0.44850000  1
  O  O723  1  0.42080000  0.84630000  0.81812000  1
  O  O724  1  0.42520000  0.32220000  0.14070000  1
  O  O725  1  0.42960000  0.00440000  0.92250000  1
  O  O726  1  0.43310000  0.60340000  0.77044000  1
  O  O727  1  0.43380000  0.07840000  0.68540000  1
  O  O728  1  0.43440000  0.02010000  0.11680000  1
  O  O729  1  0.43640000  0.04980000  0.21610000  1
  O  O730  1  0.43850000  0.66320000  0.87913000  1
  O  O731  1  0.43850000  0.94540000  0.76394000  1
  O  O732  1  0.44050000  0.69030000  0.59493000  1
  O  O733  1  0.44180000  0.48740000  0.22022000  1
  O  O734  1  0.44190000  0.64230000  0.69121000  1
  O  O735  1  0.44460000  0.20500000  0.07190000  1
  O  O736  1  0.44740000  0.48700000  0.80910000  1
  O  O737  1  0.45080000  0.01370000  0.27270000  1
  O  O738  1  0.45360000  0.25640000  0.22333000  1
  O  O739  1  0.45710000  0.86530000  0.68290000  1
  O  O740  1  0.45720000  0.92120000  0.58610000  1
  O  O741  1  0.45860000  0.18740000  0.14921000  1
  O  O742  1  0.46290000  0.34360000  0.24780000  1
  O  O743  1  0.46610000  0.16180000  0.27820000  1
  O  O744  1  0.46820000  0.49360000  0.33470000  1
  O  O745  1  0.47120000  0.93890000  0.84400000  1
  O  O746  1  0.47310000  0.52110000  0.88000000  1
  O  O747  1  0.47350000  0.35200000  0.75980000  1
  O  O748  1  0.47380000  0.42210000  0.38010000  1
  O  O749  1  0.47870000  0.69470000  0.80790000  1
  O  O750  1  0.48080000  0.47990000  0.73373000  1
  O  O751  1  0.48350000  0.74140000  0.92560000  1
  O  O752  1  0.48390000  0.24410000  0.30734000  1
  O  O753  1  0.48860000  0.15370000  0.46200000  1
  O  O754  1  0.49440000  0.78490000  0.60806000  1
  O  O755  1  0.50560000  0.21510000  0.39194000  1
  O  O756  1  0.51140000  0.84630000  0.53800000  1
  O  O757  1  0.51610000  0.75590000  0.69266000  1
  O  O758  1  0.51650000  0.25860000  0.07440000  1
  O  O759  1  0.51920000  0.52010000  0.26627000  1
  O  O760  1  0.52130000  0.30530000  0.19210000  1
  O  O761  1  0.52620000  0.57790000  0.61990000  1
  O  O762  1  0.52650000  0.64800000  0.24020000  1
  O  O763  1  0.52690000  0.47890000  0.12000000  1
  O  O764  1  0.52880000  0.06110000  0.15600000  1
  O  O765  1  0.53180000  0.50640000  0.66530000  1
  O  O766  1  0.53390000  0.83820000  0.72180000  1
  O  O767  1  0.53710000  0.65640000  0.75220000  1
  O  O768  1  0.54140000  0.81260000  0.85079000  1
  O  O769  1  0.54280000  0.07880000  0.41390000  1
  O  O770  1  0.54290000  0.13470000  0.31710000  1
  O  O771  1  0.54640000  0.74360000  0.77667000  1
  O  O772  1  0.54920000  0.98630000  0.72730000  1
  O  O773  1  0.55260000  0.51300000  0.19090000  1
  O  O774  1  0.55540000  0.79500000  0.92810000  1
  O  O775  1  0.55810000  0.35770000  0.30879000  1
  O  O776  1  0.55820000  0.51260000  0.77978000  1
  O  O777  1  0.55950000  0.30970000  0.40507000  1
  O  O778  1  0.56150000  0.05460000  0.23606000  1
  O  O779  1  0.56150000  0.33680000  0.12087000  1
  O  O780  1  0.56360000  0.95020000  0.78390000  1
  O  O781  1  0.56560000  0.97990000  0.88320000  1
  O  O782  1  0.56620000  0.92160000  0.31460000  1
  O  O783  1  0.56690000  0.39660000  0.22956000  1
  O  O784  1  0.57040000  0.99560000  0.07750000  1
  O  O785  1  0.57480000  0.67780000  0.85930000  1
  O  O786  1  0.57920000  0.15370000  0.18188000  1
  O  O787  1  0.58040000  0.67990000  0.55150000  1
  O  O788  1  0.58320000  0.62140000  0.68142000  1
  O  O789  1  0.58500000  0.57470000  0.84140000  1
  O  O790  1  0.58590000  0.13040000  0.10668000  1
  O  O791  1  0.60770000  0.65750000  0.60810000  1
  O  O792  1  0.61100000  0.02040000  0.34381000  1
  O  O793  1  0.61220000  0.22470000  0.34188000  1
  O  O794  1  0.62360000  0.42460000  0.08060000  1
  O  O795  1  0.62480000  0.38760000  0.72110000  1
  O  O796  1  0.62660000  0.50550000  0.33890000  1
  O  O797  1  0.62930000  0.57020000  0.25000000  1
  O  O798  1  0.63000000  0.87310000  0.87820000  1
  O  O799  1  0.63440000  0.18160000  0.41470000  1
  O  O800  1  0.63470000  0.94080000  0.15940000  1
  O  O801  1  0.63580000  0.40240000  0.28890000  1
  O  O802  1  0.63980000  0.80940000  0.78670000  1
  O  O803  1  0.64030000  0.48360000  0.70710000  1
  O  O804  1  0.64360000  0.99970000  0.26790000  1
  O  O805  1  0.64420000  0.37080000  0.15920000  1
  O  O806  1  0.64470000  0.34900000  0.34069000  1
  O  O807  1  0.66040000  0.35320000  0.41940000  1
  O  O808  1  0.66220000  0.21940000  0.12800000  1
  O  O809  1  0.67080000  0.02360000  0.20946000  1
  O  O810  1  0.67340000  0.99370000  0.09020000  1
  O  O811  1  0.67440000  0.88030000  0.32660000  1
  O  O812  1  0.67600000  0.94830000  0.85750000  1
  O  O813  1  0.67910000  0.59130000  0.74760000  1
  O  O814  1  0.68970000  0.04230000  0.40290000  1
  O  O815  1  0.69290000  0.73090000  0.74150000  1
  O  O816  1  0.69380000  0.49350000  0.18070000  1
  O  O817  1  0.70710000  0.07730000  0.32680000  1
  O  O818  1  0.70910000  0.35460000  0.20457000  1
  O  O819  1  0.71470000  0.87570000  0.19190000  1
  O  O820  1  0.71780000  0.10930000  0.13615000  1
  O  O821  1  0.72370000  0.52050000  0.32910000  1
  O  O822  1  0.72560000  0.60350000  0.69200000  1
  O  O823  1  0.72920000  0.39270000  0.38380000  1
  O  O824  1  0.73860000  0.43330000  0.25857000  1
  O  O825  1  0.74790000  0.94840000  0.36970000  1
  O  O826  1  0.75080000  0.22080000  0.42150000  1
  O  O827  1  0.75100000  0.29920000  0.14990000  1
  O  O828  1  0.75210000  0.14270000  0.35419000  1
  O  O829  1  0.76140000  0.97160000  0.14456000  1
  O  O830  1  0.76950000  0.33890000  0.07060000  1
  O  O831  1  0.77440000  0.87440000  0.26136000  1
  O  O832  1  0.77530000  0.17750000  0.11700000  1
  O  O833  1  0.77560000  0.00380000  0.25775000  1
  O  O834  1  0.77870000  0.25850000  0.33700000  1
  O  O835  1  0.78500000  0.30540000  0.28361000  1
  O  O836  1  0.80120000  0.42080000  0.17920000  1
  O  O837  1  0.81220000  0.07530000  0.30850000  1
  O  O838  1  0.82500000  0.02160000  0.18520000  1
  O  O839  1  0.82680000  0.22440000  0.20844000  1
  O  O840  1  0.83390000  0.73950000  0.29860000  1
  O  O841  1  0.84520000  0.91820000  0.30631000  1
  O  O842  1  0.84800000  0.19550000  0.28950000  1
  O  O843  1  0.85470000  0.83990000  0.16890000  1
  O  O844  1  0.86040000  0.15720000  0.40170000  1
  O  O845  1  0.86100000  0.26990000  0.09040000  1
  O  O846  1  0.86120000  0.07900000  0.22503000  1
  O  O847  1  0.86470000  0.09800000  0.16370000  1
  O  O848  1  0.87460000  0.40600000  0.24090000  1
  O  O849  1  0.88390000  0.78020000  0.33560000  1
  O  O850  1  0.88430000  0.01560000  0.36460000  1
  O  O851  1  0.88740000  0.91940000  0.08600000  1
  O  O852  1  0.88790000  0.76530000  0.21430000  1
  O  O853  1  0.89150000  0.89930000  0.22955000  1
  O  O854  1  0.89260000  0.29610000  0.16380000  1
  O  O855  1  0.91220000  0.05390000  0.08100000  1
  O  O856  1  0.92440000  0.83020000  0.78300000  1
  O  O857  1  0.92790000  0.25790000  0.23440000  1
  O  O858  1  0.93610000  0.06630000  0.28463000  1
  O  O859  1  0.93670000  0.93590000  0.13160000  1
  O  O860  1  0.94600000  0.13580000  0.09850000  1
  O  O861  1  0.96020000  0.16730000  0.17399000  1
  O  O862  1  0.97510000  0.36360000  0.20460000  1
  O  O863  1  0.97590000  0.04330000  0.36030000  1
  O  O864  1  0.98190000  0.86260000  0.73540000  1
  O  O865  1  0.98540000  0.92750000  0.29680000  1
  O  O866  1  0.98720000  0.95570000  0.22180000  1
  O  O867  1  0.98800000  0.95080000  0.79090000  1
  O  O868  1  0.99390000  0.82300000  0.27950000  1
