# generated using pymatgen
data_Cd3H30C50(N2O7)2
_symmetry_space_group_name_H-M   'P 1'
_cell_length_a   13.86200000
_cell_length_b   14.47700000
_cell_length_c   14.66400000
_cell_angle_alpha   95.33100000
_cell_angle_beta   106.02100000
_cell_angle_gamma   118.08400000
_symmetry_Int_Tables_number   1
_chemical_formula_structural   Cd3H30C50(N2O7)2
_chemical_formula_sum   'Cd6 H60 C100 N8 O28'
_cell_volume   2407.74789124
_cell_formula_units_Z   2
loop_
 _symmetry_equiv_pos_site_id
 _symmetry_equiv_pos_as_xyz
  1  'x, y, z'
loop_
 _atom_site_type_symbol
 _atom_site_label
 _atom_site_symmetry_multiplicity
 _atom_site_fract_x
 _atom_site_fract_y
 _atom_site_fract_z
 _atom_site_occupancy
  Cd  Cd0  1  0.28356000  0.79385000  0.13661000  1
  Cd  Cd1  1  0.37849000  0.28644000  0.58144000  1
  Cd  Cd2  1  0.47355000  0.27512000  0.83077000  1
  Cd  Cd3  1  0.52645000  0.72488000  0.16923000  1
  Cd  Cd4  1  0.62151000  0.71356000  0.41856000  1
  Cd  Cd5  1  0.71644000  0.20615000  0.86339000  1
  H  H6  1  0.00280000  0.41480000  0.65710000  1
  H  H7  1  0.00380000  0.10430000  0.26130000  1
  H  H8  1  0.01270000  0.12390000  0.82750000  1
  H  H9  1  0.02150000  0.58190000  0.19420000  1
  H  H10  1  0.04420000  0.40780000  0.20410000  1
  H  H11  1  0.07300000  0.23260000  0.98530000  1
  H  H12  1  0.07540000  0.09540000  0.57900000  1
  H  H13  1  0.07910000  0.71940000  0.54190000  1
  H  H14  1  0.08500000  0.61200000  0.94060000  1
  H  H15  1  0.11880000  0.41510000  0.36850000  1
  H  H16  1  0.12450000  0.10480000  0.74540000  1
  H  H17  1  0.14900000  0.11830000  0.39160000  1
  H  H18  1  0.15540000  0.39640000  0.63770000  1
  H  H19  1  0.16310000  0.19840000  0.12310000  1
  H  H20  1  0.16440000  0.90770000  0.82200000  1
  H  H21  1  0.20200000  0.88110000  0.42310000  1
  H  H22  1  0.21710000  0.69110000  0.64360000  1
  H  H23  1  0.25580000  0.41980000  0.49800000  1
  H  H24  1  0.25960000  0.39240000  0.91850000  1
  H  H25  1  0.28830000  0.91430000  0.96630000  1
  H  H26  1  0.30690000  0.33800000  0.25860000  1
  H  H27  1  0.32720000  0.10240000  0.09770000  1
  H  H28  1  0.33070000  0.10940000  0.94640000  1
  H  H29  1  0.34180000  0.10420000  0.40210000  1
  H  H30  1  0.35450000  0.08820000  0.25110000  1
  H  H31  1  0.38420000  0.62720000  0.95320000  1
  H  H32  1  0.39130000  0.83410000  0.75400000  1
  H  H33  1  0.39220000  0.61350000  0.79930000  1
  H  H34  1  0.43190000  0.58880000  0.67280000  1
  H  H35  1  0.45050000  0.58360000  0.52570000  1
  H  H36  1  0.54950000  0.41640000  0.47430000  1
  H  H37  1  0.56810000  0.41120000  0.32720000  1
  H  H38  1  0.60780000  0.38650000  0.20070000  1
  H  H39  1  0.60870000  0.16590000  0.24600000  1
  H  H40  1  0.61580000  0.37280000  0.04680000  1
  H  H41  1  0.64550000  0.91180000  0.74890000  1
  H  H42  1  0.65820000  0.89580000  0.59790000  1
  H  H43  1  0.66930000  0.89060000  0.05360000  1
  H  H44  1  0.67280000  0.89760000  0.90230000  1
  H  H45  1  0.69310000  0.66200000  0.74140000  1
  H  H46  1  0.71170000  0.08570000  0.03370000  1
  H  H47  1  0.74040000  0.60760000  0.08150000  1
  H  H48  1  0.74420000  0.58020000  0.50200000  1
  H  H49  1  0.78290000  0.30890000  0.35640000  1
  H  H50  1  0.79800000  0.11890000  0.57690000  1
  H  H51  1  0.83560000  0.09230000  0.17800000  1
  H  H52  1  0.83690000  0.80160000  0.87690000  1
  H  H53  1  0.84460000  0.60360000  0.36230000  1
  H  H54  1  0.85100000  0.88170000  0.60840000  1
  H  H55  1  0.87550000  0.89520000  0.25460000  1
  H  H56  1  0.88120000  0.58490000  0.63150000  1
  H  H57  1  0.91500000  0.38800000  0.05940000  1
  H  H58  1  0.92090000  0.28060000  0.45810000  1
  H  H59  1  0.92460000  0.90460000  0.42100000  1
  H  H60  1  0.92700000  0.76740000  0.01470000  1
  H  H61  1  0.95580000  0.59220000  0.79590000  1
  H  H62  1  0.97850000  0.41810000  0.80580000  1
  H  H63  1  0.98730000  0.87610000  0.17250000  1
  H  H64  1  0.99620000  0.89570000  0.73870000  1
  H  H65  1  0.99720000  0.58520000  0.34290000  1
  C  C66  1  0.00820000  0.88080000  0.23950000  1
  C  C67  1  0.02220000  0.66000000  0.83000000  1
  C  C68  1  0.03020000  0.10260000  0.61240000  1
  C  C69  1  0.04080000  0.41340000  0.79870000  1
  C  C70  1  0.04280000  0.74850000  0.79260000  1
  C  C71  1  0.04540000  0.25880000  0.29770000  1
  C  C72  1  0.05430000  0.40990000  0.70980000  1
  C  C73  1  0.05610000  0.17050000  0.30820000  1
  C  C74  1  0.05930000  0.10830000  0.71160000  1
  C  C75  1  0.06600000  0.89220000  0.43590000  1
  C  C76  1  0.10040000  0.67320000  0.91730000  1
  C  C77  1  0.10690000  0.87680000  0.28830000  1
  C  C78  1  0.11860000  0.41000000  0.87700000  1
  C  C79  1  0.12310000  0.35320000  0.37150000  1
  C  C80  1  0.12940000  0.28930000  0.04070000  1
  C  C81  1  0.13610000  0.88300000  0.38840000  1
  C  C82  1  0.14310000  0.17920000  0.38710000  1
  C  C83  1  0.14520000  0.84590000  0.84500000  1
  C  C84  1  0.14570000  0.39890000  0.69800000  1
  C  C85  1  0.15050000  0.77790000  0.58530000  1
  C  C86  1  0.15890000  0.39420000  0.04140000  1
  C  C87  1  0.17410000  0.85860000  0.23510000  1
  C  C88  1  0.17650000  0.88270000  0.58980000  1
  C  C89  1  0.18420000  0.26940000  0.12230000  1
  C  C90  1  0.20560000  0.35550000  0.44850000  1
  C  C91  1  0.20830000  0.39720000  0.86560000  1
  C  C92  1  0.21840000  0.84890000  0.93250000  1
  C  C93  1  0.22060000  0.39180000  0.77680000  1
  C  C94  1  0.23300000  0.76150000  0.64650000  1
  C  C95  1  0.24290000  0.48000000  0.12360000  1
  C  C96  1  0.25910000  0.59000000  0.12090000  1
  C  C97  1  0.27020000  0.35300000  0.20370000  1
  C  C98  1  0.28120000  0.97010000  0.65130000  1
  C  C99  1  0.30160000  0.45750000  0.20390000  1
  C  C100  1  0.30340000  0.08230000  0.64980000  1
  C  C101  1  0.31640000  0.37370000  0.76290000  1
  C  C102  1  0.33810000  0.84710000  0.71170000  1
  C  C103  1  0.36610000  0.95530000  0.71490000  1
  C  C104  1  0.38540000  0.16510000  0.09020000  1
  C  C105  1  0.38760000  0.16710000  0.38600000  1
  C  C106  1  0.38860000  0.16970000  0.99820000  1
  C  C107  1  0.39410000  0.15620000  0.29510000  1
  C  C108  1  0.40400000  0.54800000  0.28890000  1
  C  C109  1  0.45130000  0.67930000  0.94520000  1
  C  C110  1  0.45240000  0.67380000  0.85020000  1
  C  C111  1  0.46200000  0.25000000  0.26930000  1
  C  C112  1  0.46250000  0.24720000  0.16900000  1
  C  C113  1  0.47970000  0.65300000  0.65960000  1
  C  C114  1  0.48690000  0.04610000  0.77930000  1
  C  C115  1  0.49130000  0.65050000  0.57150000  1
  C  C116  1  0.50870000  0.34950000  0.42850000  1
  C  C117  1  0.51310000  0.95390000  0.22070000  1
  C  C118  1  0.52030000  0.34700000  0.34040000  1
  C  C119  1  0.53750000  0.75280000  0.83100000  1
  C  C120  1  0.53800000  0.75000000  0.73070000  1
  C  C121  1  0.54760000  0.32620000  0.14980000  1
  C  C122  1  0.54870000  0.32070000  0.05480000  1
  C  C123  1  0.59600000  0.45200000  0.71110000  1
  C  C124  1  0.60590000  0.84380000  0.70490000  1
  C  C125  1  0.61140000  0.83030000  0.00180000  1
  C  C126  1  0.61240000  0.83290000  0.61400000  1
  C  C127  1  0.61460000  0.83490000  0.90980000  1
  C  C128  1  0.63390000  0.04470000  0.28510000  1
  C  C129  1  0.66190000  0.15290000  0.28830000  1
  C  C130  1  0.68360000  0.62630000  0.23710000  1
  C  C131  1  0.69660000  0.91770000  0.35020000  1
  C  C132  1  0.69840000  0.54250000  0.79610000  1
  C  C133  1  0.71880000  0.02990000  0.34870000  1
  C  C134  1  0.72980000  0.64700000  0.79630000  1
  C  C135  1  0.74090000  0.41000000  0.87910000  1
  C  C136  1  0.75710000  0.52000000  0.87640000  1
  C  C137  1  0.76700000  0.23850000  0.35350000  1
  C  C138  1  0.77940000  0.60820000  0.22320000  1
  C  C139  1  0.78160000  0.15110000  0.06750000  1
  C  C140  1  0.79170000  0.60280000  0.13440000  1
  C  C141  1  0.79440000  0.64450000  0.55150000  1
  C  C142  1  0.81580000  0.73060000  0.87770000  1
  C  C143  1  0.82350000  0.11730000  0.41020000  1
  C  C144  1  0.82590000  0.14140000  0.76490000  1
  C  C145  1  0.84110000  0.60580000  0.95860000  1
  C  C146  1  0.84950000  0.22210000  0.41470000  1
  C  C147  1  0.85430000  0.60110000  0.30200000  1
  C  C148  1  0.85480000  0.15410000  0.15500000  1
  C  C149  1  0.85690000  0.82080000  0.61290000  1
  C  C150  1  0.86390000  0.11700000  0.61160000  1
  C  C151  1  0.87060000  0.71070000  0.95930000  1
  C  C152  1  0.87690000  0.64680000  0.62850000  1
  C  C153  1  0.88140000  0.59000000  0.12300000  1
  C  C154  1  0.89310000  0.12320000  0.71170000  1
  C  C155  1  0.89960000  0.32680000  0.08270000  1
  C  C156  1  0.93400000  0.10780000  0.56410000  1
  C  C157  1  0.94070000  0.89170000  0.28840000  1
  C  C158  1  0.94390000  0.82950000  0.69180000  1
  C  C159  1  0.94570000  0.59010000  0.29020000  1
  C  C160  1  0.95460000  0.74120000  0.70230000  1
  C  C161  1  0.95720000  0.25150000  0.20740000  1
  C  C162  1  0.95920000  0.58660000  0.20130000  1
  C  C163  1  0.96980000  0.89740000  0.38760000  1
  C  C164  1  0.97780000  0.34000000  0.17000000  1
  C  C165  1  0.99180000  0.11920000  0.76050000  1
  N  N166  1  0.19680000  0.76620000  0.97200000  1
  N  N167  1  0.21990000  0.27120000  0.45810000  1
  N  N168  1  0.44230000  0.26180000  0.45420000  1
  N  N169  1  0.46360000  0.24870000  0.97770000  1
  N  N170  1  0.53640000  0.75130000  0.02230000  1
  N  N171  1  0.55770000  0.73820000  0.54580000  1
  N  N172  1  0.78010000  0.72880000  0.54190000  1
  N  N173  1  0.80320000  0.23380000  0.02800000  1
  O  O174  1  0.08910000  0.89930000  0.53530000  1
  O  O175  1  0.09840000  0.41730000  0.96370000  1
  O  O176  1  0.15120000  0.85830000  0.14680000  1
  O  O177  1  0.19950000  0.61690000  0.15300000  1
  O  O178  1  0.25230000  0.83690000  0.27710000  1
  O  O179  1  0.30410000  0.13650000  0.72230000  1
  O  O180  1  0.31440000  0.11190000  0.57520000  1
  O  O181  1  0.32080000  0.36590000  0.67990000  1
  O  O182  1  0.32880000  0.64790000  0.08120000  1
  O  O183  1  0.38410000  0.36770000  0.83540000  1
  O  O184  1  0.44490000  0.97440000  0.16310000  1
  O  O185  1  0.44940000  0.52930000  0.36480000  1
  O  O186  1  0.44980000  0.64660000  0.27960000  1
  O  O187  1  0.48260000  0.85890000  0.22820000  1
  O  O188  1  0.51740000  0.14110000  0.77180000  1
  O  O189  1  0.55020000  0.35340000  0.72040000  1
  O  O190  1  0.55060000  0.47070000  0.63520000  1
  O  O191  1  0.55510000  0.02560000  0.83690000  1
  O  O192  1  0.61590000  0.63230000  0.16460000  1
  O  O193  1  0.67120000  0.35210000  0.91880000  1
  O  O194  1  0.67920000  0.63410000  0.32010000  1
  O  O195  1  0.68560000  0.88810000  0.42480000  1
  O  O196  1  0.69590000  0.86350000  0.27770000  1
  O  O197  1  0.74770000  0.16310000  0.72290000  1
  O  O198  1  0.80050000  0.38310000  0.84700000  1
  O  O199  1  0.84880000  0.14170000  0.85320000  1
  O  O200  1  0.90160000  0.58270000  0.03630000  1
  O  O201  1  0.91090000  0.10070000  0.46470000  1
