# generated using pymatgen
data_Cd3H98C94(N5O12)2
_symmetry_space_group_name_H-M   'P 1'
_cell_length_a   9.95160000
_cell_length_b   15.78180000
_cell_length_c   16.55090000
_cell_angle_alpha   110.42100000
_cell_angle_beta   101.58200000
_cell_angle_gamma   90.02900000
_symmetry_Int_Tables_number   1
_chemical_formula_structural   Cd3H98C94(N5O12)2
_chemical_formula_sum   'Cd3 H98 C94 N10 O24'
_cell_volume   2379.36726577
_cell_formula_units_Z   1
loop_
 _symmetry_equiv_pos_site_id
 _symmetry_equiv_pos_as_xyz
  1  'x, y, z'
loop_
 _atom_site_type_symbol
 _atom_site_label
 _atom_site_symmetry_multiplicity
 _atom_site_fract_x
 _atom_site_fract_y
 _atom_site_fract_z
 _atom_site_occupancy
  Cd  Cd0  1  0.04021000  0.22479000  0.43296000  1
  Cd  Cd1  1  0.50000000  0.50000000  0.00000000  1
  Cd  Cd2  1  0.95979000  0.77521000  0.56704000  1
  H  H3  1  0.00650000  0.24050000  0.79450000  1
  H  H4  1  0.01600000  0.80190000  0.03160000  1
  H  H5  1  0.01930000  0.60840000  0.12050000  1
  H  H6  1  0.06280000  0.57580000  0.54790000  1
  H  H7  1  0.06790000  0.51960000  0.76410000  1
  H  H8  1  0.06920000  0.25110000  0.25620000  1
  H  H9  1  0.06950000  0.96710000  0.72970000  1
  H  H10  1  0.07520000  0.09480000  0.84470000  1
  H  H11  1  0.07820000  0.43290000  0.12110000  1
  H  H12  1  0.08950000  0.71450000  0.03310000  1
  H  H13  1  0.10080000  0.47680000  0.62200000  1
  H  H14  1  0.12170000  0.08110000  0.66370000  1
  H  H15  1  0.13310000  0.86740000  0.93760000  1
  H  H16  1  0.16600000  0.23530000  0.14150000  1
  H  H17  1  0.17120000  0.48490000  0.95960000  1
  H  H18  1  0.17470000  0.27570000  0.06840000  1
  H  H19  1  0.17700000  0.80580000  0.05650000  1
  H  H20  1  0.18520000  0.86450000  0.39130000  1
  H  H21  1  0.18820000  0.93600000  0.26650000  1
  H  H22  1  0.20850000  0.30590000  0.63970000  1
  H  H23  1  0.21790000  0.59640000  0.30240000  1
  H  H24  1  0.23260000  0.33390000  0.16810000  1
  H  H25  1  0.25440000  0.63560000  0.98950000  1
  H  H26  1  0.27440000  0.76610000  0.82520000  1
  H  H27  1  0.27650000  0.75850000  0.63940000  1
  H  H28  1  0.29080000  0.35420000  0.43900000  1
  H  H29  1  0.30020000  0.56200000  0.43380000  1
  H  H30  1  0.31430000  0.90670000  0.22190000  1
  H  H31  1  0.33390000  0.18570000  0.68850000  1
  H  H32  1  0.33980000  0.74820000  0.17690000  1
  H  H33  1  0.35230000  0.08590000  0.68480000  1
  H  H34  1  0.38040000  0.59490000  0.60130000  1
  H  H35  1  0.38330000  0.06590000  0.34260000  1
  H  H36  1  0.38820000  0.19650000  0.92720000  1
  H  H37  1  0.39920000  0.39600000  0.73120000  1
  H  H38  1  0.41140000  0.10150000  0.93590000  1
  H  H39  1  0.41270000  0.29620000  0.87180000  1
  H  H40  1  0.43580000  0.16700000  0.76480000  1
  H  H41  1  0.44020000  0.39960000  0.13020000  1
  H  H42  1  0.44200000  0.93280000  0.55010000  1
  H  H43  1  0.44430000  0.67230000  0.57850000  1
  H  H44  1  0.45880000  0.53490000  0.32650000  1
  H  H45  1  0.46010000  0.38160000  0.37260000  1
  H  H46  1  0.46100000  0.11840000  0.51190000  1
  H  H47  1  0.46630000  0.12600000  0.86370000  1
  H  H48  1  0.47590000  0.98960000  0.80960000  1
  H  H49  1  0.47640000  0.83690000  0.72680000  1
  H  H50  1  0.47730000  0.69910000  0.80020000  1
  H  H51  1  0.49540000  0.15570000  0.44160000  1
  H  H52  1  0.50460000  0.84430000  0.55840000  1
  H  H53  1  0.52270000  0.30090000  0.19980000  1
  H  H54  1  0.52360000  0.16310000  0.27320000  1
  H  H55  1  0.52410000  0.01040000  0.19040000  1
  H  H56  1  0.53370000  0.87400000  0.13630000  1
  H  H57  1  0.53900000  0.88160000  0.48810000  1
  H  H58  1  0.53990000  0.61840000  0.62740000  1
  H  H59  1  0.54120000  0.46510000  0.67350000  1
  H  H60  1  0.55570000  0.32770000  0.42150000  1
  H  H61  1  0.55800000  0.06720000  0.44990000  1
  H  H62  1  0.55980000  0.60040000  0.86980000  1
  H  H63  1  0.56420000  0.83300000  0.23520000  1
  H  H64  1  0.58730000  0.70380000  0.12820000  1
  H  H65  1  0.58860000  0.89850000  0.06410000  1
  H  H66  1  0.60080000  0.60400000  0.26880000  1
  H  H67  1  0.61180000  0.80350000  0.07280000  1
  H  H68  1  0.61670000  0.93410000  0.65740000  1
  H  H69  1  0.61960000  0.40510000  0.39870000  1
  H  H70  1  0.64770000  0.91410000  0.31520000  1
  H  H71  1  0.66020000  0.25180000  0.82310000  1
  H  H72  1  0.66610000  0.81430000  0.31150000  1
  H  H73  1  0.68570000  0.09330000  0.77810000  1
  H  H74  1  0.69980000  0.43800000  0.56620000  1
  H  H75  1  0.70920000  0.64580000  0.56100000  1
  H  H76  1  0.72350000  0.24150000  0.36060000  1
  H  H77  1  0.72560000  0.23390000  0.17480000  1
  H  H78  1  0.74560000  0.36440000  0.01050000  1
  H  H79  1  0.76740000  0.66610000  0.83190000  1
  H  H80  1  0.78210000  0.40360000  0.69760000  1
  H  H81  1  0.79150000  0.69410000  0.36030000  1
  H  H82  1  0.81180000  0.06400000  0.73350000  1
  H  H83  1  0.81480000  0.13550000  0.60870000  1
  H  H84  1  0.82300000  0.19420000  0.94350000  1
  H  H85  1  0.82530000  0.72430000  0.93160000  1
  H  H86  1  0.82880000  0.51510000  0.04040000  1
  H  H87  1  0.83400000  0.76470000  0.85850000  1
  H  H88  1  0.86690000  0.13260000  0.06240000  1
  H  H89  1  0.87830000  0.91890000  0.33630000  1
  H  H90  1  0.89920000  0.52320000  0.37800000  1
  H  H91  1  0.91050000  0.28550000  0.96690000  1
  H  H92  1  0.92180000  0.56710000  0.87890000  1
  H  H93  1  0.92480000  0.90520000  0.15530000  1
  H  H94  1  0.93050000  0.03290000  0.27030000  1
  H  H95  1  0.93080000  0.74890000  0.74380000  1
  H  H96  1  0.93210000  0.48040000  0.23590000  1
  H  H97  1  0.93720000  0.42420000  0.45210000  1
  H  H98  1  0.98070000  0.39160000  0.87950000  1
  H  H99  1  0.98400000  0.19810000  0.96840000  1
  H  H100  1  0.99350000  0.75950000  0.20550000  1
  C  C101  1  0.00390000  0.36010000  0.23060000  1
  C  C102  1  0.02060000  0.32710000  0.13450000  1
  C  C103  1  0.03160000  0.30580000  0.28010000  1
  C  C104  1  0.04390000  0.59220000  0.60390000  1
  C  C105  1  0.04770000  0.55800000  0.73230000  1
  C  C106  1  0.06770000  0.37050000  0.87790000  1
  C  C107  1  0.06920000  0.53310000  0.64860000  1
  C  C108  1  0.08340000  0.28030000  0.82670000  1
  C  C109  1  0.09530000  0.76890000  0.02010000  1
  C  C110  1  0.10040000  0.74490000  0.92540000  1
  C  C111  1  0.13330000  0.72400000  0.43300000  1
  C  C112  1  0.15380000  0.94200000  0.72750000  1
  C  C113  1  0.16170000  0.28950000  0.12750000  1
  C  C114  1  0.18200000  0.42580000  0.92470000  1
  C  C115  1  0.19380000  0.72910000  0.35920000  1
  C  C116  1  0.21120000  0.81310000  0.35080000  1
  C  C117  1  0.21520000  0.25140000  0.82470000  1
  C  C118  1  0.22960000  0.65270000  0.29750000  1
  C  C119  1  0.23230000  0.09920000  0.38870000  1
  C  C120  1  0.23560000  0.15310000  0.77130000  1
  C  C121  1  0.23940000  0.70710000  0.90980000  1
  C  C122  1  0.26390000  0.09640000  0.83320000  1
  C  C123  1  0.26460000  0.33400000  0.61630000  1
  C  C124  1  0.26640000  0.82120000  0.28320000  1
  C  C125  1  0.27110000  0.99620000  0.77910000  1
  C  C126  1  0.27480000  0.81870000  0.67530000  1
  C  C127  1  0.27830000  0.91270000  0.27370000  1
  C  C128  1  0.28300000  0.65910000  0.22820000  1
  C  C129  1  0.29800000  0.64800000  0.94970000  1
  C  C130  1  0.30220000  0.74350000  0.22240000  1
  C  C131  1  0.30880000  0.72630000  0.85320000  1
  C  C132  1  0.31480000  0.36190000  0.49860000  1
  C  C133  1  0.31490000  0.57410000  0.15800000  1
  C  C134  1  0.32400000  0.31410000  0.87350000  1
  C  C135  1  0.34970000  0.14740000  0.72300000  1
  C  C136  1  0.35930000  0.04730000  0.38890000  1
  C  C137  1  0.37910000  0.38750000  0.67140000  1
  C  C138  1  0.39340000  0.13320000  0.89520000  1
  C  C139  1  0.39370000  0.95590000  0.77690000  1
  C  C140  1  0.39460000  0.86540000  0.72610000  1
  C  C141  1  0.42970000  0.68630000  0.83800000  1
  C  C142  1  0.43270000  0.41420000  0.54760000  1
  C  C143  1  0.45790000  0.61410000  0.58380000  1
  C  C144  1  0.46370000  0.42830000  0.63700000  1
  C  C145  1  0.47230000  0.54490000  0.49460000  1
  C  C146  1  0.47870000  0.10190000  0.45370000  1
  C  C147  1  0.47870000  0.62720000  0.88010000  1
  C  C148  1  0.52130000  0.37280000  0.11990000  1
  C  C149  1  0.52130000  0.89810000  0.54630000  1
  C  C150  1  0.52770000  0.45510000  0.50540000  1
  C  C151  1  0.53630000  0.57170000  0.36300000  1
  C  C152  1  0.54210000  0.38590000  0.41620000  1
  C  C153  1  0.56730000  0.58580000  0.45240000  1
  C  C154  1  0.57030000  0.31370000  0.16200000  1
  C  C155  1  0.60540000  0.13460000  0.27390000  1
  C  C156  1  0.60630000  0.04410000  0.22310000  1
  C  C157  1  0.60660000  0.86680000  0.10480000  1
  C  C158  1  0.62090000  0.61250000  0.32860000  1
  C  C159  1  0.64070000  0.95270000  0.61110000  1
  C  C160  1  0.65030000  0.85260000  0.27700000  1
  C  C161  1  0.67600000  0.68590000  0.12650000  1
  C  C162  1  0.68510000  0.42590000  0.84200000  1
  C  C163  1  0.68520000  0.63810000  0.50140000  1
  C  C164  1  0.69120000  0.27370000  0.14680000  1
  C  C165  1  0.69780000  0.25650000  0.77760000  1
  C  C166  1  0.70200000  0.35200000  0.05030000  1
  C  C167  1  0.71700000  0.34090000  0.77180000  1
  C  C168  1  0.72170000  0.08730000  0.72630000  1
  C  C169  1  0.72520000  0.18130000  0.32470000  1
  C  C170  1  0.72890000  0.00380000  0.22090000  1
  C  C171  1  0.73360000  0.17880000  0.71680000  1
  C  C172  1  0.73540000  0.66600000  0.38370000  1
  C  C173  1  0.73610000  0.90360000  0.16680000  1
  C  C174  1  0.76060000  0.29290000  0.09020000  1
  C  C175  1  0.76440000  0.84690000  0.22870000  1
  C  C176  1  0.76770000  0.90080000  0.61130000  1
  C  C177  1  0.77040000  0.34730000  0.70250000  1
  C  C178  1  0.78480000  0.74860000  0.17530000  1
  C  C179  1  0.78880000  0.18690000  0.64920000  1
  C  C180  1  0.80620000  0.27090000  0.64080000  1
  C  C181  1  0.81800000  0.57420000  0.07530000  1
  C  C182  1  0.83830000  0.71050000  0.87250000  1
  C  C183  1  0.84620000  0.05800000  0.27250000  1
  C  C184  1  0.86670000  0.27600000  0.56700000  1
  C  C185  1  0.89960000  0.25510000  0.07460000  1
  C  C186  1  0.90470000  0.23110000  0.97990000  1
  C  C187  1  0.91660000  0.71970000  0.17330000  1
  C  C188  1  0.93080000  0.46690000  0.35140000  1
  C  C189  1  0.93230000  0.62950000  0.12210000  1
  C  C190  1  0.95230000  0.44200000  0.26770000  1
  C  C191  1  0.95610000  0.40780000  0.39610000  1
  C  C192  1  0.96840000  0.69420000  0.71990000  1
  C  C193  1  0.97940000  0.67290000  0.86550000  1
  C  C194  1  0.99610000  0.63990000  0.76940000  1
  N  N195  1  0.00640000  0.32870000  0.36270000  1
  N  N196  1  0.15390000  0.85620000  0.67490000  1
  N  N197  1  0.23100000  0.32070000  0.53020000  1
  N  N198  1  0.30860000  0.40030000  0.92350000  1
  N  N199  1  0.41390000  0.60750000  0.93450000  1
  N  N200  1  0.58610000  0.39250000  0.06550000  1
  N  N201  1  0.69140000  0.59970000  0.07650000  1
  N  N202  1  0.76900000  0.67930000  0.46980000  1
  N  N203  1  0.84610000  0.14380000  0.32510000  1
  N  N204  1  0.99360000  0.67130000  0.63730000  1
  O  O205  1  0.00700000  0.39950000  0.10160000  1
  O  O206  1  0.06130000  0.78750000  0.46490000  1
  O  O207  1  0.08730000  0.82360000  0.89860000  1
  O  O208  1  0.10700000  0.11600000  0.71050000  1
  O  O209  1  0.14880000  0.10130000  0.87970000  1
  O  O210  1  0.15210000  0.65830000  0.45860000  1
  O  O211  1  0.16220000  0.09960000  0.44200000  1
  O  O212  1  0.20570000  0.14420000  0.34030000  1
  O  O213  1  0.26160000  0.49920000  0.15090000  1
  O  O214  1  0.33930000  0.51710000  0.43670000  1
  O  O215  1  0.36650000  0.97300000  0.34930000  1
  O  O216  1  0.39480000  0.58470000  0.11220000  1
  O  O217  1  0.60520000  0.41530000  0.88780000  1
  O  O218  1  0.63350000  0.02700000  0.65070000  1
  O  O219  1  0.66070000  0.48290000  0.56330000  1
  O  O220  1  0.73840000  0.50080000  0.84910000  1
  O  O221  1  0.79430000  0.85580000  0.65970000  1
  O  O222  1  0.83780000  0.90040000  0.55800000  1
  O  O223  1  0.84790000  0.34170000  0.54140000  1
  O  O224  1  0.85120000  0.89870000  0.12030000  1
  O  O225  1  0.89300000  0.88400000  0.28950000  1
  O  O226  1  0.91270000  0.17640000  0.10140000  1
  O  O227  1  0.93870000  0.21250000  0.53510000  1
  O  O228  1  0.99300000  0.60050000  0.89840000  1
