# generated using pymatgen
data_FeH5C10N3O4
_symmetry_space_group_name_H-M   'P 1'
_cell_length_a   7.78500000
_cell_length_b   10.23800000
_cell_length_c   15.85100000
_cell_angle_alpha   90.00000000
_cell_angle_beta   90.00000000
_cell_angle_gamma   90.00000000
_symmetry_Int_Tables_number   1
_chemical_formula_structural   FeH5C10N3O4
_chemical_formula_sum   'Fe4 H20 C40 N12 O16'
_cell_volume   1263.36955833
_cell_formula_units_Z   4
loop_
 _symmetry_equiv_pos_site_id
 _symmetry_equiv_pos_as_xyz
  1  'x, y, z'
loop_
 _atom_site_type_symbol
 _atom_site_label
 _atom_site_symmetry_multiplicity
 _atom_site_fract_x
 _atom_site_fract_y
 _atom_site_fract_z
 _atom_site_occupancy
  Fe  Fe0  1  0.13812000  0.97017000  0.90166000  1
  Fe  Fe1  1  0.36188000  0.47017000  0.40166000  1
  Fe  Fe2  1  0.63812000  0.52983000  0.90166000  1
  Fe  Fe3  1  0.86188000  0.02983000  0.40166000  1
  H  H4  1  0.04920000  0.91120000  0.08640000  1
  H  H5  1  0.05570000  0.35990000  0.10270000  1
  H  H6  1  0.06340000  0.99090000  0.70450000  1
  H  H7  1  0.08600000  0.55070000  0.71070000  1
  H  H8  1  0.15760000  0.25160000  0.98540000  1
  H  H9  1  0.34240000  0.75160000  0.48540000  1
  H  H10  1  0.41400000  0.05070000  0.21070000  1
  H  H11  1  0.43660000  0.49090000  0.20450000  1
  H  H12  1  0.44430000  0.85990000  0.60270000  1
  H  H13  1  0.45080000  0.41120000  0.58640000  1
  H  H14  1  0.54920000  0.58880000  0.08640000  1
  H  H15  1  0.55570000  0.14010000  0.10270000  1
  H  H16  1  0.56340000  0.50910000  0.70450000  1
  H  H17  1  0.58600000  0.94930000  0.71070000  1
  H  H18  1  0.65760000  0.24840000  0.98540000  1
  H  H19  1  0.84240000  0.74840000  0.48540000  1
  H  H20  1  0.91400000  0.44930000  0.21070000  1
  H  H21  1  0.93660000  0.00910000  0.20450000  1
  H  H22  1  0.94430000  0.64010000  0.60270000  1
  H  H23  1  0.95080000  0.08880000  0.58640000  1
  C  C24  1  0.01930000  0.93870000  0.65991000  1
  C  C25  1  0.02150000  0.80330000  0.66600000  1
  C  C26  1  0.04700000  0.00390000  0.08913000  1
  C  C27  1  0.04960000  0.26740000  0.09996000  1
  C  C28  1  0.10540000  0.74090000  0.73815000  1
  C  C29  1  0.11110000  0.20190000  0.03056000  1
  C  C30  1  0.13320000  0.24890000  0.42164000  1
  C  C31  1  0.21920000  0.94980000  0.33547000  1
  C  C32  1  0.23240000  0.58700000  0.81253000  1
  C  C33  1  0.23500000  0.20880000  0.34698000  1
  C  C34  1  0.26500000  0.70880000  0.84698000  1
  C  C35  1  0.26760000  0.08700000  0.31253000  1
  C  C36  1  0.28080000  0.44980000  0.83547000  1
  C  C37  1  0.36680000  0.74890000  0.92164000  1
  C  C38  1  0.38890000  0.70190000  0.53056000  1
  C  C39  1  0.39460000  0.24090000  0.23815000  1
  C  C40  1  0.45040000  0.76740000  0.59996000  1
  C  C41  1  0.45300000  0.50390000  0.58913000  1
  C  C42  1  0.47850000  0.30330000  0.16600000  1
  C  C43  1  0.48070000  0.43870000  0.15991000  1
  C  C44  1  0.51930000  0.56130000  0.65991000  1
  C  C45  1  0.52150000  0.69670000  0.66600000  1
  C  C46  1  0.54700000  0.49610000  0.08913000  1
  C  C47  1  0.54960000  0.23260000  0.09996000  1
  C  C48  1  0.60540000  0.75910000  0.73815000  1
  C  C49  1  0.61110000  0.29810000  0.03056000  1
  C  C50  1  0.63320000  0.25110000  0.42164000  1
  C  C51  1  0.71920000  0.55020000  0.33547000  1
  C  C52  1  0.73240000  0.91300000  0.81253000  1
  C  C53  1  0.73500000  0.29120000  0.34698000  1
  C  C54  1  0.76500000  0.79120000  0.84698000  1
  C  C55  1  0.76760000  0.41300000  0.31253000  1
  C  C56  1  0.78080000  0.05020000  0.83547000  1
  C  C57  1  0.86680000  0.75110000  0.92164000  1
  C  C58  1  0.88890000  0.79810000  0.53056000  1
  C  C59  1  0.89460000  0.25910000  0.23815000  1
  C  C60  1  0.95040000  0.73260000  0.59996000  1
  C  C61  1  0.95300000  0.99610000  0.58913000  1
  C  C62  1  0.97850000  0.19670000  0.16600000  1
  C  C63  1  0.98070000  0.06130000  0.15991000  1
  N  N64  1  0.10900000  0.07180000  0.02328000  1
  N  N65  1  0.12940000  0.61032000  0.74455000  1
  N  N66  1  0.18220000  0.80396000  0.80050000  1
  N  N67  1  0.31780000  0.30396000  0.30050000  1
  N  N68  1  0.37060000  0.11032000  0.24455000  1
  N  N69  1  0.39100000  0.57180000  0.52328000  1
  N  N70  1  0.60900000  0.42820000  0.02328000  1
  N  N71  1  0.62940000  0.88968000  0.74455000  1
  N  N72  1  0.68220000  0.69604000  0.80050000  1
  N  N73  1  0.81780000  0.19604000  0.30050000  1
  N  N74  1  0.87060000  0.38968000  0.24455000  1
  N  N75  1  0.89100000  0.92820000  0.52328000  1
  O  O76  1  0.02950000  0.17129000  0.45412000  1
  O  O77  1  0.06780000  0.92543000  0.35673000  1
  O  O78  1  0.15520000  0.36482000  0.44765000  1
  O  O79  1  0.16520000  0.36668000  0.82898000  1
  O  O80  1  0.33480000  0.86668000  0.32898000  1
  O  O81  1  0.34480000  0.86482000  0.94765000  1
  O  O82  1  0.43220000  0.42543000  0.85673000  1
  O  O83  1  0.47050000  0.67129000  0.95412000  1
  O  O84  1  0.52950000  0.32871000  0.45412000  1
  O  O85  1  0.56780000  0.57457000  0.35673000  1
  O  O86  1  0.65520000  0.13518000  0.44765000  1
  O  O87  1  0.66520000  0.13332000  0.82898000  1
  O  O88  1  0.83480000  0.63332000  0.32898000  1
  O  O89  1  0.84480000  0.63518000  0.94765000  1
  O  O90  1  0.93220000  0.07457000  0.85673000  1
  O  O91  1  0.97050000  0.82871000  0.95412000  1
