# generated using pymatgen
data_MnH19C26N5O4
_symmetry_space_group_name_H-M   'P 1'
_cell_length_a   17.65600000
_cell_length_b   19.40840000
_cell_length_c   20.50400000
_cell_angle_alpha   106.26100000
_cell_angle_beta   90.00000000
_cell_angle_gamma   117.05500000
_symmetry_Int_Tables_number   1
_chemical_formula_structural   MnH19C26N5O4
_chemical_formula_sum   'Mn10 H190 C260 N50 O40'
_cell_volume   5939.97990821
_cell_formula_units_Z   10
loop_
 _symmetry_equiv_pos_site_id
 _symmetry_equiv_pos_as_xyz
  1  'x, y, z'
loop_
 _atom_site_type_symbol
 _atom_site_label
 _atom_site_symmetry_multiplicity
 _atom_site_fract_x
 _atom_site_fract_y
 _atom_site_fract_z
 _atom_site_occupancy
  Mn  Mn0  1  0.00966000  0.81442000  0.64789000  1
  Mn  Mn1  1  0.16363000  0.51092000  0.69396000  1
  Mn  Mn2  1  0.18508000  0.16838000  0.42295000  1
  Mn  Mn3  1  0.33863000  0.88530000  0.47626000  1
  Mn  Mn4  1  0.34729000  0.51092000  0.19396000  1
  Mn  Mn5  1  0.51326000  0.23158000  0.25022000  1
  Mn  Mn6  1  0.54667000  0.88530000  0.97626000  1
  Mn  Mn7  1  0.71832000  0.23158000  0.75022000  1
  Mn  Mn8  1  0.80476000  0.81442000  0.14789000  1
  Mn  Mn9  1  0.98330000  0.16838000  0.92295000  1
  H  H10  1  0.00120000  0.03980000  0.07860000  1
  H  H11  1  0.00280000  0.34200000  0.16760000  1
  H  H12  1  0.00370000  0.56180000  0.66080000  1
  H  H13  1  0.00650000  0.99200000  0.40210000  1
  H  H14  1  0.00940000  0.03600000  0.68850000  1
  H  H15  1  0.00950000  0.69440000  0.73490000  1
  H  H16  1  0.02660000  0.03600000  0.18850000  1
  H  H17  1  0.02800000  0.36640000  0.40630000  1
  H  H18  1  0.02800000  0.73940000  0.35430000  1
  H  H19  1  0.03500000  0.76120000  0.05170000  1
  H  H20  1  0.03750000  0.84200000  0.25890000  1
  H  H21  1  0.03860000  0.03980000  0.57860000  1
  H  H22  1  0.05100000  0.80340000  0.82820000  1
  H  H23  1  0.05550000  0.38960000  0.80190000  1
  H  H24  1  0.05970000  0.33120000  0.57240000  1
  H  H25  1  0.06820000  0.43680000  0.25300000  1
  H  H26  1  0.07310000  0.36360000  0.03430000  1
  H  H27  1  0.08530000  0.50300000  0.46580000  1
  H  H28  1  0.09710000  0.96960000  0.32900000  1
  H  H29  1  0.10190000  0.93640000  0.89780000  1
  H  H30  1  0.10410000  0.27900000  0.75390000  1
  H  H31  1  0.11060000  0.89400000  0.12490000  1
  H  H32  1  0.11580000  0.51640000  0.90360000  1
  H  H33  1  0.12450000  0.98080000  0.73670000  1
  H  H34  1  0.12900000  0.49180000  0.10740000  1
  H  H35  1  0.13190000  0.63340000  0.50010000  1
  H  H36  1  0.14840000  0.04500000  0.97570000  1
  H  H37  1  0.14900000  0.57260000  0.31790000  1
  H  H38  1  0.15150000  0.31720000  0.10820000  1
  H  H39  1  0.15490000  0.77280000  0.56890000  1
  H  H40  1  0.16060000  0.86780000  0.40230000  1
  H  H41  1  0.16570000  0.31720000  0.60820000  1
  H  H42  1  0.16750000  0.61440000  0.19190000  1
  H  H43  1  0.16790000  0.35400000  0.68290000  1
  H  H44  1  0.17490000  0.27900000  0.25390000  1
  H  H45  1  0.17540000  0.64660000  0.98250000  1
  H  H46  1  0.17830000  0.39380000  0.86040000  1
  H  H47  1  0.18040000  0.93080000  0.50890000  1
  H  H48  1  0.18460000  0.70560000  0.27610000  1
  H  H49  1  0.18600000  0.09680000  0.81960000  1
  H  H50  1  0.18610000  0.35400000  0.18290000  1
  H  H51  1  0.18730000  0.01380000  0.21120000  1
  H  H52  1  0.19500000  0.39700000  0.97380000  1
  H  H53  1  0.20020000  0.06280000  0.57210000  1
  H  H54  1  0.20200000  0.39700000  0.47380000  1
  H  H55  1  0.20520000  0.17940000  0.04480000  1
  H  H56  1  0.21550000  0.39380000  0.36040000  1
  H  H57  1  0.21600000  0.81900000  0.68200000  1
  H  H58  1  0.22380000  0.68800000  0.38280000  1
  H  H59  1  0.23660000  0.70220000  0.78480000  1
  H  H60  1  0.25300000  0.83940000  0.31680000  1
  H  H61  1  0.25490000  0.77420000  0.98790000  1
  H  H62  1  0.25930000  0.23300000  0.88460000  1
  H  H63  1  0.26630000  0.20720000  0.61020000  1
  H  H64  1  0.27150000  0.33120000  0.07240000  1
  H  H65  1  0.29050000  0.36360000  0.53430000  1
  H  H66  1  0.29250000  0.84040000  0.81730000  1
  H  H67  1  0.29950000  0.63840000  0.53220000  1
  H  H68  1  0.30230000  0.15080000  0.27090000  1
  H  H69  1  0.31690000  0.25440000  0.23720000  1
  H  H70  1  0.32530000  0.97680000  0.36540000  1
  H  H71  1  0.33050000  0.90700000  0.06110000  1
  H  H72  1  0.33270000  0.66940000  0.88200000  1
  H  H73  1  0.33410000  0.38960000  0.30190000  1
  H  H74  1  0.33670000  0.66940000  0.38200000  1
  H  H75  1  0.33750000  0.95340000  0.75590000  1
  H  H76  1  0.33840000  0.36640000  0.90630000  1
  H  H77  1  0.33890000  0.63840000  0.03220000  1
  H  H78  1  0.33900000  0.70700000  0.45650000  1
  H  H79  1  0.33920000  0.34200000  0.66760000  1
  H  H80  1  0.34470000  0.97520000  0.88620000  1
  H  H81  1  0.34570000  0.11880000  0.42170000  1
  H  H82  1  0.34700000  0.75800000  0.63960000  1
  H  H83  1  0.36280000  0.49180000  0.60740000  1
  H  H84  1  0.36800000  0.70700000  0.95650000  1
  H  H85  1  0.36860000  0.43680000  0.75300000  1
  H  H86  1  0.36960000  0.75580000  0.74940000  1
  H  H87  1  0.38100000  0.23420000  0.39720000  1
  H  H88  1  0.38620000  0.75580000  0.24940000  1
  H  H89  1  0.38810000  0.09420000  0.93380000  1
  H  H90  1  0.40030000  0.04600000  0.11910000  1
  H  H91  1  0.40060000  0.51640000  0.40360000  1
  H  H92  1  0.40720000  0.09580000  0.78150000  1
  H  H93  1  0.41100000  0.75800000  0.13960000  1
  H  H94  1  0.41770000  0.50300000  0.96580000  1
  H  H95  1  0.42360000  0.57260000  0.81790000  1
  H  H96  1  0.43430000  0.08620000  0.54920000  1
  H  H97  1  0.44450000  0.22300000  0.00590000  1
  H  H98  1  0.44690000  0.61440000  0.69190000  1
  H  H99  1  0.46420000  0.68800000  0.88280000  1
  H  H100  1  0.46560000  0.70220000  0.28480000  1
  H  H101  1  0.47120000  0.64660000  0.48250000  1
  H  H102  1  0.48130000  0.19220000  0.64790000  1
  H  H103  1  0.48230000  0.23220000  0.84330000  1
  H  H104  1  0.48500000  0.31760000  0.12110000  1
  H  H105  1  0.48580000  0.00220000  0.30960000  1
  H  H106  1  0.49570000  0.44880000  0.20250000  1
  H  H107  1  0.49940000  0.03240000  0.66070000  1
  H  H108  1  0.50150000  0.63340000  0.00010000  1
  H  H109  1  0.50610000  0.35380000  0.48200000  1
  H  H110  1  0.51640000  0.00220000  0.80960000  1
  H  H111  1  0.51930000  0.77420000  0.48790000  1
  H  H112  1  0.52100000  0.70560000  0.77610000  1
  H  H113  1  0.52940000  0.11020000  0.41290000  1
  H  H114  1  0.53300000  0.03240000  0.16070000  1
  H  H115  1  0.53400000  0.07040000  0.73540000  1
  H  H116  1  0.53640000  0.07040000  0.23540000  1
  H  H117  1  0.54550000  0.33560000  0.93080000  1
  H  H118  1  0.54710000  0.32600000  0.72220000  1
  H  H119  1  0.54790000  0.84040000  0.31730000  1
  H  H120  1  0.54930000  0.11060000  0.02270000  1
  H  H121  1  0.55810000  0.56180000  0.16080000  1
  H  H122  1  0.56130000  0.11060000  0.52270000  1
  H  H123  1  0.56240000  0.39540000  0.33130000  1
  H  H124  1  0.56280000  0.44740000  0.58600000  1
  H  H125  1  0.57650000  0.90700000  0.56110000  1
  H  H126  1  0.58080000  0.11020000  0.91290000  1
  H  H127  1  0.58640000  0.83940000  0.81680000  1
  H  H128  1  0.60300000  0.81900000  0.18200000  1
  H  H129  1  0.60930000  0.46640000  0.74660000  1
  H  H130  1  0.61590000  0.95340000  0.25590000  1
  H  H131  1  0.61790000  0.77280000  0.06890000  1
  H  H132  1  0.62570000  0.47340000  0.99000000  1
  H  H133  1  0.63050000  0.97520000  0.38620000  1
  H  H134  1  0.63100000  0.52940000  0.37450000  1
  H  H135  1  0.64570000  0.04600000  0.61910000  1
  H  H136  1  0.64860000  0.56940000  0.67110000  1
  H  H137  1  0.65150000  0.97680000  0.86540000  1
  H  H138  1  0.65190000  0.08620000  0.04920000  1
  H  H139  1  0.65660000  0.35380000  0.08700000  1
  H  H140  1  0.66390000  0.60160000  0.81340000  1
  H  H141  1  0.67760000  0.39160000  0.44440000  1
  H  H142  1  0.68490000  0.69440000  0.23490000  1
  H  H143  1  0.68860000  0.09580000  0.28150000  1
  H  H144  1  0.69210000  0.60620000  0.07860000  1
  H  H145  1  0.69720000  0.35380000  0.58700000  1
  H  H146  1  0.70110000  0.66340000  0.44530000  1
  H  H147  1  0.70610000  0.09420000  0.43380000  1
  H  H148  1  0.70720000  0.86780000  0.90230000  1
  H  H149  1  0.71040000  0.42780000  0.02060000  1
  H  H150  1  0.71090000  0.19220000  0.14790000  1
  H  H151  1  0.71140000  0.73940000  0.85430000  1
  H  H152  1  0.71400000  0.39160000  0.94440000  1
  H  H153  1  0.71740000  0.42780000  0.52060000  1
  H  H154  1  0.72620000  0.76120000  0.55170000  1
  H  H155  1  0.73430000  0.70460000  0.70990000  1
  H  H156  1  0.74990000  0.23220000  0.34330000  1
  H  H157  1  0.75040000  0.93080000  0.00890000  1
  H  H158  1  0.75240000  0.80340000  0.32820000  1
  H  H159  1  0.77310000  0.11880000  0.92170000  1
  H  H160  1  0.77850000  0.22300000  0.50590000  1
  H  H161  1  0.77890000  0.32600000  0.22220000  1
  H  H162  1  0.78340000  0.89400000  0.62490000  1
  H  H163  1  0.79010000  0.33560000  0.43080000  1
  H  H164  1  0.80450000  0.84200000  0.75890000  1
  H  H165  1  0.81710000  0.68000000  0.30170000  1
  H  H166  1  0.82650000  0.01380000  0.71120000  1
  H  H167  1  0.83250000  0.67680000  0.91110000  1
  H  H168  1  0.83260000  0.31760000  0.62110000  1
  H  H169  1  0.83300000  0.39540000  0.83130000  1
  H  H170  1  0.83450000  0.93640000  0.39780000  1
  H  H171  1  0.84430000  0.67680000  0.41110000  1
  H  H172  1  0.84770000  0.35380000  0.98200000  1
  H  H173  1  0.84770000  0.47340000  0.49000000  1
  H  H174  1  0.84850000  0.15080000  0.77090000  1
  H  H175  1  0.85320000  0.23420000  0.89720000  1
  H  H176  1  0.85630000  0.98080000  0.23670000  1
  H  H177  1  0.85710000  0.46640000  0.24660000  1
  H  H178  1  0.86260000  0.06280000  0.07210000  1
  H  H179  1  0.86290000  0.68000000  0.80170000  1
  H  H180  1  0.87250000  0.96960000  0.82900000  1
  H  H181  1  0.88460000  0.44740000  0.08600000  1
  H  H182  1  0.89660000  0.04500000  0.47570000  1
  H  H183  1  0.89840000  0.52940000  0.87450000  1
  H  H184  1  0.91080000  0.09680000  0.31960000  1
  H  H185  1  0.91410000  0.60620000  0.57860000  1
  H  H186  1  0.92080000  0.56940000  0.17110000  1
  H  H187  1  0.93260000  0.91860000  0.97900000  1
  H  H188  1  0.93750000  0.25440000  0.73720000  1
  H  H189  1  0.93770000  0.60160000  0.31340000  1
  H  H190  1  0.94090000  0.20720000  0.11020000  1
  H  H191  1  0.95310000  0.44880000  0.70250000  1
  H  H192  1  0.96230000  0.66340000  0.94530000  1
  H  H193  1  0.96380000  0.95540000  0.32930000  1
  H  H194  1  0.97030000  0.70460000  0.20990000  1
  H  H195  1  0.97370000  0.23300000  0.38460000  1
  H  H196  1  0.97420000  0.17940000  0.54480000  1
  H  H197  1  0.98550000  0.99200000  0.90210000  1
  H  H198  1  0.98600000  0.91860000  0.47900000  1
  H  H199  1  0.99160000  0.95540000  0.82930000  1
  C  C200  1  0.00357000  0.45814000  0.08760000  1
  C  C201  1  0.01928000  0.34296000  0.59502000  1
  C  C202  1  0.01932000  0.34664000  0.01110000  1
  C  C203  1  0.02609000  0.46958000  0.45860000  1
  C  C204  1  0.02741000  0.73142000  0.23030000  1
  C  C205  1  0.03446000  0.08572000  0.67974000  1
  C  C206  1  0.03561000  0.08782000  0.11361000  1
  C  C207  1  0.03634000  0.15408000  0.80310000  1
  C  C208  1  0.04215000  0.46990000  0.26500000  1
  C  C209  1  0.04746000  0.60432000  0.18900000  1
  C  C210  1  0.04777000  0.16254000  0.03350000  1
  C  C211  1  0.04887000  0.60394000  0.69400000  1
  C  C212  1  0.05104000  0.60048000  0.32300000  1
  C  C213  1  0.05126000  0.08572000  0.17974000  1
  C  C214  1  0.05221000  0.08782000  0.61361000  1
  C  C215  1  0.05299000  0.67998000  0.73500000  1
  C  C216  1  0.05383000  0.15766000  0.73303000  1
  C  C217  1  0.06787000  0.81374000  0.26000000  1
  C  C218  1  0.07157000  0.16194000  0.10020000  1
  C  C219  1  0.07208000  0.68656000  0.23040000  1
  C  C220  1  0.07954000  0.66948000  0.96970000  1
  C  C221  1  0.08203000  0.74526000  0.36560000  1
  C  C222  1  0.08483000  0.54506000  0.91310000  1
  C  C223  1  0.08745000  0.50790000  0.11990000  1
  C  C224  1  0.09037000  0.16194000  0.60020000  1
  C  C225  1  0.09045000  0.55110000  0.30420000  1
  C  C226  1  0.09091000  0.23102000  0.71880000  1
  C  C227  1  0.09190000  0.64500000  0.52350000  1
  C  C228  1  0.09423000  0.79046000  0.05360000  1
  C  C229  1  0.10383000  0.15766000  0.23303000  1
  C  C230  1  0.10501000  0.72382000  0.56230000  1
  C  C231  1  0.10863000  0.23446000  0.65410000  1
  C  C232  1  0.10994000  0.83768000  0.84000000  1
  C  C233  1  0.11073000  0.58106000  0.17050000  1
  C  C234  1  0.11477000  0.16254000  0.53350000  1
  C  C235  1  0.11774000  0.15408000  0.30310000  1
  C  C236  1  0.12053000  0.62406000  0.95860000  1
  C  C237  1  0.12583000  0.23446000  0.15410000  1
  C  C238  1  0.13749000  0.75458000  0.01250000  1
  C  C239  1  0.13952000  0.87004000  0.09740000  1
  C  C240  1  0.14011000  0.23102000  0.21880000  1
  C  C241  1  0.14046000  0.91752000  0.88170000  1
  C  C242  1  0.15466000  0.85792000  0.29250000  1
  C  C243  1  0.15500000  0.98900000  0.34380000  1
  C  C244  1  0.15592000  0.73364000  0.26910000  1
  C  C245  1  0.15612000  0.81624000  0.39330000  1
  C  C246  1  0.16111000  0.95782000  0.73220000  1
  C  C247  1  0.16634000  0.80868000  0.81570000  1
  C  C248  1  0.18126000  0.68412000  0.76400000  1
  C  C249  1  0.19305000  0.71610000  0.38250000  1
  C  C250  1  0.19620000  0.81300000  0.29570000  1
  C  C251  1  0.20686000  0.08052000  0.98110000  1
  C  C252  1  0.20960000  0.44320000  0.89500000  1
  C  C253  1  0.21254000  0.86668000  0.70150000  1
  C  C254  1  0.22044000  0.44508000  0.96260000  1
  C  C255  1  0.22464000  0.44508000  0.46260000  1
  C  C256  1  0.22603000  0.79826000  0.01530000  1
  C  C257  1  0.22806000  0.91372000  0.10030000  1
  C  C258  1  0.22863000  0.96966000  0.89957000  1
  C  C259  1  0.23070000  0.51620000  0.80780000  1
  C  C260  1  0.23310000  0.97800000  0.52310000  1
  C  C261  1  0.23360000  0.44320000  0.39500000  1
  C  C262  1  0.23415000  0.51770000  0.58350000  1
  C  C263  1  0.24180000  0.16060000  0.02360000  1
  C  C264  1  0.24290000  0.03720000  0.20070000  1
  C  C265  1  0.24436000  0.05072000  0.55930000  1
  C  C266  1  0.24523000  0.51466000  0.87970000  1
  C  C267  1  0.24587000  0.12414000  0.82580000  1
  C  C268  1  0.24896000  0.51752000  0.51240000  1
  C  C269  1  0.25445000  0.85990000  0.83330000  1
  C  C270  1  0.26245000  0.05490000  0.94660000  1
  C  C271  1  0.26856000  0.51752000  0.01240000  1
  C  C272  1  0.26943000  0.51466000  0.37970000  1
  C  C273  1  0.27131000  0.87782000  0.05920000  1
  C  C274  1  0.28162000  0.94244000  0.74308000  1
  C  C275  1  0.28308000  0.99276000  0.36478000  1
  C  C276  1  0.28355000  0.51770000  0.08350000  1
  C  C277  1  0.28382000  0.58964000  0.49730000  1
  C  C278  1  0.28550000  0.51620000  0.30780000  1
  C  C279  1  0.28572000  0.94064000  0.87490000  1
  C  C280  1  0.28892000  0.08304000  0.79690000  1
  C  C281  1  0.28948000  0.20596000  0.86440000  1
  C  C282  1  0.29481000  0.59062000  0.93100000  1
  C  C283  1  0.29532000  0.07384000  0.39630000  1
  C  C284  1  0.29581000  0.59062000  0.43100000  1
  C  C285  1  0.30582000  0.58964000  0.99730000  1
  C  C286  1  0.30737000  0.11294000  0.23420000  1
  C  C287  1  0.32368000  0.34296000  0.09502000  1
  C  C288  1  0.32386000  0.23192000  0.62900000  1
  C  C289  1  0.32732000  0.34664000  0.51110000  1
  C  C290  1  0.32901000  0.21302000  0.03540000  1
  C  C291  1  0.35170000  0.11140000  0.95750000  1
  C  C292  1  0.36363000  0.05506000  0.14880000  1
  C  C293  1  0.36670000  0.31080000  0.66666667  1
  C  C294  1  0.36751000  0.29842000  0.26328000  1
  C  C295  1  0.37011000  0.19002000  0.62000000  1
  C  C296  1  0.37484000  0.06468000  0.54580000  1
  C  C297  1  0.37706000  0.37432000  0.30040000  1
  C  C298  1  0.37797000  0.12354000  0.80270000  1
  C  C299  1  0.37838000  0.27336000  0.43430000  1
  C  C300  1  0.38041000  0.24782000  0.87270000  1
  C  C301  1  0.38150000  0.80680000  0.67410000  1
  C  C302  1  0.38585000  0.18770000  0.99980000  1
  C  C303  1  0.39108000  0.87636000  0.58700000  1
  C  C304  1  0.39467000  0.80474000  0.73960000  1
  C  C305  1  0.39608000  0.38776000  0.92320000  1
  C  C306  1  0.40834000  0.88028000  0.36162000  1
  C  C307  1  0.41007000  0.80474000  0.23960000  1
  C  C308  1  0.41670000  0.87720000  0.65768000  1
  C  C309  1  0.42045000  0.50790000  0.61990000  1
  C  C310  1  0.42276000  0.20512000  0.83990000  1
  C  C311  1  0.42530000  0.80680000  0.17410000  1
  C  C312  1  0.42775000  0.46990000  0.76500000  1
  C  C313  1  0.43187000  0.87954000  0.29210000  1
  C  C314  1  0.43345000  0.33670000  0.91230000  1
  C  C315  1  0.44349000  0.46958000  0.95860000  1
  C  C316  1  0.44386000  0.33512000  0.12210000  1
  C  C317  1  0.44767000  0.87954000  0.79210000  1
  C  C318  1  0.44886000  0.34192000  0.48177000  1
  C  C319  1  0.44975000  0.35070000  0.70510000  1
  C  C320  1  0.45027000  0.40994000  0.16790000  1
  C  C321  1  0.45270000  0.22320000  0.65410000  1
  C  C322  1  0.45457000  0.45814000  0.58760000  1
  C  C323  1  0.46023000  0.54506000  0.41310000  1
  C  C324  1  0.46050000  0.87720000  0.15768000  1
  C  C325  1  0.46065000  0.55110000  0.80420000  1
  C  C326  1  0.46895000  0.95210000  0.70880000  1
  C  C327  1  0.46972000  0.95284000  0.27540000  1
  C  C328  1  0.47033000  0.58106000  0.67050000  1
  C  C329  1  0.47194000  0.88028000  0.86162000  1
  C  C330  1  0.48312000  0.95284000  0.77540000  1
  C  C331  1  0.48315000  0.95210000  0.20880000  1
  C  C332  1  0.48356000  0.43792000  0.74380000  1
  C  C333  1  0.48528000  0.87636000  0.08700000  1
  C  C334  1  0.49239000  0.30358000  0.69790000  1
  C  C335  1  0.50286000  0.68412000  0.26400000  1
  C  C336  1  0.50353000  0.62406000  0.45860000  1
  C  C337  1  0.50487000  0.37774000  0.31650000  1
  C  C338  1  0.51181000  0.51122000  0.38260000  1
  C  C339  1  0.51993000  0.36926000  0.93770000  1
  C  C340  1  0.52305000  0.71610000  0.88250000  1
  C  C341  1  0.53024000  0.50228000  0.98380000  1
  C  C342  1  0.53989000  0.48118000  0.60710000  1
  C  C343  1  0.54944000  0.60048000  0.82300000  1
  C  C344  1  0.55310000  0.64500000  0.02350000  1
  C  C345  1  0.55507000  0.60394000  0.19400000  1
  C  C346  1  0.55686000  0.60432000  0.68900000  1
  C  C347  1  0.56339000  0.15898000  0.44750000  1
  C  C348  1  0.56794000  0.45188000  0.97320000  1
  C  C349  1  0.57215000  0.48750000  0.76140000  1
  C  C350  1  0.57223000  0.79826000  0.51530000  1
  C  C351  1  0.57396000  0.23392000  0.36310000  1
  C  C352  1  0.57772000  0.73364000  0.76910000  1
  C  C353  1  0.57891000  0.15962000  0.01350000  1
  C  C354  1  0.58071000  0.15962000  0.51350000  1
  C  C355  1  0.58330000  0.22940000  0.13640000  1
  C  C356  1  0.58994000  0.66948000  0.46970000  1
  C  C357  1  0.59139000  0.55418000  0.65800000  1
  C  C358  1  0.59559000  0.15898000  0.94750000  1
  C  C359  1  0.59873000  0.23426000  0.43400000  1
  C  C360  1  0.59902000  0.55424000  0.39520000  1
  C  C361  1  0.60474000  0.56848000  0.80120000  1
  C  C362  1  0.60545000  0.85990000  0.33333333  1
  C  C363  1  0.60599000  0.23298000  0.06650000  1
  C  C364  1  0.60651000  0.87782000  0.55920000  1
  C  C365  1  0.61448000  0.68656000  0.73040000  1
  C  C366  1  0.61680000  0.81300000  0.79570000  1
  C  C367  1  0.61709000  0.75458000  0.51250000  1
  C  C368  1  0.61881000  0.72382000  0.06230000  1
  C  C369  1  0.62699000  0.23298000  0.56650000  1
  C  C370  1  0.62699000  0.67998000  0.23500000  1
  C  C371  1  0.63553000  0.23426000  0.93400000  1
  C  C372  1  0.64134000  0.63388000  0.43770000  1
  C  C373  1  0.64210000  0.30520000  0.05240000  1
  C  C374  1  0.64234000  0.80868000  0.31570000  1
  C  C375  1  0.64610000  0.22940000  0.63640000  1
  C  C376  1  0.64819000  0.30518000  0.48483000  1
  C  C377  1  0.65414000  0.86668000  0.20150000  1
  C  C378  1  0.65492000  0.94064000  0.37490000  1
  C  C379  1  0.65699000  0.30518000  0.98483000  1
  C  C380  1  0.65996000  0.23392000  0.86310000  1
  C  C381  1  0.66008000  0.62936000  0.06730000  1
  C  C382  1  0.66012000  0.81624000  0.89330000  1
  C  C383  1  0.66082000  0.94244000  0.24308000  1
  C  C384  1  0.66310000  0.30520000  0.55240000  1
  C  C385  1  0.66323000  0.74526000  0.86560000  1
  C  C386  1  0.68566000  0.91372000  0.60030000  1
  C  C387  1  0.68984000  0.06468000  0.04580000  1
  C  C388  1  0.69143000  0.05506000  0.64880000  1
  C  C389  1  0.69623000  0.79046000  0.55360000  1
  C  C390  1  0.70326000  0.85792000  0.79250000  1
  C  C391  1  0.70401000  0.73142000  0.73030000  1
  C  C392  1  0.70968000  0.99276000  0.86478000  1
  C  C393  1  0.72774000  0.83768000  0.34000000  1
  C  C394  1  0.73052000  0.87004000  0.59740000  1
  C  C395  1  0.74103000  0.96966000  0.39957000  1
  C  C396  1  0.74490000  0.97800000  0.02310000  1
  C  C397  1  0.74557000  0.12354000  0.30270000  1
  C  C398  1  0.74587000  0.81374000  0.76000000  1
  C  C399  1  0.75970000  0.11140000  0.45750000  1
  C  C400  1  0.77050000  0.22320000  0.15410000  1
  C  C401  1  0.77706000  0.91752000  0.38170000  1
  C  C402  1  0.77852000  0.07384000  0.89630000  1
  C  C403  1  0.78236000  0.20512000  0.33990000  1
  C  C404  1  0.79245000  0.05490000  0.44660000  1
  C  C405  1  0.79412000  0.08304000  0.29690000  1
  C  C406  1  0.79430000  0.03720000  0.70070000  1
  C  C407  1  0.79671000  0.95782000  0.23220000  1
  C  C408  1  0.80185000  0.18770000  0.49980000  1
  C  C409  1  0.80557000  0.11294000  0.73420000  1
  C  C410  1  0.80636000  0.05072000  0.05930000  1
  C  C411  1  0.81119000  0.30358000  0.19790000  1
  C  C412  1  0.81991000  0.19002000  0.12000000  1
  C  C413  1  0.83400000  0.98900000  0.84380000  1
  C  C414  1  0.84933000  0.36926000  0.43770000  1
  C  C415  1  0.85163000  0.72826000  0.33660000  1
  C  C416  1  0.85888000  0.72656000  0.90269000  1
  C  C417  1  0.86399000  0.79638000  0.02683000  1
  C  C418  1  0.86741000  0.24782000  0.37270000  1
  C  C419  1  0.86768000  0.72656000  0.40269000  1
  C  C420  1  0.87020000  0.80580000  0.25660000  1
  C  C421  1  0.87287000  0.37774000  0.81650000  1
  C  C422  1  0.87366000  0.08052000  0.48110000  1
  C  C423  1  0.87663000  0.72826000  0.83660000  1
  C  C424  1  0.87827000  0.12414000  0.32580000  1
  C  C425  1  0.87973000  0.79726000  0.95570000  1
  C  C426  1  0.88394000  0.45188000  0.47320000  1
  C  C427  1  0.88401000  0.21302000  0.53540000  1
  C  C428  1  0.88762000  0.80304000  0.32270000  1
  C  C429  1  0.89126000  0.33512000  0.62210000  1
  C  C430  1  0.89306000  0.34192000  0.98177000  1
  C  C431  1  0.89498000  0.27336000  0.93430000  1
  C  C432  1  0.90095000  0.35070000  0.20510000  1
  C  C433  1  0.90325000  0.33670000  0.41230000  1
  C  C434  1  0.90806000  0.23192000  0.12900000  1
  C  C435  1  0.91535000  0.48750000  0.26140000  1
  C  C436  1  0.91542000  0.80304000  0.82270000  1
  C  C437  1  0.91648000  0.20596000  0.36440000  1
  C  C438  1  0.91739000  0.87058000  0.94340000  1
  C  C439  1  0.91753000  0.79726000  0.45570000  1
  C  C440  1  0.91880000  0.16060000  0.52360000  1
  C  C441  1  0.93091000  0.29842000  0.76328000  1
  C  C442  1  0.93239000  0.79638000  0.52683000  1
  C  C443  1  0.93365000  0.87330000  0.87506000  1
  C  C444  1  0.93560000  0.80580000  0.75660000  1
  C  C445  1  0.93965000  0.87330000  0.37506000  1
  C  C446  1  0.94129000  0.48118000  0.10710000  1
  C  C447  1  0.94410000  0.31080000  0.16670000  1
  C  C448  1  0.95319000  0.87058000  0.44340000  1
  C  C449  1  0.95436000  0.43792000  0.24380000  1
  C  C450  1  0.95522000  0.55424000  0.89520000  1
  C  C451  1  0.95967000  0.40994000  0.66790000  1
  C  C452  1  0.96279000  0.55418000  0.15800000  1
  C  C453  1  0.96374000  0.56848000  0.30120000  1
  C  C454  1  0.96928000  0.62936000  0.56730000  1
  C  C455  1  0.97204000  0.50228000  0.48380000  1
  C  C456  1  0.99168000  0.38776000  0.42320000  1
  C  C457  1  0.99254000  0.63388000  0.93770000  1
  C  C458  1  0.99726000  0.37432000  0.80040000  1
  C  C459  1  0.99941000  0.51122000  0.88260000  1
  N  N460  1  0.00677000  0.58654000  0.52663000  1
  N  N461  1  0.02851000  0.71362000  0.58875000  1
  N  N462  1  0.03782000  0.41304000  0.65041000  1
  N  N463  1  0.10457000  0.68054000  0.35750000  1
  N  N464  1  0.12787000  0.60634000  0.71460000  1
  N  N465  1  0.13548000  0.72816000  0.77530000  1
  N  N466  1  0.13958000  0.87580000  0.69513000  1
  N  N467  1  0.15299000  0.31164000  0.64757000  1
  N  N468  1  0.15865000  0.31164000  0.14757000  1
  N  N469  1  0.19918000  0.94256000  0.33360000  1
  N  N470  1  0.21639000  0.07238000  0.38135000  1
  N  N471  1  0.22684000  0.80168000  0.40690000  1
  N  N472  1  0.24738000  0.99696000  0.76046000  1
  N  N473  1  0.27610000  0.99970000  0.14576000  1
  N  N474  1  0.30218000  0.27716000  0.45539000  1
  N  N475  1  0.31501000  0.98322000  0.50920000  1
  N  N476  1  0.32773000  0.66466000  0.42210000  1
  N  N477  1  0.33310000  0.10780000  0.57590000  1
  N  N478  1  0.33693000  0.66466000  0.92210000  1
  N  N479  1  0.36413000  0.29386000  0.07953000  1
  N  N480  1  0.37522000  0.41304000  0.15041000  1
  N  N481  1  0.38633000  0.12626000  0.20421000  1
  N  N482  1  0.41905000  0.38810000  0.52755000  1
  N  N483  1  0.44622000  0.29924000  0.27155000  1
  N  N484  1  0.46108000  0.42456000  0.33508000  1
  N  N485  1  0.47847000  0.60634000  0.21460000  1
  N  N486  1  0.50534000  0.02768000  0.70060000  1
  N  N487  1  0.52234000  0.02768000  0.20060000  1
  N  N488  1  0.57484000  0.80168000  0.90690000  1
  N  N489  1  0.57597000  0.68054000  0.85750000  1
  N  N490  1  0.57977000  0.58654000  0.02663000  1
  N  N491  1  0.59268000  0.72816000  0.27530000  1
  N  N492  1  0.66821000  0.98322000  0.00920000  1
  N  N493  1  0.68511000  0.71362000  0.08875000  1
  N  N494  1  0.68533000  0.38346000  0.48438000  1
  N  N495  1  0.69813000  0.38346000  0.98438000  1
  N  N496  1  0.72360000  0.99970000  0.64576000  1
  N  N497  1  0.73622000  0.87580000  0.19513000  1
  N  N498  1  0.73993000  0.12626000  0.70421000  1
  N  N499  1  0.74338000  0.94256000  0.83360000  1
  N  N500  1  0.74958000  0.99696000  0.26046000  1
  N  N501  1  0.77470000  0.10780000  0.07590000  1
  N  N502  1  0.85302000  0.29924000  0.77155000  1
  N  N503  1  0.85599000  0.07238000  0.88135000  1
  N  N504  1  0.92973000  0.29386000  0.57953000  1
  N  N505  1  0.96348000  0.42456000  0.83508000  1
  N  N506  1  0.96905000  0.38810000  0.02755000  1
  N  N507  1  0.97433000  0.94980000  0.36793000  1
  N  N508  1  0.97498000  0.27716000  0.95539000  1
  N  N509  1  0.97547000  0.94980000  0.86793000  1
  O  O510  1  0.02352000  0.09886000  0.82602000  1
  O  O511  1  0.04054000  0.21734000  0.84252000  1
  O  O512  1  0.07534000  0.09886000  0.32602000  1
  O  O513  1  0.08119000  0.22486000  0.01711000  1
  O  O514  1  0.10453000  0.09914000  0.48913000  1
  O  O515  1  0.14367000  0.22486000  0.51711000  1
  O  O516  1  0.17680000  0.21734000  0.34252000  1
  O  O517  1  0.17987000  0.45290000  0.76486000  1
  O  O518  1  0.21280000  0.46120000  0.60751000  1
  O  O519  1  0.24311000  0.58418000  0.62419000  1
  O  O520  1  0.24840000  0.46120000  0.10751000  1
  O  O521  1  0.27248000  0.57884000  0.79036000  1
  O  O522  1  0.27303000  0.45290000  0.26486000  1
  O  O523  1  0.30636000  0.57884000  0.29036000  1
  O  O524  1  0.32740000  0.81676000  0.54865000  1
  O  O525  1  0.34107000  0.58418000  0.12419000  1
  O  O526  1  0.38152000  0.81844000  0.38105000  1
  O  O527  1  0.41324000  0.94218000  0.40223000  1
  O  O528  1  0.43692000  0.81844000  0.88105000  1
  O  O529  1  0.43985000  0.93968000  0.57318000  1
  O  O530  1  0.48936000  0.81676000  0.04865000  1
  O  O531  1  0.49983000  0.93968000  0.07318000  1
  O  O532  1  0.51512000  0.17092000  0.31942000  1
  O  O533  1  0.52894000  0.94218000  0.90223000  1
  O  O534  1  0.55609000  0.17120000  0.16039000  1
  O  O535  1  0.59065000  0.29402000  0.17642000  1
  O  O536  1  0.61511000  0.17120000  0.66039000  1
  O  O537  1  0.61570000  0.29626000  0.34906000  1
  O  O538  1  0.65580000  0.17092000  0.81942000  1
  O  O539  1  0.68056000  0.29626000  0.84906000  1
  O  O540  1  0.70337000  0.29402000  0.67642000  1
  O  O541  1  0.81498000  0.74164000  0.21065000  1
  O  O542  1  0.84817000  0.73966000  0.04928000  1
  O  O543  1  0.86722000  0.86010000  0.06647000  1
  O  O544  1  0.89149000  0.73966000  0.54928000  1
  O  O545  1  0.90374000  0.86742000  0.23835000  1
  O  O546  1  0.92666000  0.74164000  0.71065000  1
  O  O547  1  0.96368000  0.86742000  0.73835000  1
  O  O548  1  0.99288000  0.86010000  0.56647000  1
  O  O549  1  0.99461000  0.09914000  0.98913000  1
