# generated using pymatgen
data_MnH4C4O5
_symmetry_space_group_name_H-M   'P 1'
_cell_length_a   7.95390000
_cell_length_b   7.95390000
_cell_length_c   13.18900000
_cell_angle_alpha   90.00000000
_cell_angle_beta   90.00000000
_cell_angle_gamma   90.00000000
_symmetry_Int_Tables_number   1
_chemical_formula_structural   MnH4C4O5
_chemical_formula_sum   'Mn4 H16 C16 O20'
_cell_volume   834.39582299
_cell_formula_units_Z   4
loop_
 _symmetry_equiv_pos_site_id
 _symmetry_equiv_pos_as_xyz
  1  'x, y, z'
loop_
 _atom_site_type_symbol
 _atom_site_label
 _atom_site_symmetry_multiplicity
 _atom_site_fract_x
 _atom_site_fract_y
 _atom_site_fract_z
 _atom_site_occupancy
  Mn  Mn0  1  0.13538000  0.46490000  0.59223000  1
  Mn  Mn1  1  0.46490000  0.86462000  0.34223000  1
  Mn  Mn2  1  0.53510000  0.13538000  0.84223000  1
  Mn  Mn3  1  0.86462000  0.53510000  0.09223000  1
  H  H4  1  0.08450000  0.38900000  0.40070000  1
  H  H5  1  0.15400000  0.70840000  0.88500000  1
  H  H6  1  0.24780000  0.38900000  0.95940000  1
  H  H7  1  0.29160000  0.15400000  0.13500000  1
  H  H8  1  0.38400000  0.52320000  0.93160000  1
  H  H9  1  0.38900000  0.75220000  0.70940000  1
  H  H10  1  0.38900000  0.91550000  0.15070000  1
  H  H11  1  0.47680000  0.38400000  0.18160000  1
  H  H12  1  0.52320000  0.61600000  0.68160000  1
  H  H13  1  0.61100000  0.08450000  0.65070000  1
  H  H14  1  0.61100000  0.24780000  0.20940000  1
  H  H15  1  0.61600000  0.47680000  0.43160000  1
  H  H16  1  0.70840000  0.84600000  0.63500000  1
  H  H17  1  0.75220000  0.61100000  0.45940000  1
  H  H18  1  0.84600000  0.29160000  0.38500000  1
  H  H19  1  0.91550000  0.61100000  0.90070000  1
  C  C20  1  0.14700000  0.62360000  0.93870000  1
  C  C21  1  0.18990000  0.70740000  0.04040000  1
  C  C22  1  0.27010000  0.42370000  0.80720000  1
  C  C23  1  0.27180000  0.48370000  0.91540000  1
  C  C24  1  0.29260000  0.18990000  0.29040000  1
  C  C25  1  0.37640000  0.14700000  0.18870000  1
  C  C26  1  0.42370000  0.72990000  0.55720000  1
  C  C27  1  0.48370000  0.72820000  0.66540000  1
  C  C28  1  0.51630000  0.27180000  0.16540000  1
  C  C29  1  0.57630000  0.27010000  0.05720000  1
  C  C30  1  0.62360000  0.85300000  0.68870000  1
  C  C31  1  0.70740000  0.81010000  0.79040000  1
  C  C32  1  0.72820000  0.51630000  0.41540000  1
  C  C33  1  0.72990000  0.57630000  0.30720000  1
  C  C34  1  0.81010000  0.29260000  0.54040000  1
  C  C35  1  0.85300000  0.37640000  0.43870000  1
  O  O36  1  0.02040000  0.44100000  0.44164000  1
  O  O37  1  0.09570000  0.68260000  0.11432000  1
  O  O38  1  0.16310000  0.48370000  0.74940000  1
  O  O39  1  0.20810000  0.31970000  0.29160000  1
  O  O40  1  0.31740000  0.09570000  0.36432000  1
  O  O41  1  0.31970000  0.79190000  0.04160000  1
  O  O42  1  0.32160000  0.62090000  0.52941000  1
  O  O43  1  0.37910000  0.32160000  0.77941000  1
  O  O44  1  0.44100000  0.97960000  0.19164000  1
  O  O45  1  0.48370000  0.83690000  0.49940000  1
  O  O46  1  0.51630000  0.16310000  0.99940000  1
  O  O47  1  0.55900000  0.02040000  0.69164000  1
  O  O48  1  0.62090000  0.67840000  0.27941000  1
  O  O49  1  0.67840000  0.37910000  0.02941000  1
  O  O50  1  0.68030000  0.20810000  0.54160000  1
  O  O51  1  0.68260000  0.90430000  0.86432000  1
  O  O52  1  0.79190000  0.68030000  0.79160000  1
  O  O53  1  0.83690000  0.51630000  0.24940000  1
  O  O54  1  0.90430000  0.31740000  0.61432000  1
  O  O55  1  0.97960000  0.55900000  0.94164000  1
