# generated using pymatgen
data_Cd4Cu6H55C46(N2O11)2
_symmetry_space_group_name_H-M   'P 1'
_cell_length_a   26.34300000
_cell_length_b   27.15800000
_cell_length_c   27.15800000
_cell_angle_alpha   90.00000000
_cell_angle_beta   90.00000000
_cell_angle_gamma   90.00000000
_symmetry_Int_Tables_number   1
_chemical_formula_structural   Cd4Cu6H55C46(N2O11)2
_chemical_formula_sum   'Cd32 Cu48 H440 C368 N32 O176'
_cell_volume   19429.46310265
_cell_formula_units_Z   8
loop_
 _symmetry_equiv_pos_site_id
 _symmetry_equiv_pos_as_xyz
  1  'x, y, z'
loop_
 _atom_site_type_symbol
 _atom_site_label
 _atom_site_symmetry_multiplicity
 _atom_site_fract_x
 _atom_site_fract_y
 _atom_site_fract_z
 _atom_site_occupancy
  Cd  Cd0  1  0.09635000  0.11147000  0.40098000  1
  Cd  Cd1  1  0.09635000  0.38853000  0.90098000  1
  Cd  Cd2  1  0.13420000  0.15979000  0.81248000  1
  Cd  Cd3  1  0.13420000  0.34021000  0.31248000  1
  Cd  Cd4  1  0.16817000  0.69919000  0.37567000  1
  Cd  Cd5  1  0.16817000  0.80081000  0.87567000  1
  Cd  Cd6  1  0.19828000  0.14219000  0.17475000  1
  Cd  Cd7  1  0.19828000  0.35781000  0.67475000  1
  Cd  Cd8  1  0.30172000  0.64219000  0.17475000  1
  Cd  Cd9  1  0.30172000  0.85781000  0.67475000  1
  Cd  Cd10  1  0.33183000  0.19919000  0.37567000  1
  Cd  Cd11  1  0.33183000  0.30081000  0.87567000  1
  Cd  Cd12  1  0.36580000  0.65979000  0.81248000  1
  Cd  Cd13  1  0.36580000  0.84021000  0.31248000  1
  Cd  Cd14  1  0.40365000  0.61147000  0.40098000  1
  Cd  Cd15  1  0.40365000  0.88853000  0.90098000  1
  Cd  Cd16  1  0.59635000  0.11147000  0.09902000  1
  Cd  Cd17  1  0.59635000  0.38853000  0.59902000  1
  Cd  Cd18  1  0.63420000  0.15979000  0.68752000  1
  Cd  Cd19  1  0.63420000  0.34021000  0.18752000  1
  Cd  Cd20  1  0.66817000  0.69919000  0.12433000  1
  Cd  Cd21  1  0.66817000  0.80081000  0.62433000  1
  Cd  Cd22  1  0.69828000  0.14219000  0.32525000  1
  Cd  Cd23  1  0.69828000  0.35781000  0.82525000  1
  Cd  Cd24  1  0.80172000  0.64219000  0.32525000  1
  Cd  Cd25  1  0.80172000  0.85781000  0.82525000  1
  Cd  Cd26  1  0.83183000  0.19919000  0.12433000  1
  Cd  Cd27  1  0.83183000  0.30081000  0.62433000  1
  Cd  Cd28  1  0.86580000  0.65979000  0.68752000  1
  Cd  Cd29  1  0.86580000  0.84021000  0.18752000  1
  Cd  Cd30  1  0.90365000  0.61147000  0.09902000  1
  Cd  Cd31  1  0.90365000  0.88853000  0.59902000  1
  Cu  Cu32  1  0.11871000  0.22366000  0.35470000  1
  Cu  Cu33  1  0.11871000  0.27634000  0.85470000  1
  Cu  Cu34  1  0.14530000  0.13232000  0.28722000  1
  Cu  Cu35  1  0.14530000  0.36768000  0.78722000  1
  Cu  Cu36  1  0.16542000  0.24166000  0.24866000  1
  Cu  Cu37  1  0.16542000  0.25834000  0.74866000  1
  Cu  Cu38  1  0.21188000  0.15427000  0.38134000  1
  Cu  Cu39  1  0.21188000  0.34573000  0.88134000  1
  Cu  Cu40  1  0.23205000  0.23655000  0.84279000  1
  Cu  Cu41  1  0.23205000  0.26345000  0.34279000  1
  Cu  Cu42  1  0.24191000  0.67162000  0.27474000  1
  Cu  Cu43  1  0.24191000  0.82838000  0.77474000  1
  Cu  Cu44  1  0.25809000  0.17162000  0.27474000  1
  Cu  Cu45  1  0.25809000  0.32838000  0.77474000  1
  Cu  Cu46  1  0.26795000  0.73655000  0.84279000  1
  Cu  Cu47  1  0.26795000  0.76345000  0.34279000  1
  Cu  Cu48  1  0.28812000  0.65427000  0.38134000  1
  Cu  Cu49  1  0.28812000  0.84573000  0.88134000  1
  Cu  Cu50  1  0.33458000  0.74166000  0.24866000  1
  Cu  Cu51  1  0.33458000  0.75834000  0.74866000  1
  Cu  Cu52  1  0.35470000  0.63232000  0.28722000  1
  Cu  Cu53  1  0.35470000  0.86768000  0.78722000  1
  Cu  Cu54  1  0.38129000  0.72366000  0.35470000  1
  Cu  Cu55  1  0.38129000  0.77634000  0.85470000  1
  Cu  Cu56  1  0.61871000  0.22366000  0.14530000  1
  Cu  Cu57  1  0.61871000  0.27634000  0.64530000  1
  Cu  Cu58  1  0.64530000  0.13232000  0.21278000  1
  Cu  Cu59  1  0.64530000  0.36768000  0.71278000  1
  Cu  Cu60  1  0.66542000  0.24166000  0.25134000  1
  Cu  Cu61  1  0.66542000  0.25834000  0.75134000  1
  Cu  Cu62  1  0.71188000  0.15427000  0.11866000  1
  Cu  Cu63  1  0.71188000  0.34573000  0.61866000  1
  Cu  Cu64  1  0.73205000  0.23655000  0.65721000  1
  Cu  Cu65  1  0.73205000  0.26345000  0.15721000  1
  Cu  Cu66  1  0.74191000  0.67162000  0.22526000  1
  Cu  Cu67  1  0.74191000  0.82838000  0.72526000  1
  Cu  Cu68  1  0.75809000  0.17162000  0.22526000  1
  Cu  Cu69  1  0.75809000  0.32838000  0.72526000  1
  Cu  Cu70  1  0.76795000  0.73655000  0.65721000  1
  Cu  Cu71  1  0.76795000  0.76345000  0.15721000  1
  Cu  Cu72  1  0.78812000  0.65427000  0.11866000  1
  Cu  Cu73  1  0.78812000  0.84573000  0.61866000  1
  Cu  Cu74  1  0.83458000  0.74166000  0.25134000  1
  Cu  Cu75  1  0.83458000  0.75834000  0.75134000  1
  Cu  Cu76  1  0.85470000  0.63232000  0.21278000  1
  Cu  Cu77  1  0.85470000  0.86768000  0.71278000  1
  Cu  Cu78  1  0.88129000  0.72366000  0.14530000  1
  Cu  Cu79  1  0.88129000  0.77634000  0.64530000  1
  H  H80  1  0.00800000  0.72710000  0.79210000  1
  H  H81  1  0.00800000  0.77290000  0.29210000  1
  H  H82  1  0.01840000  0.18170000  0.32380000  1
  H  H83  1  0.01840000  0.31830000  0.82380000  1
  H  H84  1  0.02310000  0.63200000  0.26600000  1
  H  H85  1  0.02310000  0.86800000  0.76600000  1
  H  H86  1  0.03050000  0.13590000  0.29080000  1
  H  H87  1  0.03050000  0.36410000  0.79080000  1
  H  H88  1  0.03430000  0.23470000  0.79330000  1
  H  H89  1  0.03430000  0.26530000  0.29330000  1
  H  H90  1  0.05840000  0.22600000  0.74140000  1
  H  H91  1  0.05840000  0.27400000  0.24140000  1
  H  H92  1  0.06540000  0.66960000  0.66410000  1
  H  H93  1  0.06540000  0.83040000  0.16410000  1
  H  H94  1  0.07060000  0.15030000  0.20570000  1
  H  H95  1  0.07060000  0.34970000  0.70570000  1
  H  H96  1  0.08070000  0.20420000  0.18830000  1
  H  H97  1  0.08070000  0.29580000  0.68830000  1
  H  H98  1  0.08190000  0.73140000  0.83460000  1
  H  H99  1  0.08190000  0.76860000  0.33460000  1
  H  H100  1  0.09490000  0.15660000  0.62500000  1
  H  H101  1  0.09490000  0.34340000  0.12500000  1
  H  H102  1  0.09700000  0.01850000  0.10680000  1
  H  H103  1  0.09700000  0.48150000  0.60680000  1
  H  H104  1  0.09930000  0.63210000  0.30610000  1
  H  H105  1  0.09930000  0.86790000  0.80610000  1
  H  H106  1  0.10450000  0.60370000  0.17910000  1
  H  H107  1  0.10450000  0.89630000  0.67910000  1
  H  H108  1  0.10510000  0.66020000  0.16710000  1
  H  H109  1  0.10510000  0.83980000  0.66710000  1
  H  H110  1  0.11140000  0.10690000  0.64950000  1
  H  H111  1  0.11140000  0.39310000  0.14950000  1
  H  H112  1  0.11650000  0.70910000  0.71750000  1
  H  H113  1  0.11650000  0.79090000  0.21750000  1
  H  H114  1  0.11680000  0.21620000  0.46370000  1
  H  H115  1  0.11680000  0.28380000  0.96370000  1
  H  H116  1  0.12640000  0.64000000  0.92580000  1
  H  H117  1  0.12640000  0.86000000  0.42580000  1
  H  H118  1  0.12780000  0.62240000  0.12930000  1
  H  H119  1  0.12780000  0.87760000  0.62930000  1
  H  H120  1  0.13370000  0.19730000  0.93320000  1
  H  H121  1  0.13370000  0.30270000  0.43320000  1
  H  H122  1  0.13880000  0.51490000  0.63070000  1
  H  H123  1  0.13880000  0.98510000  0.13070000  1
  H  H124  1  0.13990000  0.22570000  0.54330000  1
  H  H125  1  0.13990000  0.27430000  0.04330000  1
  H  H126  1  0.14430000  0.23570000  0.11990000  1
  H  H127  1  0.14430000  0.26430000  0.61990000  1
  H  H128  1  0.14890000  0.01040000  0.07980000  1
  H  H129  1  0.14890000  0.48960000  0.57980000  1
  H  H130  1  0.15220000  0.14120000  0.62530000  1
  H  H131  1  0.15220000  0.35880000  0.12530000  1
  H  H132  1  0.15740000  0.60760000  0.88870000  1
  H  H133  1  0.15740000  0.89240000  0.38870000  1
  H  H134  1  0.15900000  0.74070000  0.25700000  1
  H  H135  1  0.15900000  0.75930000  0.75700000  1
  H  H136  1  0.16230000  0.18220000  0.47840000  1
  H  H137  1  0.16230000  0.31780000  0.97840000  1
  H  H138  1  0.16920000  0.71380000  0.79100000  1
  H  H139  1  0.16920000  0.78620000  0.29100000  1
  H  H140  1  0.17100000  0.03160000  0.33090000  1
  H  H141  1  0.17100000  0.46840000  0.83090000  1
  H  H142  1  0.17660000  0.07870000  0.74430000  1
  H  H143  1  0.17660000  0.42130000  0.24430000  1
  H  H144  1  0.18090000  0.60870000  0.60710000  1
  H  H145  1  0.18090000  0.89130000  0.10710000  1
  H  H146  1  0.18100000  0.62200000  0.93970000  1
  H  H147  1  0.18100000  0.87800000  0.43970000  1
  H  H148  1  0.18570000  0.58390000  0.31460000  1
  H  H149  1  0.18570000  0.91610000  0.81460000  1
  H  H150  1  0.18990000  0.17970000  0.92600000  1
  H  H151  1  0.18990000  0.32030000  0.42600000  1
  H  H152  1  0.20370000  0.04320000  0.37760000  1
  H  H153  1  0.20370000  0.45680000  0.87760000  1
  H  H154  1  0.20500000  0.10210000  0.55140000  1
  H  H155  1  0.20500000  0.39790000  0.05140000  1
  H  H156  1  0.20530000  0.04560000  0.24890000  1
  H  H157  1  0.20530000  0.45440000  0.74890000  1
  H  H158  1  0.20670000  0.57490000  0.36790000  1
  H  H159  1  0.20670000  0.92510000  0.86790000  1
  H  H160  1  0.21120000  0.09290000  0.87870000  1
  H  H161  1  0.21120000  0.40710000  0.37870000  1
  H  H162  1  0.21350000  0.72850000  0.18030000  1
  H  H163  1  0.21350000  0.77150000  0.68030000  1
  H  H164  1  0.22110000  0.04880000  0.53560000  1
  H  H165  1  0.22110000  0.45120000  0.03560000  1
  H  H166  1  0.22190000  0.00270000  0.74270000  1
  H  H167  1  0.22190000  0.49730000  0.24270000  1
  H  H168  1  0.22700000  0.16120000  0.72920000  1
  H  H169  1  0.22700000  0.33880000  0.22920000  1
  H  H170  1  0.23110000  0.64750000  0.66400000  1
  H  H171  1  0.23110000  0.85250000  0.16400000  1
  H  H172  1  0.23510000  0.17070000  0.99500000  1
  H  H173  1  0.23510000  0.32930000  0.49500000  1
  H  H174  1  0.23670000  0.73750000  0.94930000  1
  H  H175  1  0.23670000  0.76250000  0.44930000  1
  H  H176  1  0.23880000  0.65770000  0.77630000  1
  H  H177  1  0.23880000  0.84230000  0.27630000  1
  H  H178  1  0.23900000  0.14150000  0.07200000  1
  H  H179  1  0.23900000  0.35850000  0.57200000  1
  H  H180  1  0.23940000  0.56560000  0.24240000  1
  H  H181  1  0.23940000  0.93440000  0.74240000  1
  H  H182  1  0.23990000  0.23680000  0.67110000  1
  H  H183  1  0.23990000  0.26320000  0.17110000  1
  H  H184  1  0.24100000  0.59270000  0.52900000  1
  H  H185  1  0.24100000  0.90730000  0.02900000  1
  H  H186  1  0.24570000  0.01290000  0.88320000  1
  H  H187  1  0.24570000  0.48710000  0.38320000  1
  H  H188  1  0.24910000  0.70940000  0.46850000  1
  H  H189  1  0.24910000  0.79060000  0.96850000  1
  H  H190  1  0.25090000  0.20940000  0.46850000  1
  H  H191  1  0.25090000  0.29060000  0.96850000  1
  H  H192  1  0.25430000  0.51290000  0.88320000  1
  H  H193  1  0.25430000  0.98710000  0.38320000  1
  H  H194  1  0.25900000  0.09270000  0.52900000  1
  H  H195  1  0.25900000  0.40730000  0.02900000  1
  H  H196  1  0.26010000  0.73680000  0.67110000  1
  H  H197  1  0.26010000  0.76320000  0.17110000  1
  H  H198  1  0.26060000  0.06560000  0.24240000  1
  H  H199  1  0.26060000  0.43440000  0.74240000  1
  H  H200  1  0.26100000  0.64150000  0.07200000  1
  H  H201  1  0.26100000  0.85850000  0.57200000  1
  H  H202  1  0.26120000  0.15770000  0.77630000  1
  H  H203  1  0.26120000  0.34230000  0.27630000  1
  H  H204  1  0.26330000  0.23750000  0.94930000  1
  H  H205  1  0.26330000  0.26250000  0.44930000  1
  H  H206  1  0.26490000  0.67070000  0.99500000  1
  H  H207  1  0.26490000  0.82930000  0.49500000  1
  H  H208  1  0.26890000  0.14750000  0.66400000  1
  H  H209  1  0.26890000  0.35250000  0.16400000  1
  H  H210  1  0.27300000  0.66120000  0.72920000  1
  H  H211  1  0.27300000  0.83880000  0.22920000  1
  H  H212  1  0.27810000  0.50270000  0.74270000  1
  H  H213  1  0.27810000  0.99730000  0.24270000  1
  H  H214  1  0.27890000  0.54880000  0.53560000  1
  H  H215  1  0.27890000  0.95120000  0.03560000  1
  H  H216  1  0.28650000  0.22850000  0.18030000  1
  H  H217  1  0.28650000  0.27150000  0.68030000  1
  H  H218  1  0.28880000  0.59290000  0.87870000  1
  H  H219  1  0.28880000  0.90710000  0.37870000  1
  H  H220  1  0.29330000  0.07490000  0.36790000  1
  H  H221  1  0.29330000  0.42510000  0.86790000  1
  H  H222  1  0.29470000  0.54560000  0.24890000  1
  H  H223  1  0.29470000  0.95440000  0.74890000  1
  H  H224  1  0.29500000  0.60210000  0.55140000  1
  H  H225  1  0.29500000  0.89790000  0.05140000  1
  H  H226  1  0.29630000  0.54320000  0.37760000  1
  H  H227  1  0.29630000  0.95680000  0.87760000  1
  H  H228  1  0.31010000  0.67970000  0.92600000  1
  H  H229  1  0.31010000  0.82030000  0.42600000  1
  H  H230  1  0.31430000  0.08390000  0.31460000  1
  H  H231  1  0.31430000  0.41610000  0.81460000  1
  H  H232  1  0.31900000  0.12200000  0.93970000  1
  H  H233  1  0.31900000  0.37800000  0.43970000  1
  H  H234  1  0.31910000  0.10870000  0.60710000  1
  H  H235  1  0.31910000  0.39130000  0.10710000  1
  H  H236  1  0.32340000  0.57870000  0.74430000  1
  H  H237  1  0.32340000  0.92130000  0.24430000  1
  H  H238  1  0.32900000  0.53160000  0.33090000  1
  H  H239  1  0.32900000  0.96840000  0.83090000  1
  H  H240  1  0.33080000  0.21380000  0.79100000  1
  H  H241  1  0.33080000  0.28620000  0.29100000  1
  H  H242  1  0.33770000  0.68220000  0.47840000  1
  H  H243  1  0.33770000  0.81780000  0.97840000  1
  H  H244  1  0.34100000  0.24070000  0.25700000  1
  H  H245  1  0.34100000  0.25930000  0.75700000  1
  H  H246  1  0.34260000  0.10760000  0.88870000  1
  H  H247  1  0.34260000  0.39240000  0.38870000  1
  H  H248  1  0.34780000  0.64120000  0.62530000  1
  H  H249  1  0.34780000  0.85880000  0.12530000  1
  H  H250  1  0.35110000  0.51040000  0.07980000  1
  H  H251  1  0.35110000  0.98960000  0.57980000  1
  H  H252  1  0.35570000  0.73570000  0.11990000  1
  H  H253  1  0.35570000  0.76430000  0.61990000  1
  H  H254  1  0.36010000  0.72570000  0.54330000  1
  H  H255  1  0.36010000  0.77430000  0.04330000  1
  H  H256  1  0.36120000  0.01490000  0.63070000  1
  H  H257  1  0.36120000  0.48510000  0.13070000  1
  H  H258  1  0.36630000  0.69730000  0.93320000  1
  H  H259  1  0.36630000  0.80270000  0.43320000  1
  H  H260  1  0.37220000  0.12240000  0.12930000  1
  H  H261  1  0.37220000  0.37760000  0.62930000  1
  H  H262  1  0.37360000  0.14000000  0.92580000  1
  H  H263  1  0.37360000  0.36000000  0.42580000  1
  H  H264  1  0.38320000  0.71620000  0.46370000  1
  H  H265  1  0.38320000  0.78380000  0.96370000  1
  H  H266  1  0.38350000  0.20910000  0.71750000  1
  H  H267  1  0.38350000  0.29090000  0.21750000  1
  H  H268  1  0.38860000  0.60690000  0.64950000  1
  H  H269  1  0.38860000  0.89310000  0.14950000  1
  H  H270  1  0.39490000  0.16020000  0.16710000  1
  H  H271  1  0.39490000  0.33980000  0.66710000  1
  H  H272  1  0.39550000  0.10370000  0.17910000  1
  H  H273  1  0.39550000  0.39630000  0.67910000  1
  H  H274  1  0.40070000  0.13210000  0.30610000  1
  H  H275  1  0.40070000  0.36790000  0.80610000  1
  H  H276  1  0.40300000  0.51850000  0.10680000  1
  H  H277  1  0.40300000  0.98150000  0.60680000  1
  H  H278  1  0.40510000  0.65660000  0.62500000  1
  H  H279  1  0.40510000  0.84340000  0.12500000  1
  H  H280  1  0.41810000  0.23140000  0.83460000  1
  H  H281  1  0.41810000  0.26860000  0.33460000  1
  H  H282  1  0.41930000  0.70420000  0.18830000  1
  H  H283  1  0.41930000  0.79580000  0.68830000  1
  H  H284  1  0.42940000  0.65030000  0.20570000  1
  H  H285  1  0.42940000  0.84970000  0.70570000  1
  H  H286  1  0.43460000  0.16960000  0.66410000  1
  H  H287  1  0.43460000  0.33040000  0.16410000  1
  H  H288  1  0.44160000  0.72600000  0.74140000  1
  H  H289  1  0.44160000  0.77400000  0.24140000  1
  H  H290  1  0.46570000  0.73470000  0.79330000  1
  H  H291  1  0.46570000  0.76530000  0.29330000  1
  H  H292  1  0.46950000  0.63590000  0.29080000  1
  H  H293  1  0.46950000  0.86410000  0.79080000  1
  H  H294  1  0.47690000  0.13200000  0.26600000  1
  H  H295  1  0.47690000  0.36800000  0.76600000  1
  H  H296  1  0.48160000  0.68170000  0.32380000  1
  H  H297  1  0.48160000  0.81830000  0.82380000  1
  H  H298  1  0.49200000  0.22710000  0.79210000  1
  H  H299  1  0.49200000  0.27290000  0.29210000  1
  H  H300  1  0.50800000  0.72710000  0.70790000  1
  H  H301  1  0.50800000  0.77290000  0.20790000  1
  H  H302  1  0.51840000  0.18170000  0.17620000  1
  H  H303  1  0.51840000  0.31830000  0.67620000  1
  H  H304  1  0.52310000  0.63200000  0.23400000  1
  H  H305  1  0.52310000  0.86800000  0.73400000  1
  H  H306  1  0.53050000  0.13590000  0.20920000  1
  H  H307  1  0.53050000  0.36410000  0.70920000  1
  H  H308  1  0.53430000  0.23470000  0.70670000  1
  H  H309  1  0.53430000  0.26530000  0.20670000  1
  H  H310  1  0.55840000  0.22600000  0.75860000  1
  H  H311  1  0.55840000  0.27400000  0.25860000  1
  H  H312  1  0.56540000  0.66960000  0.83590000  1
  H  H313  1  0.56540000  0.83040000  0.33590000  1
  H  H314  1  0.57060000  0.15030000  0.29430000  1
  H  H315  1  0.57060000  0.34970000  0.79430000  1
  H  H316  1  0.58070000  0.20420000  0.31170000  1
  H  H317  1  0.58070000  0.29580000  0.81170000  1
  H  H318  1  0.58190000  0.73140000  0.66540000  1
  H  H319  1  0.58190000  0.76860000  0.16540000  1
  H  H320  1  0.59490000  0.15660000  0.87500000  1
  H  H321  1  0.59490000  0.34340000  0.37500000  1
  H  H322  1  0.59700000  0.01850000  0.39320000  1
  H  H323  1  0.59700000  0.48150000  0.89320000  1
  H  H324  1  0.59930000  0.63210000  0.19390000  1
  H  H325  1  0.59930000  0.86790000  0.69390000  1
  H  H326  1  0.60450000  0.60370000  0.32090000  1
  H  H327  1  0.60450000  0.89630000  0.82090000  1
  H  H328  1  0.60510000  0.66020000  0.33290000  1
  H  H329  1  0.60510000  0.83980000  0.83290000  1
  H  H330  1  0.61140000  0.10690000  0.85050000  1
  H  H331  1  0.61140000  0.39310000  0.35050000  1
  H  H332  1  0.61650000  0.70910000  0.78250000  1
  H  H333  1  0.61650000  0.79090000  0.28250000  1
  H  H334  1  0.61680000  0.21620000  0.03630000  1
  H  H335  1  0.61680000  0.28380000  0.53630000  1
  H  H336  1  0.62640000  0.64000000  0.57420000  1
  H  H337  1  0.62640000  0.86000000  0.07420000  1
  H  H338  1  0.62780000  0.62240000  0.37070000  1
  H  H339  1  0.62780000  0.87760000  0.87070000  1
  H  H340  1  0.63370000  0.19730000  0.56680000  1
  H  H341  1  0.63370000  0.30270000  0.06680000  1
  H  H342  1  0.63880000  0.51490000  0.86930000  1
  H  H343  1  0.63880000  0.98510000  0.36930000  1
  H  H344  1  0.63990000  0.22570000  0.95670000  1
  H  H345  1  0.63990000  0.27430000  0.45670000  1
  H  H346  1  0.64430000  0.23570000  0.38010000  1
  H  H347  1  0.64430000  0.26430000  0.88010000  1
  H  H348  1  0.64890000  0.01040000  0.42020000  1
  H  H349  1  0.64890000  0.48960000  0.92020000  1
  H  H350  1  0.65220000  0.14120000  0.87470000  1
  H  H351  1  0.65220000  0.35880000  0.37470000  1
  H  H352  1  0.65740000  0.60760000  0.61130000  1
  H  H353  1  0.65740000  0.89240000  0.11130000  1
  H  H354  1  0.65900000  0.74070000  0.24300000  1
  H  H355  1  0.65900000  0.75930000  0.74300000  1
  H  H356  1  0.66230000  0.18220000  0.02160000  1
  H  H357  1  0.66230000  0.31780000  0.52160000  1
  H  H358  1  0.66920000  0.71380000  0.70900000  1
  H  H359  1  0.66920000  0.78620000  0.20900000  1
  H  H360  1  0.67100000  0.03160000  0.16910000  1
  H  H361  1  0.67100000  0.46840000  0.66910000  1
  H  H362  1  0.67660000  0.07870000  0.75570000  1
  H  H363  1  0.67660000  0.42130000  0.25570000  1
  H  H364  1  0.68090000  0.60870000  0.89290000  1
  H  H365  1  0.68090000  0.89130000  0.39290000  1
  H  H366  1  0.68100000  0.62200000  0.56030000  1
  H  H367  1  0.68100000  0.87800000  0.06030000  1
  H  H368  1  0.68570000  0.58390000  0.18540000  1
  H  H369  1  0.68570000  0.91610000  0.68540000  1
  H  H370  1  0.68990000  0.17970000  0.57400000  1
  H  H371  1  0.68990000  0.32030000  0.07400000  1
  H  H372  1  0.70370000  0.04320000  0.12240000  1
  H  H373  1  0.70370000  0.45680000  0.62240000  1
  H  H374  1  0.70500000  0.10210000  0.94860000  1
  H  H375  1  0.70500000  0.39790000  0.44860000  1
  H  H376  1  0.70530000  0.04560000  0.25110000  1
  H  H377  1  0.70530000  0.45440000  0.75110000  1
  H  H378  1  0.70670000  0.57490000  0.13210000  1
  H  H379  1  0.70670000  0.92510000  0.63210000  1
  H  H380  1  0.71120000  0.09290000  0.62130000  1
  H  H381  1  0.71120000  0.40710000  0.12130000  1
  H  H382  1  0.71350000  0.72850000  0.31970000  1
  H  H383  1  0.71350000  0.77150000  0.81970000  1
  H  H384  1  0.72110000  0.04880000  0.96440000  1
  H  H385  1  0.72110000  0.45120000  0.46440000  1
  H  H386  1  0.72190000  0.00270000  0.75730000  1
  H  H387  1  0.72190000  0.49730000  0.25730000  1
  H  H388  1  0.72700000  0.16120000  0.77080000  1
  H  H389  1  0.72700000  0.33880000  0.27080000  1
  H  H390  1  0.73110000  0.64750000  0.83600000  1
  H  H391  1  0.73110000  0.85250000  0.33600000  1
  H  H392  1  0.73510000  0.17070000  0.50500000  1
  H  H393  1  0.73510000  0.32930000  0.00500000  1
  H  H394  1  0.73670000  0.73750000  0.55070000  1
  H  H395  1  0.73670000  0.76250000  0.05070000  1
  H  H396  1  0.73880000  0.65770000  0.72370000  1
  H  H397  1  0.73880000  0.84230000  0.22370000  1
  H  H398  1  0.73900000  0.14150000  0.42800000  1
  H  H399  1  0.73900000  0.35850000  0.92800000  1
  H  H400  1  0.73940000  0.56560000  0.25760000  1
  H  H401  1  0.73940000  0.93440000  0.75760000  1
  H  H402  1  0.73990000  0.23680000  0.82890000  1
  H  H403  1  0.73990000  0.26320000  0.32890000  1
  H  H404  1  0.74100000  0.59270000  0.97100000  1
  H  H405  1  0.74100000  0.90730000  0.47100000  1
  H  H406  1  0.74570000  0.01290000  0.61680000  1
  H  H407  1  0.74570000  0.48710000  0.11680000  1
  H  H408  1  0.74910000  0.70940000  0.03150000  1
  H  H409  1  0.74910000  0.79060000  0.53150000  1
  H  H410  1  0.75090000  0.20940000  0.03150000  1
  H  H411  1  0.75090000  0.29060000  0.53150000  1
  H  H412  1  0.75430000  0.51290000  0.61680000  1
  H  H413  1  0.75430000  0.98710000  0.11680000  1
  H  H414  1  0.75900000  0.09270000  0.97100000  1
  H  H415  1  0.75900000  0.40730000  0.47100000  1
  H  H416  1  0.76010000  0.73680000  0.82890000  1
  H  H417  1  0.76010000  0.76320000  0.32890000  1
  H  H418  1  0.76060000  0.06560000  0.25760000  1
  H  H419  1  0.76060000  0.43440000  0.75760000  1
  H  H420  1  0.76100000  0.64150000  0.42800000  1
  H  H421  1  0.76100000  0.85850000  0.92800000  1
  H  H422  1  0.76120000  0.15770000  0.72370000  1
  H  H423  1  0.76120000  0.34230000  0.22370000  1
  H  H424  1  0.76330000  0.23750000  0.55070000  1
  H  H425  1  0.76330000  0.26250000  0.05070000  1
  H  H426  1  0.76490000  0.67070000  0.50500000  1
  H  H427  1  0.76490000  0.82930000  0.00500000  1
  H  H428  1  0.76890000  0.14750000  0.83600000  1
  H  H429  1  0.76890000  0.35250000  0.33600000  1
  H  H430  1  0.77300000  0.66120000  0.77080000  1
  H  H431  1  0.77300000  0.83880000  0.27080000  1
  H  H432  1  0.77810000  0.50270000  0.75730000  1
  H  H433  1  0.77810000  0.99730000  0.25730000  1
  H  H434  1  0.77890000  0.54880000  0.96440000  1
  H  H435  1  0.77890000  0.95120000  0.46440000  1
  H  H436  1  0.78650000  0.22850000  0.31970000  1
  H  H437  1  0.78650000  0.27150000  0.81970000  1
  H  H438  1  0.78880000  0.59290000  0.62130000  1
  H  H439  1  0.78880000  0.90710000  0.12130000  1
  H  H440  1  0.79330000  0.07490000  0.13210000  1
  H  H441  1  0.79330000  0.42510000  0.63210000  1
  H  H442  1  0.79470000  0.54560000  0.25110000  1
  H  H443  1  0.79470000  0.95440000  0.75110000  1
  H  H444  1  0.79500000  0.60210000  0.94860000  1
  H  H445  1  0.79500000  0.89790000  0.44860000  1
  H  H446  1  0.79630000  0.54320000  0.12240000  1
  H  H447  1  0.79630000  0.95680000  0.62240000  1
  H  H448  1  0.81010000  0.67970000  0.57400000  1
  H  H449  1  0.81010000  0.82030000  0.07400000  1
  H  H450  1  0.81430000  0.08390000  0.18540000  1
  H  H451  1  0.81430000  0.41610000  0.68540000  1
  H  H452  1  0.81900000  0.12200000  0.56030000  1
  H  H453  1  0.81900000  0.37800000  0.06030000  1
  H  H454  1  0.81910000  0.10870000  0.89290000  1
  H  H455  1  0.81910000  0.39130000  0.39290000  1
  H  H456  1  0.82340000  0.57870000  0.75570000  1
  H  H457  1  0.82340000  0.92130000  0.25570000  1
  H  H458  1  0.82900000  0.53160000  0.16910000  1
  H  H459  1  0.82900000  0.96840000  0.66910000  1
  H  H460  1  0.83080000  0.21380000  0.70900000  1
  H  H461  1  0.83080000  0.28620000  0.20900000  1
  H  H462  1  0.83770000  0.68220000  0.02160000  1
  H  H463  1  0.83770000  0.81780000  0.52160000  1
  H  H464  1  0.84100000  0.24070000  0.24300000  1
  H  H465  1  0.84100000  0.25930000  0.74300000  1
  H  H466  1  0.84260000  0.10760000  0.61130000  1
  H  H467  1  0.84260000  0.39240000  0.11130000  1
  H  H468  1  0.84780000  0.64120000  0.87470000  1
  H  H469  1  0.84780000  0.85880000  0.37470000  1
  H  H470  1  0.85110000  0.51040000  0.42020000  1
  H  H471  1  0.85110000  0.98960000  0.92020000  1
  H  H472  1  0.85570000  0.73570000  0.38010000  1
  H  H473  1  0.85570000  0.76430000  0.88010000  1
  H  H474  1  0.86010000  0.72570000  0.95670000  1
  H  H475  1  0.86010000  0.77430000  0.45670000  1
  H  H476  1  0.86120000  0.01490000  0.86930000  1
  H  H477  1  0.86120000  0.48510000  0.36930000  1
  H  H478  1  0.86630000  0.69730000  0.56680000  1
  H  H479  1  0.86630000  0.80270000  0.06680000  1
  H  H480  1  0.87220000  0.12240000  0.37070000  1
  H  H481  1  0.87220000  0.37760000  0.87070000  1
  H  H482  1  0.87360000  0.14000000  0.57420000  1
  H  H483  1  0.87360000  0.36000000  0.07420000  1
  H  H484  1  0.88320000  0.71620000  0.03630000  1
  H  H485  1  0.88320000  0.78380000  0.53630000  1
  H  H486  1  0.88350000  0.20910000  0.78250000  1
  H  H487  1  0.88350000  0.29090000  0.28250000  1
  H  H488  1  0.88860000  0.60690000  0.85050000  1
  H  H489  1  0.88860000  0.89310000  0.35050000  1
  H  H490  1  0.89490000  0.16020000  0.33290000  1
  H  H491  1  0.89490000  0.33980000  0.83290000  1
  H  H492  1  0.89550000  0.10370000  0.32090000  1
  H  H493  1  0.89550000  0.39630000  0.82090000  1
  H  H494  1  0.90070000  0.13210000  0.19390000  1
  H  H495  1  0.90070000  0.36790000  0.69390000  1
  H  H496  1  0.90300000  0.51850000  0.39320000  1
  H  H497  1  0.90300000  0.98150000  0.89320000  1
  H  H498  1  0.90510000  0.65660000  0.87500000  1
  H  H499  1  0.90510000  0.84340000  0.37500000  1
  H  H500  1  0.91810000  0.23140000  0.66540000  1
  H  H501  1  0.91810000  0.26860000  0.16540000  1
  H  H502  1  0.91930000  0.70420000  0.31170000  1
  H  H503  1  0.91930000  0.79580000  0.81170000  1
  H  H504  1  0.92940000  0.65030000  0.29430000  1
  H  H505  1  0.92940000  0.84970000  0.79430000  1
  H  H506  1  0.93460000  0.16960000  0.83590000  1
  H  H507  1  0.93460000  0.33040000  0.33590000  1
  H  H508  1  0.94160000  0.72600000  0.75860000  1
  H  H509  1  0.94160000  0.77400000  0.25860000  1
  H  H510  1  0.96570000  0.73470000  0.70670000  1
  H  H511  1  0.96570000  0.76530000  0.20670000  1
  H  H512  1  0.96950000  0.63590000  0.20920000  1
  H  H513  1  0.96950000  0.86410000  0.70920000  1
  H  H514  1  0.97690000  0.13200000  0.23400000  1
  H  H515  1  0.97690000  0.36800000  0.73400000  1
  H  H516  1  0.98160000  0.68170000  0.17620000  1
  H  H517  1  0.98160000  0.81830000  0.67620000  1
  H  H518  1  0.99200000  0.22710000  0.70790000  1
  H  H519  1  0.99200000  0.27290000  0.20790000  1
  C  C520  1  0.00610000  0.70320000  0.27150000  1
  C  C521  1  0.00610000  0.79680000  0.77150000  1
  C  C522  1  0.02500000  0.74300000  0.29420000  1
  C  C523  1  0.02500000  0.75700000  0.79420000  1
  C  C524  1  0.03480000  0.66150000  0.27910000  1
  C  C525  1  0.03480000  0.83850000  0.77910000  1
  C  C526  1  0.04290000  0.16810000  0.30090000  1
  C  C527  1  0.04290000  0.33190000  0.80090000  1
  C  C528  1  0.04560000  0.20150000  0.25550000  1
  C  C529  1  0.04560000  0.29850000  0.75550000  1
  C  C530  1  0.05970000  0.24680000  0.77040000  1
  C  C531  1  0.05970000  0.25320000  0.27040000  1
  C  C532  1  0.06970000  0.73970000  0.32060000  1
  C  C533  1  0.06970000  0.76030000  0.82060000  1
  C  C534  1  0.08020000  0.66080000  0.30500000  1
  C  C535  1  0.08020000  0.83920000  0.80500000  1
  C  C536  1  0.08250000  0.18240000  0.21650000  1
  C  C537  1  0.08250000  0.31760000  0.71650000  1
  C  C538  1  0.10010000  0.66290000  0.66390000  1
  C  C539  1  0.10010000  0.83710000  0.16390000  1
  C  C540  1  0.12100000  0.14050000  0.64360000  1
  C  C541  1  0.12100000  0.35950000  0.14360000  1
  C  C542  1  0.12330000  0.62970000  0.16370000  1
  C  C543  1  0.12330000  0.87030000  0.66370000  1
  C  C544  1  0.12820000  0.16670000  0.69220000  1
  C  C545  1  0.12820000  0.33333333  0.19220000  1
  C  C546  1  0.13170000  0.68710000  0.69580000  1
  C  C547  1  0.13170000  0.81290000  0.19580000  1
  C  C548  1  0.13290000  0.01410000  0.11130000  1
  C  C549  1  0.13290000  0.48590000  0.61130000  1
  C  C550  1  0.15070000  0.20600000  0.45420000  1
  C  C551  1  0.15070000  0.29400000  0.95420000  1
  C  C552  1  0.15450000  0.05800000  0.13720000  1
  C  C553  1  0.15450000  0.44200000  0.63720000  1
  C  C554  1  0.15960000  0.63290000  0.91320000  1
  C  C555  1  0.15960000  0.86710000  0.41320000  1
  C  C556  1  0.16000000  0.24650000  0.04760000  1
  C  C557  1  0.16000000  0.25350000  0.54760000  1
  C  C558  1  0.16350000  0.22300000  0.09410000  1
  C  C559  1  0.16350000  0.27700000  0.59410000  1
  C  C560  1  0.16590000  0.62780000  0.63150000  1
  C  C561  1  0.16590000  0.87220000  0.13150000  1
  C  C562  1  0.16720000  0.20760000  0.92250000  1
  C  C563  1  0.16720000  0.29240000  0.42250000  1
  C  C564  1  0.17830000  0.63470000  0.18970000  1
  C  C565  1  0.17830000  0.86530000  0.68970000  1
  C  C566  1  0.18080000  0.68240000  0.69890000  1
  C  C567  1  0.18080000  0.81760000  0.19890000  1
  C  C568  1  0.18310000  0.68130000  0.88940000  1
  C  C569  1  0.18310000  0.81870000  0.38940000  1
  C  C570  1  0.18560000  0.24940000  0.95570000  1
  C  C571  1  0.18560000  0.25060000  0.45570000  1
  C  C572  1  0.18560000  0.73970000  0.77210000  1
  C  C573  1  0.18560000  0.76030000  0.27210000  1
  C  C574  1  0.18660000  0.22720000  0.00990000  1
  C  C575  1  0.18660000  0.27280000  0.50990000  1
  C  C576  1  0.19010000  0.06590000  0.77330000  1
  C  C577  1  0.19010000  0.43410000  0.27330000  1
  C  C578  1  0.19490000  0.05480000  0.34490000  1
  C  C579  1  0.19490000  0.44520000  0.84490000  1
  C  C580  1  0.19630000  0.65290000  0.66570000  1
  C  C581  1  0.19630000  0.84710000  0.16570000  1
  C  C582  1  0.20130000  0.09320000  0.47230000  1
  C  C583  1  0.20130000  0.40680000  0.97230000  1
  C  C584  1  0.20880000  0.07290000  0.85100000  1
  C  C585  1  0.20880000  0.42710000  0.35100000  1
  C  C586  1  0.21550000  0.58690000  0.33540000  1
  C  C587  1  0.21550000  0.91310000  0.83540000  1
  C  C588  1  0.21640000  0.18580000  0.01990000  1
  C  C589  1  0.21640000  0.31420000  0.51990000  1
  C  C590  1  0.21720000  0.01840000  0.77280000  1
  C  C591  1  0.21720000  0.48160000  0.27280000  1
  C  C592  1  0.21770000  0.16820000  0.06600000  1
  C  C593  1  0.21770000  0.33180000  0.56600000  1
  C  C594  1  0.21790000  0.71570000  0.73090000  1
  C  C595  1  0.21790000  0.78430000  0.23090000  1
  C  C596  1  0.22400000  0.08310000  0.52790000  1
  C  C597  1  0.22400000  0.41690000  0.02790000  1
  C  C598  1  0.22990000  0.06880000  0.26180000  1
  C  C599  1  0.22990000  0.43120000  0.76180000  1
  C  C600  1  0.23260000  0.02430000  0.85350000  1
  C  C601  1  0.23260000  0.47570000  0.35350000  1
  C  C602  1  0.23550000  0.50340000  0.31370000  1
  C  C603  1  0.23550000  0.99660000  0.81370000  1
  C  C604  1  0.24070000  0.74640000  0.19640000  1
  C  C605  1  0.24070000  0.75360000  0.69640000  1
  C  C606  1  0.24090000  0.23450000  0.44500000  1
  C  C607  1  0.24090000  0.26550000  0.94500000  1
  C  C608  1  0.24160000  0.05510000  0.31410000  1
  C  C609  1  0.24160000  0.44490000  0.81410000  1
  C  C610  1  0.24350000  0.18040000  0.75470000  1
  C  C611  1  0.24350000  0.31960000  0.25470000  1
  C  C612  1  0.25650000  0.68040000  0.75470000  1
  C  C613  1  0.25650000  0.81960000  0.25470000  1
  C  C614  1  0.25840000  0.55510000  0.31410000  1
  C  C615  1  0.25840000  0.94490000  0.81410000  1
  C  C616  1  0.25910000  0.73450000  0.44500000  1
  C  C617  1  0.25910000  0.76550000  0.94500000  1
  C  C618  1  0.25930000  0.24640000  0.19640000  1
  C  C619  1  0.25930000  0.25360000  0.69640000  1
  C  C620  1  0.26450000  0.00340000  0.31370000  1
  C  C621  1  0.26450000  0.49660000  0.81370000  1
  C  C622  1  0.26740000  0.52430000  0.85350000  1
  C  C623  1  0.26740000  0.97570000  0.35350000  1
  C  C624  1  0.27010000  0.56880000  0.26180000  1
  C  C625  1  0.27010000  0.93120000  0.76180000  1
  C  C626  1  0.27600000  0.58310000  0.52790000  1
  C  C627  1  0.27600000  0.91690000  0.02790000  1
  C  C628  1  0.28210000  0.21570000  0.73090000  1
  C  C629  1  0.28210000  0.28430000  0.23090000  1
  C  C630  1  0.28230000  0.66820000  0.06600000  1
  C  C631  1  0.28230000  0.83180000  0.56600000  1
  C  C632  1  0.28280000  0.51840000  0.77280000  1
  C  C633  1  0.28280000  0.98160000  0.27280000  1
  C  C634  1  0.28360000  0.68580000  0.01990000  1
  C  C635  1  0.28360000  0.81420000  0.51990000  1
  C  C636  1  0.28450000  0.08690000  0.33540000  1
  C  C637  1  0.28450000  0.41310000  0.83540000  1
  C  C638  1  0.29120000  0.57290000  0.85100000  1
  C  C639  1  0.29120000  0.92710000  0.35100000  1
  C  C640  1  0.29870000  0.59320000  0.47230000  1
  C  C641  1  0.29870000  0.90680000  0.97230000  1
  C  C642  1  0.30370000  0.15290000  0.66570000  1
  C  C643  1  0.30370000  0.34710000  0.16570000  1
  C  C644  1  0.30510000  0.55480000  0.34490000  1
  C  C645  1  0.30510000  0.94520000  0.84490000  1
  C  C646  1  0.30990000  0.56590000  0.77330000  1
  C  C647  1  0.30990000  0.93410000  0.27330000  1
  C  C648  1  0.31340000  0.72720000  0.00990000  1
  C  C649  1  0.31340000  0.77280000  0.50990000  1
  C  C650  1  0.31440000  0.23970000  0.77210000  1
  C  C651  1  0.31440000  0.26030000  0.27210000  1
  C  C652  1  0.31440000  0.74940000  0.95570000  1
  C  C653  1  0.31440000  0.75060000  0.45570000  1
  C  C654  1  0.31690000  0.18130000  0.88940000  1
  C  C655  1  0.31690000  0.31870000  0.38940000  1
  C  C656  1  0.31920000  0.18240000  0.69890000  1
  C  C657  1  0.31920000  0.31760000  0.19890000  1
  C  C658  1  0.32170000  0.13470000  0.18970000  1
  C  C659  1  0.32170000  0.36530000  0.68970000  1
  C  C660  1  0.33280000  0.70760000  0.92250000  1
  C  C661  1  0.33280000  0.79240000  0.42250000  1
  C  C662  1  0.33410000  0.12780000  0.63150000  1
  C  C663  1  0.33410000  0.37220000  0.13150000  1
  C  C664  1  0.33650000  0.72300000  0.09410000  1
  C  C665  1  0.33650000  0.77700000  0.59410000  1
  C  C666  1  0.34000000  0.74650000  0.04760000  1
  C  C667  1  0.34000000  0.75350000  0.54760000  1
  C  C668  1  0.34040000  0.13290000  0.91320000  1
  C  C669  1  0.34040000  0.36710000  0.41320000  1
  C  C670  1  0.34550000  0.55800000  0.13720000  1
  C  C671  1  0.34550000  0.94200000  0.63720000  1
  C  C672  1  0.34930000  0.70600000  0.45420000  1
  C  C673  1  0.34930000  0.79400000  0.95420000  1
  C  C674  1  0.36710000  0.51410000  0.11130000  1
  C  C675  1  0.36710000  0.98590000  0.61130000  1
  C  C676  1  0.36830000  0.18710000  0.69580000  1
  C  C677  1  0.36830000  0.31290000  0.19580000  1
  C  C678  1  0.37180000  0.66666667  0.69220000  1
  C  C679  1  0.37180000  0.83330000  0.19220000  1
  C  C680  1  0.37670000  0.12970000  0.16370000  1
  C  C681  1  0.37670000  0.37030000  0.66370000  1
  C  C682  1  0.37900000  0.64050000  0.64360000  1
  C  C683  1  0.37900000  0.85950000  0.14360000  1
  C  C684  1  0.39990000  0.16290000  0.66390000  1
  C  C685  1  0.39990000  0.33710000  0.16390000  1
  C  C686  1  0.41750000  0.68240000  0.21650000  1
  C  C687  1  0.41750000  0.81760000  0.71650000  1
  C  C688  1  0.41980000  0.16080000  0.30500000  1
  C  C689  1  0.41980000  0.33920000  0.80500000  1
  C  C690  1  0.43030000  0.23970000  0.32060000  1
  C  C691  1  0.43030000  0.26030000  0.82060000  1
  C  C692  1  0.44030000  0.74680000  0.77040000  1
  C  C693  1  0.44030000  0.75320000  0.27040000  1
  C  C694  1  0.45440000  0.70150000  0.25550000  1
  C  C695  1  0.45440000  0.79850000  0.75550000  1
  C  C696  1  0.45710000  0.66810000  0.30090000  1
  C  C697  1  0.45710000  0.83190000  0.80090000  1
  C  C698  1  0.46520000  0.16150000  0.27910000  1
  C  C699  1  0.46520000  0.33850000  0.77910000  1
  C  C700  1  0.47500000  0.24300000  0.29420000  1
  C  C701  1  0.47500000  0.25700000  0.79420000  1
  C  C702  1  0.49390000  0.20320000  0.27150000  1
  C  C703  1  0.49390000  0.29680000  0.77150000  1
  C  C704  1  0.50610000  0.70320000  0.22850000  1
  C  C705  1  0.50610000  0.79680000  0.72850000  1
  C  C706  1  0.52500000  0.74300000  0.20580000  1
  C  C707  1  0.52500000  0.75700000  0.70580000  1
  C  C708  1  0.53480000  0.66150000  0.22090000  1
  C  C709  1  0.53480000  0.83850000  0.72090000  1
  C  C710  1  0.54290000  0.16810000  0.19910000  1
  C  C711  1  0.54290000  0.33190000  0.69910000  1
  C  C712  1  0.54560000  0.20150000  0.24450000  1
  C  C713  1  0.54560000  0.29850000  0.74450000  1
  C  C714  1  0.55970000  0.24680000  0.72960000  1
  C  C715  1  0.55970000  0.25320000  0.22960000  1
  C  C716  1  0.56970000  0.73970000  0.17940000  1
  C  C717  1  0.56970000  0.76030000  0.67940000  1
  C  C718  1  0.58020000  0.66080000  0.19500000  1
  C  C719  1  0.58020000  0.83920000  0.69500000  1
  C  C720  1  0.58250000  0.18240000  0.28350000  1
  C  C721  1  0.58250000  0.31760000  0.78350000  1
  C  C722  1  0.60010000  0.66290000  0.83610000  1
  C  C723  1  0.60010000  0.83710000  0.33610000  1
  C  C724  1  0.62100000  0.14050000  0.85640000  1
  C  C725  1  0.62100000  0.35950000  0.35640000  1
  C  C726  1  0.62330000  0.62970000  0.33630000  1
  C  C727  1  0.62330000  0.87030000  0.83630000  1
  C  C728  1  0.62820000  0.16670000  0.80780000  1
  C  C729  1  0.62820000  0.33333333  0.30780000  1
  C  C730  1  0.63170000  0.68710000  0.80420000  1
  C  C731  1  0.63170000  0.81290000  0.30420000  1
  C  C732  1  0.63290000  0.01410000  0.38870000  1
  C  C733  1  0.63290000  0.48590000  0.88870000  1
  C  C734  1  0.65070000  0.20600000  0.04580000  1
  C  C735  1  0.65070000  0.29400000  0.54580000  1
  C  C736  1  0.65450000  0.05800000  0.36280000  1
  C  C737  1  0.65450000  0.44200000  0.86280000  1
  C  C738  1  0.65960000  0.63290000  0.58680000  1
  C  C739  1  0.65960000  0.86710000  0.08680000  1
  C  C740  1  0.66000000  0.24650000  0.45240000  1
  C  C741  1  0.66000000  0.25350000  0.95240000  1
  C  C742  1  0.66350000  0.22300000  0.40590000  1
  C  C743  1  0.66350000  0.27700000  0.90590000  1
  C  C744  1  0.66590000  0.62780000  0.86850000  1
  C  C745  1  0.66590000  0.87220000  0.36850000  1
  C  C746  1  0.66720000  0.20760000  0.57750000  1
  C  C747  1  0.66720000  0.29240000  0.07750000  1
  C  C748  1  0.67830000  0.63470000  0.31030000  1
  C  C749  1  0.67830000  0.86530000  0.81030000  1
  C  C750  1  0.68080000  0.68240000  0.80110000  1
  C  C751  1  0.68080000  0.81760000  0.30110000  1
  C  C752  1  0.68310000  0.68130000  0.61060000  1
  C  C753  1  0.68310000  0.81870000  0.11060000  1
  C  C754  1  0.68560000  0.24940000  0.54430000  1
  C  C755  1  0.68560000  0.25060000  0.04430000  1
  C  C756  1  0.68560000  0.73970000  0.72790000  1
  C  C757  1  0.68560000  0.76030000  0.22790000  1
  C  C758  1  0.68660000  0.22720000  0.49010000  1
  C  C759  1  0.68660000  0.27280000  0.99010000  1
  C  C760  1  0.69010000  0.06590000  0.72670000  1
  C  C761  1  0.69010000  0.43410000  0.22670000  1
  C  C762  1  0.69490000  0.05480000  0.15510000  1
  C  C763  1  0.69490000  0.44520000  0.65510000  1
  C  C764  1  0.69630000  0.65290000  0.83430000  1
  C  C765  1  0.69630000  0.84710000  0.33430000  1
  C  C766  1  0.70130000  0.09320000  0.02770000  1
  C  C767  1  0.70130000  0.40680000  0.52770000  1
  C  C768  1  0.70880000  0.07290000  0.64900000  1
  C  C769  1  0.70880000  0.42710000  0.14900000  1
  C  C770  1  0.71550000  0.58690000  0.16460000  1
  C  C771  1  0.71550000  0.91310000  0.66460000  1
  C  C772  1  0.71640000  0.18580000  0.48010000  1
  C  C773  1  0.71640000  0.31420000  0.98010000  1
  C  C774  1  0.71720000  0.01840000  0.72720000  1
  C  C775  1  0.71720000  0.48160000  0.22720000  1
  C  C776  1  0.71770000  0.16820000  0.43400000  1
  C  C777  1  0.71770000  0.33180000  0.93400000  1
  C  C778  1  0.71790000  0.71570000  0.76910000  1
  C  C779  1  0.71790000  0.78430000  0.26910000  1
  C  C780  1  0.72400000  0.08310000  0.97210000  1
  C  C781  1  0.72400000  0.41690000  0.47210000  1
  C  C782  1  0.72990000  0.06880000  0.23820000  1
  C  C783  1  0.72990000  0.43120000  0.73820000  1
  C  C784  1  0.73260000  0.02430000  0.64650000  1
  C  C785  1  0.73260000  0.47570000  0.14650000  1
  C  C786  1  0.73550000  0.50340000  0.18630000  1
  C  C787  1  0.73550000  0.99660000  0.68630000  1
  C  C788  1  0.74070000  0.74640000  0.30360000  1
  C  C789  1  0.74070000  0.75360000  0.80360000  1
  C  C790  1  0.74090000  0.23450000  0.05500000  1
  C  C791  1  0.74090000  0.26550000  0.55500000  1
  C  C792  1  0.74160000  0.05510000  0.18590000  1
  C  C793  1  0.74160000  0.44490000  0.68590000  1
  C  C794  1  0.74350000  0.18040000  0.74530000  1
  C  C795  1  0.74350000  0.31960000  0.24530000  1
  C  C796  1  0.75650000  0.68040000  0.74530000  1
  C  C797  1  0.75650000  0.81960000  0.24530000  1
  C  C798  1  0.75840000  0.55510000  0.18590000  1
  C  C799  1  0.75840000  0.94490000  0.68590000  1
  C  C800  1  0.75910000  0.73450000  0.05500000  1
  C  C801  1  0.75910000  0.76550000  0.55500000  1
  C  C802  1  0.75930000  0.24640000  0.30360000  1
  C  C803  1  0.75930000  0.25360000  0.80360000  1
  C  C804  1  0.76450000  0.00340000  0.18630000  1
  C  C805  1  0.76450000  0.49660000  0.68630000  1
  C  C806  1  0.76740000  0.52430000  0.64650000  1
  C  C807  1  0.76740000  0.97570000  0.14650000  1
  C  C808  1  0.77010000  0.56880000  0.23820000  1
  C  C809  1  0.77010000  0.93120000  0.73820000  1
  C  C810  1  0.77600000  0.58310000  0.97210000  1
  C  C811  1  0.77600000  0.91690000  0.47210000  1
  C  C812  1  0.78210000  0.21570000  0.76910000  1
  C  C813  1  0.78210000  0.28430000  0.26910000  1
  C  C814  1  0.78230000  0.66820000  0.43400000  1
  C  C815  1  0.78230000  0.83180000  0.93400000  1
  C  C816  1  0.78280000  0.51840000  0.72720000  1
  C  C817  1  0.78280000  0.98160000  0.22720000  1
  C  C818  1  0.78360000  0.68580000  0.48010000  1
  C  C819  1  0.78360000  0.81420000  0.98010000  1
  C  C820  1  0.78450000  0.08690000  0.16460000  1
  C  C821  1  0.78450000  0.41310000  0.66460000  1
  C  C822  1  0.79120000  0.57290000  0.64900000  1
  C  C823  1  0.79120000  0.92710000  0.14900000  1
  C  C824  1  0.79870000  0.59320000  0.02770000  1
  C  C825  1  0.79870000  0.90680000  0.52770000  1
  C  C826  1  0.80370000  0.15290000  0.83430000  1
  C  C827  1  0.80370000  0.34710000  0.33430000  1
  C  C828  1  0.80510000  0.55480000  0.15510000  1
  C  C829  1  0.80510000  0.94520000  0.65510000  1
  C  C830  1  0.80990000  0.56590000  0.72670000  1
  C  C831  1  0.80990000  0.93410000  0.22670000  1
  C  C832  1  0.81340000  0.72720000  0.49010000  1
  C  C833  1  0.81340000  0.77280000  0.99010000  1
  C  C834  1  0.81440000  0.23970000  0.72790000  1
  C  C835  1  0.81440000  0.26030000  0.22790000  1
  C  C836  1  0.81440000  0.74940000  0.54430000  1
  C  C837  1  0.81440000  0.75060000  0.04430000  1
  C  C838  1  0.81690000  0.18130000  0.61060000  1
  C  C839  1  0.81690000  0.31870000  0.11060000  1
  C  C840  1  0.81920000  0.18240000  0.80110000  1
  C  C841  1  0.81920000  0.31760000  0.30110000  1
  C  C842  1  0.82170000  0.13470000  0.31030000  1
  C  C843  1  0.82170000  0.36530000  0.81030000  1
  C  C844  1  0.83280000  0.70760000  0.57750000  1
  C  C845  1  0.83280000  0.79240000  0.07750000  1
  C  C846  1  0.83410000  0.12780000  0.86850000  1
  C  C847  1  0.83410000  0.37220000  0.36850000  1
  C  C848  1  0.83650000  0.72300000  0.40590000  1
  C  C849  1  0.83650000  0.77700000  0.90590000  1
  C  C850  1  0.84000000  0.74650000  0.45240000  1
  C  C851  1  0.84000000  0.75350000  0.95240000  1
  C  C852  1  0.84040000  0.13290000  0.58680000  1
  C  C853  1  0.84040000  0.36710000  0.08680000  1
  C  C854  1  0.84550000  0.55800000  0.36280000  1
  C  C855  1  0.84550000  0.94200000  0.86280000  1
  C  C856  1  0.84930000  0.70600000  0.04580000  1
  C  C857  1  0.84930000  0.79400000  0.54580000  1
  C  C858  1  0.86710000  0.51410000  0.38870000  1
  C  C859  1  0.86710000  0.98590000  0.88870000  1
  C  C860  1  0.86830000  0.18710000  0.80420000  1
  C  C861  1  0.86830000  0.31290000  0.30420000  1
  C  C862  1  0.87180000  0.66666667  0.80780000  1
  C  C863  1  0.87180000  0.83330000  0.30780000  1
  C  C864  1  0.87670000  0.12970000  0.33630000  1
  C  C865  1  0.87670000  0.37030000  0.83630000  1
  C  C866  1  0.87900000  0.64050000  0.85640000  1
  C  C867  1  0.87900000  0.85950000  0.35640000  1
  C  C868  1  0.89990000  0.16290000  0.83610000  1
  C  C869  1  0.89990000  0.33710000  0.33610000  1
  C  C870  1  0.91750000  0.68240000  0.28350000  1
  C  C871  1  0.91750000  0.81760000  0.78350000  1
  C  C872  1  0.91980000  0.16080000  0.19500000  1
  C  C873  1  0.91980000  0.33920000  0.69500000  1
  C  C874  1  0.93030000  0.23970000  0.17940000  1
  C  C875  1  0.93030000  0.26030000  0.67940000  1
  C  C876  1  0.94030000  0.74680000  0.72960000  1
  C  C877  1  0.94030000  0.75320000  0.22960000  1
  C  C878  1  0.95440000  0.70150000  0.24450000  1
  C  C879  1  0.95440000  0.79850000  0.74450000  1
  C  C880  1  0.95710000  0.66810000  0.19910000  1
  C  C881  1  0.95710000  0.83190000  0.69910000  1
  C  C882  1  0.96520000  0.16150000  0.22090000  1
  C  C883  1  0.96520000  0.33850000  0.72090000  1
  C  C884  1  0.97500000  0.24300000  0.20580000  1
  C  C885  1  0.97500000  0.25700000  0.70580000  1
  C  C886  1  0.99390000  0.20320000  0.22850000  1
  C  C887  1  0.99390000  0.29680000  0.72850000  1
  N  N888  1  0.09620000  0.70010000  0.32780000  1
  N  N889  1  0.09620000  0.79990000  0.82780000  1
  N  N890  1  0.11790000  0.63110000  0.63400000  1
  N  N891  1  0.11790000  0.86890000  0.13400000  1
  N  N892  1  0.18540000  0.08970000  0.81440000  1
  N  N893  1  0.18540000  0.41030000  0.31440000  1
  N  N894  1  0.19160000  0.18510000  0.10310000  1
  N  N895  1  0.19160000  0.31490000  0.60310000  1
  N  N896  1  0.30840000  0.68510000  0.10310000  1
  N  N897  1  0.30840000  0.81490000  0.60310000  1
  N  N898  1  0.31460000  0.58970000  0.81440000  1
  N  N899  1  0.31460000  0.91030000  0.31440000  1
  N  N900  1  0.38210000  0.13110000  0.63400000  1
  N  N901  1  0.38210000  0.36890000  0.13400000  1
  N  N902  1  0.40380000  0.20010000  0.32780000  1
  N  N903  1  0.40380000  0.29990000  0.82780000  1
  N  N904  1  0.59620000  0.70010000  0.17220000  1
  N  N905  1  0.59620000  0.79990000  0.67220000  1
  N  N906  1  0.61790000  0.63110000  0.86600000  1
  N  N907  1  0.61790000  0.86890000  0.36600000  1
  N  N908  1  0.68540000  0.08970000  0.68560000  1
  N  N909  1  0.68540000  0.41030000  0.18560000  1
  N  N910  1  0.69160000  0.18510000  0.39690000  1
  N  N911  1  0.69160000  0.31490000  0.89690000  1
  N  N912  1  0.80840000  0.68510000  0.39690000  1
  N  N913  1  0.80840000  0.81490000  0.89690000  1
  N  N914  1  0.81460000  0.58970000  0.68560000  1
  N  N915  1  0.81460000  0.91030000  0.18560000  1
  N  N916  1  0.88210000  0.13110000  0.86600000  1
  N  N917  1  0.88210000  0.36890000  0.36600000  1
  N  N918  1  0.90380000  0.20010000  0.17220000  1
  N  N919  1  0.90380000  0.29990000  0.67220000  1
  O  O920  1  0.09020000  0.16200000  0.32560000  1
  O  O921  1  0.09020000  0.33800000  0.82560000  1
  O  O922  1  0.10870000  0.24160000  0.79270000  1
  O  O923  1  0.10870000  0.25840000  0.29270000  1
  O  O924  1  0.12010000  0.14300000  0.73080000  1
  O  O925  1  0.12010000  0.35700000  0.23080000  1
  O  O926  1  0.13200000  0.08460000  0.15760000  1
  O  O927  1  0.13200000  0.41540000  0.65760000  1
  O  O928  1  0.13350000  0.17780000  0.23010000  1
  O  O929  1  0.13350000  0.32220000  0.73010000  1
  O  O930  1  0.14120000  0.21200000  0.68950000  1
  O  O931  1  0.14120000  0.28800000  0.18950000  1
  O  O932  1  0.14530000  0.08090000  0.46220000  1
  O  O933  1  0.14530000  0.41910000  0.96220000  1
  O  O934  1  0.14800000  0.18240000  0.40720000  1
  O  O935  1  0.14800000  0.31760000  0.90720000  1
  O  O936  1  0.15460000  0.71780000  0.89280000  1
  O  O937  1  0.15460000  0.78220000  0.39280000  1
  O  O938  1  0.16470000  0.22120000  0.87130000  1
  O  O939  1  0.16470000  0.27880000  0.37130000  1
  O  O940  1  0.16980000  0.10320000  0.34940000  1
  O  O941  1  0.16980000  0.39680000  0.84940000  1
  O  O942  1  0.17870000  0.64640000  0.23510000  1
  O  O943  1  0.17870000  0.85360000  0.73510000  1
  O  O944  1  0.19740000  0.06520000  0.13250000  1
  O  O945  1  0.19740000  0.43480000  0.63250000  1
  O  O946  1  0.20550000  0.20700000  0.78260000  1
  O  O947  1  0.20550000  0.29300000  0.28260000  1
  O  O948  1  0.21030000  0.11800000  0.25560000  1
  O  O949  1  0.21030000  0.38200000  0.75560000  1
  O  O950  1  0.21320000  0.73040000  0.30440000  1
  O  O951  1  0.21320000  0.76960000  0.80440000  1
  O  O952  1  0.21590000  0.63200000  0.16200000  1
  O  O953  1  0.21590000  0.86800000  0.66200000  1
  O  O954  1  0.22530000  0.67700000  0.87240000  1
  O  O955  1  0.22530000  0.82300000  0.37240000  1
  O  O956  1  0.22690000  0.21200000  0.22150000  1
  O  O957  1  0.22690000  0.28800000  0.72150000  1
  O  O958  1  0.22980000  0.63960000  0.33900000  1
  O  O959  1  0.22980000  0.86040000  0.83900000  1
  O  O960  1  0.23410000  0.11270000  0.44540000  1
  O  O961  1  0.23410000  0.38730000  0.94540000  1
  O  O962  1  0.24660000  0.21580000  0.39660000  1
  O  O963  1  0.24660000  0.28420000  0.89660000  1
  O  O964  1  0.25340000  0.71580000  0.39660000  1
  O  O965  1  0.25340000  0.78420000  0.89660000  1
  O  O966  1  0.26590000  0.61270000  0.44540000  1
  O  O967  1  0.26590000  0.88730000  0.94540000  1
  O  O968  1  0.27020000  0.13960000  0.33900000  1
  O  O969  1  0.27020000  0.36040000  0.83900000  1
  O  O970  1  0.27310000  0.71200000  0.22150000  1
  O  O971  1  0.27310000  0.78800000  0.72150000  1
  O  O972  1  0.27470000  0.17700000  0.87240000  1
  O  O973  1  0.27470000  0.32300000  0.37240000  1
  O  O974  1  0.28410000  0.13200000  0.16200000  1
  O  O975  1  0.28410000  0.36800000  0.66200000  1
  O  O976  1  0.28680000  0.23040000  0.30440000  1
  O  O977  1  0.28680000  0.26960000  0.80440000  1
  O  O978  1  0.28970000  0.61800000  0.25560000  1
  O  O979  1  0.28970000  0.88200000  0.75560000  1
  O  O980  1  0.29450000  0.70700000  0.78260000  1
  O  O981  1  0.29450000  0.79300000  0.28260000  1
  O  O982  1  0.30260000  0.56520000  0.13250000  1
  O  O983  1  0.30260000  0.93480000  0.63250000  1
  O  O984  1  0.32130000  0.14640000  0.23510000  1
  O  O985  1  0.32130000  0.35360000  0.73510000  1
  O  O986  1  0.33020000  0.60320000  0.34940000  1
  O  O987  1  0.33020000  0.89680000  0.84940000  1
  O  O988  1  0.33530000  0.72120000  0.87130000  1
  O  O989  1  0.33530000  0.77880000  0.37130000  1
  O  O990  1  0.34540000  0.21780000  0.89280000  1
  O  O991  1  0.34540000  0.28220000  0.39280000  1
  O  O992  1  0.35200000  0.68240000  0.40720000  1
  O  O993  1  0.35200000  0.81760000  0.90720000  1
  O  O994  1  0.35470000  0.58090000  0.46220000  1
  O  O995  1  0.35470000  0.91910000  0.96220000  1
  O  O996  1  0.35880000  0.71200000  0.68950000  1
  O  O997  1  0.35880000  0.78800000  0.18950000  1
  O  O998  1  0.36650000  0.67780000  0.23010000  1
  O  O999  1  0.36650000  0.82220000  0.73010000  1
  O  O1000  1  0.36800000  0.58460000  0.15760000  1
  O  O1001  1  0.36800000  0.91540000  0.65760000  1
  O  O1002  1  0.37990000  0.64300000  0.73080000  1
  O  O1003  1  0.37990000  0.85700000  0.23080000  1
  O  O1004  1  0.39130000  0.74160000  0.79270000  1
  O  O1005  1  0.39130000  0.75840000  0.29270000  1
  O  O1006  1  0.40980000  0.66200000  0.32560000  1
  O  O1007  1  0.40980000  0.83800000  0.82560000  1
  O  O1008  1  0.59020000  0.16200000  0.17440000  1
  O  O1009  1  0.59020000  0.33800000  0.67440000  1
  O  O1010  1  0.60870000  0.24160000  0.70730000  1
  O  O1011  1  0.60870000  0.25840000  0.20730000  1
  O  O1012  1  0.62010000  0.14300000  0.76920000  1
  O  O1013  1  0.62010000  0.35700000  0.26920000  1
  O  O1014  1  0.63200000  0.08460000  0.34240000  1
  O  O1015  1  0.63200000  0.41540000  0.84240000  1
  O  O1016  1  0.63350000  0.17780000  0.26990000  1
  O  O1017  1  0.63350000  0.32220000  0.76990000  1
  O  O1018  1  0.64120000  0.21200000  0.81050000  1
  O  O1019  1  0.64120000  0.28800000  0.31050000  1
  O  O1020  1  0.64530000  0.08090000  0.03780000  1
  O  O1021  1  0.64530000  0.41910000  0.53780000  1
  O  O1022  1  0.64800000  0.18240000  0.09280000  1
  O  O1023  1  0.64800000  0.31760000  0.59280000  1
  O  O1024  1  0.65460000  0.71780000  0.60720000  1
  O  O1025  1  0.65460000  0.78220000  0.10720000  1
  O  O1026  1  0.66470000  0.22120000  0.62870000  1
  O  O1027  1  0.66470000  0.27880000  0.12870000  1
  O  O1028  1  0.66980000  0.10320000  0.15060000  1
  O  O1029  1  0.66980000  0.39680000  0.65060000  1
  O  O1030  1  0.67870000  0.64640000  0.26490000  1
  O  O1031  1  0.67870000  0.85360000  0.76490000  1
  O  O1032  1  0.69740000  0.06520000  0.36750000  1
  O  O1033  1  0.69740000  0.43480000  0.86750000  1
  O  O1034  1  0.70550000  0.20700000  0.71740000  1
  O  O1035  1  0.70550000  0.29300000  0.21740000  1
  O  O1036  1  0.71030000  0.11800000  0.24440000  1
  O  O1037  1  0.71030000  0.38200000  0.74440000  1
  O  O1038  1  0.71320000  0.73040000  0.19560000  1
  O  O1039  1  0.71320000  0.76960000  0.69560000  1
  O  O1040  1  0.71590000  0.63200000  0.33800000  1
  O  O1041  1  0.71590000  0.86800000  0.83800000  1
  O  O1042  1  0.72530000  0.67700000  0.62760000  1
  O  O1043  1  0.72530000  0.82300000  0.12760000  1
  O  O1044  1  0.72690000  0.21200000  0.27850000  1
  O  O1045  1  0.72690000  0.28800000  0.77850000  1
  O  O1046  1  0.72980000  0.63960000  0.16100000  1
  O  O1047  1  0.72980000  0.86040000  0.66100000  1
  O  O1048  1  0.73410000  0.11270000  0.05460000  1
  O  O1049  1  0.73410000  0.38730000  0.55460000  1
  O  O1050  1  0.74660000  0.21580000  0.10340000  1
  O  O1051  1  0.74660000  0.28420000  0.60340000  1
  O  O1052  1  0.75340000  0.71580000  0.10340000  1
  O  O1053  1  0.75340000  0.78420000  0.60340000  1
  O  O1054  1  0.76590000  0.61270000  0.05460000  1
  O  O1055  1  0.76590000  0.88730000  0.55460000  1
  O  O1056  1  0.77020000  0.13960000  0.16100000  1
  O  O1057  1  0.77020000  0.36040000  0.66100000  1
  O  O1058  1  0.77310000  0.71200000  0.27850000  1
  O  O1059  1  0.77310000  0.78800000  0.77850000  1
  O  O1060  1  0.77470000  0.17700000  0.62760000  1
  O  O1061  1  0.77470000  0.32300000  0.12760000  1
  O  O1062  1  0.78410000  0.13200000  0.33800000  1
  O  O1063  1  0.78410000  0.36800000  0.83800000  1
  O  O1064  1  0.78680000  0.23040000  0.19560000  1
  O  O1065  1  0.78680000  0.26960000  0.69560000  1
  O  O1066  1  0.78970000  0.61800000  0.24440000  1
  O  O1067  1  0.78970000  0.88200000  0.74440000  1
  O  O1068  1  0.79450000  0.70700000  0.71740000  1
  O  O1069  1  0.79450000  0.79300000  0.21740000  1
  O  O1070  1  0.80260000  0.56520000  0.36750000  1
  O  O1071  1  0.80260000  0.93480000  0.86750000  1
  O  O1072  1  0.82130000  0.14640000  0.26490000  1
  O  O1073  1  0.82130000  0.35360000  0.76490000  1
  O  O1074  1  0.83020000  0.60320000  0.15060000  1
  O  O1075  1  0.83020000  0.89680000  0.65060000  1
  O  O1076  1  0.83530000  0.72120000  0.62870000  1
  O  O1077  1  0.83530000  0.77880000  0.12870000  1
  O  O1078  1  0.84540000  0.21780000  0.60720000  1
  O  O1079  1  0.84540000  0.28220000  0.10720000  1
  O  O1080  1  0.85200000  0.68240000  0.09280000  1
  O  O1081  1  0.85200000  0.81760000  0.59280000  1
  O  O1082  1  0.85470000  0.58090000  0.03780000  1
  O  O1083  1  0.85470000  0.91910000  0.53780000  1
  O  O1084  1  0.85880000  0.71200000  0.81050000  1
  O  O1085  1  0.85880000  0.78800000  0.31050000  1
  O  O1086  1  0.86650000  0.67780000  0.26990000  1
  O  O1087  1  0.86650000  0.82220000  0.76990000  1
  O  O1088  1  0.86800000  0.58460000  0.34240000  1
  O  O1089  1  0.86800000  0.91540000  0.84240000  1
  O  O1090  1  0.87990000  0.64300000  0.76920000  1
  O  O1091  1  0.87990000  0.85700000  0.26920000  1
  O  O1092  1  0.89130000  0.74160000  0.70730000  1
  O  O1093  1  0.89130000  0.75840000  0.20730000  1
  O  O1094  1  0.90980000  0.66200000  0.17440000  1
  O  O1095  1  0.90980000  0.83800000  0.67440000  1
