# generated using pymatgen
data_ZnH11C17O6
_symmetry_space_group_name_H-M   'P 1'
_cell_length_a   10.10700000
_cell_length_b   18.33800000
_cell_length_c   27.08400000
_cell_angle_alpha   90.00000000
_cell_angle_beta   99.28500000
_cell_angle_gamma   90.00000000
_symmetry_Int_Tables_number   1
_chemical_formula_structural   ZnH11C17O6
_chemical_formula_sum   'Zn8 H88 C136 O48'
_cell_volume   4954.03766135
_cell_formula_units_Z   8
loop_
 _symmetry_equiv_pos_site_id
 _symmetry_equiv_pos_as_xyz
  1  'x, y, z'
loop_
 _atom_site_type_symbol
 _atom_site_label
 _atom_site_symmetry_multiplicity
 _atom_site_fract_x
 _atom_site_fract_y
 _atom_site_fract_z
 _atom_site_occupancy
  Zn  Zn0  1  0.36333000  0.23013000  0.28082000  1
  Zn  Zn1  1  0.36333000  0.26987000  0.78082000  1
  Zn  Zn2  1  0.46427000  0.69607000  0.80758000  1
  Zn  Zn3  1  0.46427000  0.80393000  0.30758000  1
  Zn  Zn4  1  0.53573000  0.19607000  0.69242000  1
  Zn  Zn5  1  0.53573000  0.30393000  0.19242000  1
  Zn  Zn6  1  0.63667000  0.73013000  0.21918000  1
  Zn  Zn7  1  0.63667000  0.76987000  0.71918000  1
  H  H8  1  0.00930000  0.21100000  0.69840000  1
  H  H9  1  0.00930000  0.28900000  0.19840000  1
  H  H10  1  0.01560000  0.16500000  0.13390000  1
  H  H11  1  0.01560000  0.33500000  0.63390000  1
  H  H12  1  0.05240000  0.52780000  0.57920000  1
  H  H13  1  0.05240000  0.97220000  0.07920000  1
  H  H14  1  0.05890000  0.08780000  0.92370000  1
  H  H15  1  0.05890000  0.41220000  0.42370000  1
  H  H16  1  0.07470000  0.59780000  0.35830000  1
  H  H17  1  0.07470000  0.90220000  0.85830000  1
  H  H18  1  0.09220000  0.60880000  0.59270000  1
  H  H19  1  0.09220000  0.89120000  0.09270000  1
  H  H20  1  0.12100000  0.52310000  0.12400000  1
  H  H21  1  0.12100000  0.97690000  0.62400000  1
  H  H22  1  0.14080000  0.67130000  0.37920000  1
  H  H23  1  0.14080000  0.82870000  0.87920000  1
  H  H24  1  0.15080000  0.59950000  0.18820000  1
  H  H25  1  0.15080000  0.90050000  0.68820000  1
  H  H26  1  0.15560000  0.66080000  0.98320000  1
  H  H27  1  0.15560000  0.83920000  0.48320000  1
  H  H28  1  0.19120000  0.10670000  0.59890000  1
  H  H29  1  0.19120000  0.39330000  0.09890000  1
  H  H30  1  0.20590000  0.59120000  0.90980000  1
  H  H31  1  0.20590000  0.90880000  0.40980000  1
  H  H32  1  0.22320000  0.72180000  0.50930000  1
  H  H33  1  0.22320000  0.77820000  0.00930000  1
  H  H34  1  0.26120000  0.53770000  0.57080000  1
  H  H35  1  0.26120000  0.96230000  0.07080000  1
  H  H36  1  0.27700000  0.56560000  0.40180000  1
  H  H37  1  0.27700000  0.93440000  0.90180000  1
  H  H38  1  0.28430000  0.63350000  0.21630000  1
  H  H39  1  0.28430000  0.86650000  0.71630000  1
  H  H40  1  0.28650000  0.55740000  0.19010000  1
  H  H41  1  0.28650000  0.94260000  0.69010000  1
  H  H42  1  0.33800000  0.72650000  0.99780000  1
  H  H43  1  0.33800000  0.77350000  0.49780000  1
  H  H44  1  0.37250000  0.70570000  0.53280000  1
  H  H45  1  0.37250000  0.79430000  0.03280000  1
  H  H46  1  0.46380000  0.01000000  0.24130000  1
  H  H47  1  0.46380000  0.49000000  0.74130000  1
  H  H48  1  0.48890000  0.11570000  0.11470000  1
  H  H49  1  0.48890000  0.38430000  0.61470000  1
  H  H50  1  0.49050000  0.10150000  0.88160000  1
  H  H51  1  0.49050000  0.39850000  0.38160000  1
  H  H52  1  0.50950000  0.60150000  0.61840000  1
  H  H53  1  0.50950000  0.89850000  0.11840000  1
  H  H54  1  0.51110000  0.61570000  0.38530000  1
  H  H55  1  0.51110000  0.88430000  0.88530000  1
  H  H56  1  0.53620000  0.51000000  0.25870000  1
  H  H57  1  0.53620000  0.99000000  0.75870000  1
  H  H58  1  0.62750000  0.20570000  0.96720000  1
  H  H59  1  0.62750000  0.29430000  0.46720000  1
  H  H60  1  0.66200000  0.22650000  0.50220000  1
  H  H61  1  0.66200000  0.27350000  0.00220000  1
  H  H62  1  0.71350000  0.05740000  0.30990000  1
  H  H63  1  0.71350000  0.44260000  0.80990000  1
  H  H64  1  0.71570000  0.13350000  0.28370000  1
  H  H65  1  0.71570000  0.36650000  0.78370000  1
  H  H66  1  0.72300000  0.06560000  0.09820000  1
  H  H67  1  0.72300000  0.43440000  0.59820000  1
  H  H68  1  0.73880000  0.03770000  0.92920000  1
  H  H69  1  0.73880000  0.46230000  0.42920000  1
  H  H70  1  0.77680000  0.22180000  0.99070000  1
  H  H71  1  0.77680000  0.27820000  0.49070000  1
  H  H72  1  0.79410000  0.09120000  0.59020000  1
  H  H73  1  0.79410000  0.40880000  0.09020000  1
  H  H74  1  0.80880000  0.60670000  0.90110000  1
  H  H75  1  0.80880000  0.89330000  0.40110000  1
  H  H76  1  0.84440000  0.16080000  0.51680000  1
  H  H77  1  0.84440000  0.33920000  0.01680000  1
  H  H78  1  0.84920000  0.09950000  0.31180000  1
  H  H79  1  0.84920000  0.40050000  0.81180000  1
  H  H80  1  0.85920000  0.17130000  0.12080000  1
  H  H81  1  0.85920000  0.32870000  0.62080000  1
  H  H82  1  0.87900000  0.02310000  0.37600000  1
  H  H83  1  0.87900000  0.47690000  0.87600000  1
  H  H84  1  0.90780000  0.10880000  0.90730000  1
  H  H85  1  0.90780000  0.39120000  0.40730000  1
  H  H86  1  0.92530000  0.09780000  0.14170000  1
  H  H87  1  0.92530000  0.40220000  0.64170000  1
  H  H88  1  0.94110000  0.58780000  0.57630000  1
  H  H89  1  0.94110000  0.91220000  0.07630000  1
  H  H90  1  0.94760000  0.02780000  0.92080000  1
  H  H91  1  0.94760000  0.47220000  0.42080000  1
  H  H92  1  0.98440000  0.66500000  0.36610000  1
  H  H93  1  0.98440000  0.83500000  0.86610000  1
  H  H94  1  0.99070000  0.71100000  0.80160000  1
  H  H95  1  0.99070000  0.78900000  0.30160000  1
  C  C96  1  0.00540000  0.18081000  0.67060000  1
  C  C97  1  0.00540000  0.31919000  0.17060000  1
  C  C98  1  0.00760000  0.59050000  0.91251000  1
  C  C99  1  0.00760000  0.90950000  0.41251000  1
  C  C100  1  0.00860000  0.54280000  0.95756000  1
  C  C101  1  0.00860000  0.95720000  0.45756000  1
  C  C102  1  0.03120000  0.57790000  0.57130000  1
  C  C103  1  0.03120000  0.92210000  0.07130000  1
  C  C104  1  0.06460000  0.52270000  0.04769000  1
  C  C105  1  0.06460000  0.97730000  0.54769000  1
  C  C106  1  0.06540000  0.63940000  0.37900000  1
  C  C107  1  0.06540000  0.86060000  0.87900000  1
  C  C108  1  0.07400000  0.56530000  0.00403000  1
  C  C109  1  0.07400000  0.93470000  0.50403000  1
  C  C110  1  0.11320000  0.11823000  0.61127000  1
  C  C111  1  0.11320000  0.38177000  0.11127000  1
  C  C112  1  0.11630000  0.65450000  0.85284000  1
  C  C113  1  0.11630000  0.84550000  0.35284000  1
  C  C114  1  0.12140000  0.16262000  0.65298000  1
  C  C115  1  0.12140000  0.33738000  0.15298000  1
  C  C116  1  0.12340000  0.60910000  0.89433000  1
  C  C117  1  0.12340000  0.89090000  0.39433000  1
  C  C118  1  0.12920000  0.54930000  0.09530000  1
  C  C119  1  0.12920000  0.95070000  0.59530000  1
  C  C120  1  0.15050000  0.63150000  0.01082000  1
  C  C121  1  0.15050000  0.86850000  0.51082000  1
  C  C122  1  0.16130000  0.57120000  0.50672000  1
  C  C123  1  0.16130000  0.92880000  0.00672000  1
  C  C124  1  0.16790000  0.58170000  0.45464000  1
  C  C125  1  0.16790000  0.91830000  0.95464000  1
  C  C126  1  0.20120000  0.61130000  0.09945000  1
  C  C127  1  0.20120000  0.88870000  0.59945000  1
  C  C128  1  0.21500000  0.65240000  0.05590000  1
  C  C129  1  0.21500000  0.84760000  0.55590000  1
  C  C130  1  0.24170000  0.67590000  0.83300000  1
  C  C131  1  0.24170000  0.82410000  0.33300000  1
  C  C132  1  0.24520000  0.60470000  0.18812000  1
  C  C133  1  0.24520000  0.89530000  0.68812000  1
  C  C134  1  0.25250000  0.18960000  0.67893000  1
  C  C135  1  0.25250000  0.31040000  0.17893000  1
  C  C136  1  0.26640000  0.54380000  0.53711000  1
  C  C137  1  0.26640000  0.95620000  0.03711000  1
  C  C138  1  0.27560000  0.56030000  0.43582000  1
  C  C139  1  0.27560000  0.93970000  0.93582000  1
  C  C140  1  0.30790000  0.74350000  0.52280000  1
  C  C141  1  0.30790000  0.75650000  0.02280000  1
  C  C142  1  0.38690000  0.52327000  0.51929000  1
  C  C143  1  0.38690000  0.97673000  0.01929000  1
  C  C144  1  0.38990000  0.52919000  0.46752000  1
  C  C145  1  0.38990000  0.97081000  0.96752000  1
  C  C146  1  0.47430000  0.14519000  0.20772000  1
  C  C147  1  0.47430000  0.35481000  0.70772000  1
  C  C148  1  0.47530000  0.00925000  0.20789000  1
  C  C149  1  0.47530000  0.49075000  0.70789000  1
  C  C150  1  0.47770000  0.07361000  0.18182000  1
  C  C151  1  0.47770000  0.42639000  0.68182000  1
  C  C152  1  0.48700000  0.07191000  0.13195000  1
  C  C153  1  0.48700000  0.42809000  0.63195000  1
  C  C154  1  0.49010000  0.55604000  0.68447000  1
  C  C155  1  0.49010000  0.94396000  0.18447000  1
  C  C156  1  0.49350000  0.00727000  0.10651000  1
  C  C157  1  0.49350000  0.49273000  0.60651000  1
  C  C158  1  0.49840000  0.00493000  0.05174000  1
  C  C159  1  0.49840000  0.49507000  0.55174000  1
  C  C160  1  0.49930000  0.55723000  0.63405000  1
  C  C161  1  0.49930000  0.94277000  0.13405000  1
  C  C162  1  0.49950000  0.62620000  0.71326000  1
  C  C163  1  0.49950000  0.87380000  0.21326000  1
  C  C164  1  0.50050000  0.12620000  0.78674000  1
  C  C165  1  0.50050000  0.37380000  0.28674000  1
  C  C166  1  0.50070000  0.05723000  0.86595000  1
  C  C167  1  0.50070000  0.44277000  0.36595000  1
  C  C168  1  0.50160000  0.50493000  0.44826000  1
  C  C169  1  0.50160000  0.99507000  0.94826000  1
  C  C170  1  0.50650000  0.50727000  0.39349000  1
  C  C171  1  0.50650000  0.99273000  0.89349000  1
  C  C172  1  0.50990000  0.05604000  0.81553000  1
  C  C173  1  0.50990000  0.44396000  0.31553000  1
  C  C174  1  0.51300000  0.57191000  0.36805000  1
  C  C175  1  0.51300000  0.92809000  0.86805000  1
  C  C176  1  0.52230000  0.57361000  0.31818000  1
  C  C177  1  0.52230000  0.92639000  0.81818000  1
  C  C178  1  0.52470000  0.50925000  0.29211000  1
  C  C179  1  0.52470000  0.99075000  0.79211000  1
  C  C180  1  0.52570000  0.64519000  0.29228000  1
  C  C181  1  0.52570000  0.85481000  0.79228000  1
  C  C182  1  0.61010000  0.02919000  0.03248000  1
  C  C183  1  0.61010000  0.47081000  0.53248000  1
  C  C184  1  0.61310000  0.02327000  0.98071000  1
  C  C185  1  0.61310000  0.47673000  0.48071000  1
  C  C186  1  0.69210000  0.24350000  0.97720000  1
  C  C187  1  0.69210000  0.25650000  0.47720000  1
  C  C188  1  0.72440000  0.06030000  0.06418000  1
  C  C189  1  0.72440000  0.43970000  0.56418000  1
  C  C190  1  0.73360000  0.04380000  0.96289000  1
  C  C191  1  0.73360000  0.45620000  0.46289000  1
  C  C192  1  0.74750000  0.68960000  0.82107000  1
  C  C193  1  0.74750000  0.81040000  0.32107000  1
  C  C194  1  0.75480000  0.10470000  0.31188000  1
  C  C195  1  0.75480000  0.39530000  0.81188000  1
  C  C196  1  0.75830000  0.17590000  0.66700000  1
  C  C197  1  0.75830000  0.32410000  0.16700000  1
  C  C198  1  0.78500000  0.15240000  0.44410000  1
  C  C199  1  0.78500000  0.34760000  0.94410000  1
  C  C200  1  0.79880000  0.11130000  0.40055000  1
  C  C201  1  0.79880000  0.38870000  0.90055000  1
  C  C202  1  0.83210000  0.08170000  0.04536000  1
  C  C203  1  0.83210000  0.41830000  0.54536000  1
  C  C204  1  0.83870000  0.07120000  0.99328000  1
  C  C205  1  0.83870000  0.42880000  0.49328000  1
  C  C206  1  0.84950000  0.13150000  0.48918000  1
  C  C207  1  0.84950000  0.36850000  0.98918000  1
  C  C208  1  0.87080000  0.04930000  0.40470000  1
  C  C209  1  0.87080000  0.45070000  0.90470000  1
  C  C210  1  0.87660000  0.10910000  0.60567000  1
  C  C211  1  0.87660000  0.39090000  0.10567000  1
  C  C212  1  0.87860000  0.66262000  0.84702000  1
  C  C213  1  0.87860000  0.83738000  0.34702000  1
  C  C214  1  0.88370000  0.15450000  0.64716000  1
  C  C215  1  0.88370000  0.34550000  0.14716000  1
  C  C216  1  0.88680000  0.61823000  0.88873000  1
  C  C217  1  0.88680000  0.88177000  0.38873000  1
  C  C218  1  0.92600000  0.06530000  0.49597000  1
  C  C219  1  0.92600000  0.43470000  0.99597000  1
  C  C220  1  0.93460000  0.13940000  0.12100000  1
  C  C221  1  0.93460000  0.36060000  0.62100000  1
  C  C222  1  0.93540000  0.02270000  0.45231000  1
  C  C223  1  0.93540000  0.47730000  0.95231000  1
  C  C224  1  0.96880000  0.07790000  0.92870000  1
  C  C225  1  0.96880000  0.42210000  0.42870000  1
  C  C226  1  0.99140000  0.04280000  0.54244000  1
  C  C227  1  0.99140000  0.45720000  0.04244000  1
  C  C228  1  0.99240000  0.09050000  0.58749000  1
  C  C229  1  0.99240000  0.40950000  0.08749000  1
  C  C230  1  0.99460000  0.68081000  0.82940000  1
  C  C231  1  0.99460000  0.81919000  0.32940000  1
  O  O232  1  0.04320000  0.59170000  0.51960000  1
  O  O233  1  0.04320000  0.90830000  0.01960000  1
  O  O234  1  0.05990000  0.61570000  0.42883000  1
  O  O235  1  0.05990000  0.88430000  0.92883000  1
  O  O236  1  0.23550000  0.71331000  0.79485000  1
  O  O237  1  0.23550000  0.78669000  0.29485000  1
  O  O238  1  0.25400000  0.22723000  0.71644000  1
  O  O239  1  0.25400000  0.27277000  0.21644000  1
  O  O240  1  0.26630000  0.63997000  0.14279000  1
  O  O241  1  0.26630000  0.86003000  0.64279000  1
  O  O242  1  0.29280000  0.71287000  0.06520000  1
  O  O243  1  0.29280000  0.78713000  0.56520000  1
  O  O244  1  0.35320000  0.17042000  0.66067000  1
  O  O245  1  0.35320000  0.32958000  0.16067000  1
  O  O246  1  0.35330000  0.65435000  0.85613000  1
  O  O247  1  0.35330000  0.84565000  0.35613000  1
  O  O248  1  0.43360000  0.14691000  0.24881000  1
  O  O249  1  0.43360000  0.35309000  0.74881000  1
  O  O250  1  0.44230000  0.17677000  0.80357000  1
  O  O251  1  0.44230000  0.32323000  0.30357000  1
  O  O252  1  0.44820000  0.62758000  0.75157000  1
  O  O253  1  0.44820000  0.87242000  0.25157000  1
  O  O254  1  0.48350000  0.69871000  0.31377000  1
  O  O255  1  0.48350000  0.80129000  0.81377000  1
  O  O256  1  0.51650000  0.19871000  0.18623000  1
  O  O257  1  0.51650000  0.30129000  0.68623000  1
  O  O258  1  0.55180000  0.12758000  0.74843000  1
  O  O259  1  0.55180000  0.37242000  0.24843000  1
  O  O260  1  0.55770000  0.67677000  0.69643000  1
  O  O261  1  0.55770000  0.82323000  0.19643000  1
  O  O262  1  0.56640000  0.64691000  0.25119000  1
  O  O263  1  0.56640000  0.85309000  0.75119000  1
  O  O264  1  0.64670000  0.15435000  0.64387000  1
  O  O265  1  0.64670000  0.34565000  0.14387000  1
  O  O266  1  0.64680000  0.67042000  0.83933000  1
  O  O267  1  0.64680000  0.82958000  0.33933000  1
  O  O268  1  0.70720000  0.21287000  0.43480000  1
  O  O269  1  0.70720000  0.28713000  0.93480000  1
  O  O270  1  0.73370000  0.13997000  0.35721000  1
  O  O271  1  0.73370000  0.36003000  0.85721000  1
  O  O272  1  0.74600000  0.72723000  0.78356000  1
  O  O273  1  0.74600000  0.77277000  0.28356000  1
  O  O274  1  0.76450000  0.21331000  0.70515000  1
  O  O275  1  0.76450000  0.28669000  0.20515000  1
  O  O276  1  0.94010000  0.11570000  0.07117000  1
  O  O277  1  0.94010000  0.38430000  0.57117000  1
  O  O278  1  0.95680000  0.09170000  0.98040000  1
  O  O279  1  0.95680000  0.40830000  0.48040000  1
