# generated using pymatgen
data_MgH4(C4O3)2
_symmetry_space_group_name_H-M   'P 1'
_cell_length_a   13.61320000
_cell_length_b   18.02610000
_cell_length_c   22.94500000
_cell_angle_alpha   69.57400000
_cell_angle_beta   88.89900000
_cell_angle_gamma   89.14700000
_symmetry_Int_Tables_number   1
_chemical_formula_structural   MgH4(C4O3)2
_chemical_formula_sum   'Mg12 H48 C96 O72'
_cell_volume   5275.33747021
_cell_formula_units_Z   12
loop_
 _symmetry_equiv_pos_site_id
 _symmetry_equiv_pos_as_xyz
  1  'x, y, z'
loop_
 _atom_site_type_symbol
 _atom_site_label
 _atom_site_symmetry_multiplicity
 _atom_site_fract_x
 _atom_site_fract_y
 _atom_site_fract_z
 _atom_site_occupancy
  Mg  Mg0  1  0.08821000  0.20574000  0.60241000  1
  Mg  Mg1  1  0.12418000  0.86681000  0.25039000  1
  Mg  Mg2  1  0.14780000  0.56977000  0.89026000  1
  Mg  Mg3  1  0.34246000  0.94376000  0.10503000  1
  Mg  Mg4  1  0.37601000  0.63236000  0.75093000  1
  Mg  Mg5  1  0.39298000  0.30947000  0.38830000  1
  Mg  Mg6  1  0.60702000  0.69053000  0.61170000  1
  Mg  Mg7  1  0.62399000  0.36764000  0.24907000  1
  Mg  Mg8  1  0.65754000  0.05624000  0.89497000  1
  Mg  Mg9  1  0.85220000  0.43023000  0.10974000  1
  Mg  Mg10  1  0.87582000  0.13319000  0.74961000  1
  Mg  Mg11  1  0.91179000  0.79426000  0.39759000  1
  H  H12  1  0.04000000  0.03000000  0.20750000  1
  H  H13  1  0.04000000  0.74000000  0.19160000  1
  H  H14  1  0.04400000  0.06000000  0.86010000  1
  H  H15  1  0.05010000  0.79030000  0.82290000  1
  H  H16  1  0.09260000  0.38940000  0.84860000  1
  H  H17  1  0.09640000  0.77980000  0.51340000  1
  H  H18  1  0.15020000  0.38260000  0.65170000  1
  H  H19  1  0.16520000  0.97940000  0.98560000  1
  H  H20  1  0.20200000  0.99200000  0.31390000  1
  H  H21  1  0.20300000  0.70200000  0.28620000  1
  H  H22  1  0.21030000  0.98770000  0.66720000  1
  H  H23  1  0.21800000  0.70100000  0.64030000  1
  H  H24  1  0.28340000  0.52230000  0.30980000  1
  H  H25  1  0.28500000  0.50900000  0.68990000  1
  H  H26  1  0.29100000  0.81100000  0.69520000  1
  H  H27  1  0.29700000  0.79400000  0.35740000  1
  H  H28  1  0.33780000  0.52510000  0.01850000  1
  H  H29  1  0.34010000  0.12410000  0.35040000  1
  H  H30  1  0.39730000  0.11500000  0.15410000  1
  H  H31  1  0.42090000  0.72110000  0.48540000  1
  H  H32  1  0.44300000  0.45700000  0.79890000  1
  H  H33  1  0.46180000  0.72220000  0.16850000  1
  H  H34  1  0.46200000  0.44200000  0.14030000  1
  H  H35  1  0.47100000  0.75500000  0.80720000  1
  H  H36  1  0.52900000  0.24500000  0.19280000  1
  H  H37  1  0.53800000  0.55800000  0.85970000  1
  H  H38  1  0.53820000  0.27780000  0.83150000  1
  H  H39  1  0.55700000  0.54300000  0.20110000  1
  H  H40  1  0.57910000  0.27890000  0.51460000  1
  H  H41  1  0.60270000  0.88500000  0.84590000  1
  H  H42  1  0.65990000  0.87590000  0.64960000  1
  H  H43  1  0.66220000  0.47490000  0.98150000  1
  H  H44  1  0.70300000  0.20600000  0.64260000  1
  H  H45  1  0.70900000  0.18900000  0.30480000  1
  H  H46  1  0.71500000  0.49100000  0.31010000  1
  H  H47  1  0.71660000  0.47770000  0.69020000  1
  H  H48  1  0.78200000  0.29900000  0.35970000  1
  H  H49  1  0.78970000  0.01230000  0.33280000  1
  H  H50  1  0.79700000  0.29800000  0.71380000  1
  H  H51  1  0.79800000  0.00800000  0.68610000  1
  H  H52  1  0.83480000  0.02060000  0.01440000  1
  H  H53  1  0.84980000  0.61740000  0.34830000  1
  H  H54  1  0.90360000  0.22020000  0.48660000  1
  H  H55  1  0.90740000  0.61060000  0.15140000  1
  H  H56  1  0.94990000  0.20970000  0.17710000  1
  H  H57  1  0.95600000  0.94000000  0.13990000  1
  H  H58  1  0.96000000  0.26000000  0.80840000  1
  H  H59  1  0.96000000  0.97000000  0.79250000  1
  C  C60  1  0.02220000  0.27236000  0.70850000  1
  C  C61  1  0.04180000  0.02510000  0.93999000  1
  C  C62  1  0.05270000  0.33390000  0.78995000  1
  C  C63  1  0.05320000  0.90800000  0.77852000  1
  C  C64  1  0.05830000  0.96159000  0.05165000  1
  C  C65  1  0.07190000  0.33058000  0.73064000  1
  C  C66  1  0.07200000  0.05370000  0.71455000  1
  C  C67  1  0.08300000  0.83020000  0.79181000  1
  C  C68  1  0.09860000  0.98761000  0.99125000  1
  C  C69  1  0.10190000  0.96835000  0.73154000  1
  C  C70  1  0.10400000  0.38790000  0.80892000  1
  C  C71  1  0.12410000  0.92177000  0.10482000  1
  C  C72  1  0.13160000  0.81798000  0.39432000  1
  C  C73  1  0.13950000  0.38320000  0.69163000  1
  C  C74  1  0.16060000  0.81005000  0.75996000  1
  C  C75  1  0.16170000  0.76738000  0.50791000  1
  C  C76  1  0.17190000  0.43938000  0.76985000  1
  C  C77  1  0.17880000  0.94790000  0.69908000  1
  C  C78  1  0.18940000  0.72410000  0.77748000  1
  C  C79  1  0.19060000  0.43605000  0.71044000  1
  C  C80  1  0.19910000  0.78379000  0.44765000  1
  C  C81  1  0.20990000  0.87030000  0.71267000  1
  C  C82  1  0.21940000  0.73302000  0.55966000  1
  C  C83  1  0.22340000  0.49684000  0.79253000  1
  C  C84  1  0.26820000  0.00690000  0.21092000  1
  C  C85  1  0.29070000  0.64040000  0.26951000  1
  C  C86  1  0.29780000  0.76704000  0.43914000  1
  C  C87  1  0.30060000  0.06847000  0.29256000  1
  C  C88  1  0.31810000  0.71508000  0.55132000  1
  C  C89  1  0.31840000  0.78728000  0.21232000  1
  C  C90  1  0.31860000  0.06501000  0.23302000  1
  C  C91  1  0.31990000  0.56264000  0.28161000  1
  C  C92  1  0.34510000  0.70167000  0.22692000  1
  C  C93  1  0.35160000  0.12214000  0.31084000  1
  C  C94  1  0.35530000  0.73270000  0.49104000  1
  C  C95  1  0.37050000  0.58236000  0.89847000  1
  C  C96  1  0.38500000  0.67774000  0.60466000  1
  C  C97  1  0.38620000  0.11660000  0.19380000  1
  C  C98  1  0.40180000  0.54285000  0.25318000  1
  C  C99  1  0.40310000  0.51491000  0.01105000  1
  C  C100  1  0.41990000  0.17356000  0.27155000  1
  C  C101  1  0.42610000  0.68189000  0.19742000  1
  C  C102  1  0.43160000  0.45745000  0.27122000  1
  C  C103  1  0.43780000  0.17060000  0.21221000  1
  C  C104  1  0.43920000  0.54091000  0.95010000  1
  C  C105  1  0.45540000  0.60410000  0.20973000  1
  C  C106  1  0.46200000  0.47428000  0.06097000  1
  C  C107  1  0.47000000  0.23198000  0.29370000  1
  C  C108  1  0.53000000  0.76802000  0.70630000  1
  C  C109  1  0.53800000  0.52572000  0.93903000  1
  C  C110  1  0.54460000  0.39590000  0.79027000  1
  C  C111  1  0.56080000  0.45909000  0.04990000  1
  C  C112  1  0.56220000  0.82940000  0.78779000  1
  C  C113  1  0.56840000  0.54255000  0.72878000  1
  C  C114  1  0.57390000  0.31811000  0.80258000  1
  C  C115  1  0.58010000  0.82644000  0.72845000  1
  C  C116  1  0.59690000  0.48509000  0.98895000  1
  C  C117  1  0.59820000  0.45715000  0.74682000  1
  C  C118  1  0.61380000  0.88340000  0.80620000  1
  C  C119  1  0.61500000  0.32226000  0.39534000  1
  C  C120  1  0.62950000  0.41764000  0.10153000  1
  C  C121  1  0.64470000  0.26730000  0.50896000  1
  C  C122  1  0.64840000  0.87786000  0.68916000  1
  C  C123  1  0.65490000  0.29833000  0.77308000  1
  C  C124  1  0.68010000  0.43736000  0.71839000  1
  C  C125  1  0.68140000  0.93499000  0.76698000  1
  C  C126  1  0.68160000  0.21272000  0.78768000  1
  C  C127  1  0.68190000  0.28492000  0.44868000  1
  C  C128  1  0.69940000  0.93153000  0.70744000  1
  C  C129  1  0.70220000  0.23296000  0.56086000  1
  C  C130  1  0.70930000  0.35960000  0.73049000  1
  C  C131  1  0.73180000  0.99310000  0.78908000  1
  C  C132  1  0.77660000  0.50316000  0.20747000  1
  C  C133  1  0.78060000  0.26698000  0.44034000  1
  C  C134  1  0.79010000  0.12970000  0.28733000  1
  C  C135  1  0.80090000  0.21621000  0.55235000  1
  C  C136  1  0.80940000  0.56395000  0.28956000  1
  C  C137  1  0.81060000  0.27590000  0.22252000  1
  C  C138  1  0.82120000  0.05210000  0.30092000  1
  C  C139  1  0.82810000  0.56062000  0.23015000  1
  C  C140  1  0.83830000  0.23262000  0.49209000  1
  C  C141  1  0.83940000  0.18995000  0.24004000  1
  C  C142  1  0.86050000  0.61680000  0.30837000  1
  C  C143  1  0.86840000  0.18202000  0.60568000  1
  C  C144  1  0.87590000  0.07823000  0.89518000  1
  C  C145  1  0.89600000  0.61210000  0.19108000  1
  C  C146  1  0.89810000  0.03165000  0.26846000  1
  C  C147  1  0.90140000  0.01239000  0.00875000  1
  C  C148  1  0.91700000  0.16980000  0.20819000  1
  C  C149  1  0.92800000  0.94630000  0.28545000  1
  C  C150  1  0.92810000  0.66942000  0.26936000  1
  C  C151  1  0.94170000  0.03841000  0.94835000  1
  C  C152  1  0.94680000  0.09200000  0.22148000  1
  C  C153  1  0.94730000  0.66610000  0.21005000  1
  C  C154  1  0.95820000  0.97490000  0.06001000  1
  C  C155  1  0.97780000  0.72764000  0.29150000  1
  O  O156  1  0.00373000  0.93261000  0.25854000  1
  O  O157  1  0.01388000  0.71369000  0.16912000  1
  O  O158  1  0.02405000  0.07798000  0.18795000  1
  O  O159  1  0.04269000  0.77095000  0.25541000  1
  O  O160  1  0.04652000  0.83785000  0.40443000  1
  O  O161  1  0.04662000  0.26899000  0.65676000  1
  O  O162  1  0.08712000  0.04820000  0.88282000  1
  O  O163  1  0.08769000  0.90934000  0.15855000  1
  O  O164  1  0.12373000  0.10487000  0.67509000  1
  O  O165  1  0.13851000  0.67387000  0.81769000  1
  O  O166  1  0.16576000  0.82400000  0.34109000  1
  O  O167  1  0.17636000  0.71824000  0.61661000  1
  O  O168  1  0.20119000  0.49857000  0.84501000  1
  O  O169  1  0.20340000  0.96385000  0.24678000  1
  O  O170  1  0.20919000  0.90326000  0.09340000  1
  O  O171  1  0.20965000  0.65272000  0.30032000  1
  O  O172  1  0.23460000  0.02026000  0.33341000  1
  O  O173  1  0.24252000  0.80129000  0.23910000  1
  O  O174  1  0.25608000  0.48450000  0.66927000  1
  O  O175  1  0.26427000  0.70959000  0.74961000  1
  O  O176  1  0.28449000  0.59627000  0.91262000  1
  O  O177  1  0.28694000  0.54039000  0.75617000  1
  O  O178  1  0.28710000  0.85710000  0.67937000  1
  O  O179  1  0.29271000  0.00416000  0.15906000  1
  O  O180  1  0.34043000  0.78134000  0.38177000  1
  O  O181  1  0.34944000  0.66705000  0.65819000  1
  O  O182  1  0.37340000  0.83884000  0.17542000  1
  O  O183  1  0.37762000  0.40639000  0.30859000  1
  O  O184  1  0.40439000  0.59985000  0.84375000  1
  O  O185  1  0.41946000  0.45138000  0.11895000  1
  O  O186  1  0.44662000  0.23482000  0.34564000  1
  O  O187  1  0.46302000  0.40883000  0.82098000  1
  O  O188  1  0.46661000  0.72492000  0.74298000  1
  O  O189  1  0.47113000  0.65929000  0.59352000  1
  O  O190  1  0.48919000  0.55634000  0.75274000  1
  O  O191  1  0.49607000  0.78180000  0.82893000  1
  O  O192  1  0.50393000  0.21820000  0.17107000  1
  O  O193  1  0.51081000  0.44366000  0.24726000  1
  O  O194  1  0.52887000  0.34071000  0.40648000  1
  O  O195  1  0.53339000  0.27508000  0.25702000  1
  O  O196  1  0.53698000  0.59117000  0.17902000  1
  O  O197  1  0.55338000  0.76518000  0.65436000  1
  O  O198  1  0.58054000  0.54862000  0.88105000  1
  O  O199  1  0.59561000  0.40015000  0.15625000  1
  O  O200  1  0.62238000  0.59361000  0.69141000  1
  O  O201  1  0.62660000  0.16116000  0.82458000  1
  O  O202  1  0.65056000  0.33295000  0.34181000  1
  O  O203  1  0.65957000  0.21866000  0.61823000  1
  O  O204  1  0.70729000  0.99584000  0.84094000  1
  O  O205  1  0.71290000  0.14290000  0.32063000  1
  O  O206  1  0.71306000  0.45961000  0.24383000  1
  O  O207  1  0.71551000  0.40373000  0.08738000  1
  O  O208  1  0.73573000  0.29041000  0.25039000  1
  O  O209  1  0.74392000  0.51550000  0.33073000  1
  O  O210  1  0.75748000  0.19871000  0.76090000  1
  O  O211  1  0.76540000  0.97974000  0.66659000  1
  O  O212  1  0.79035000  0.34728000  0.69968000  1
  O  O213  1  0.79081000  0.09674000  0.90660000  1
  O  O214  1  0.79660000  0.03615000  0.75322000  1
  O  O215  1  0.79881000  0.50143000  0.15499000  1
  O  O216  1  0.82364000  0.28176000  0.38339000  1
  O  O217  1  0.83424000  0.17600000  0.65891000  1
  O  O218  1  0.86149000  0.32613000  0.18231000  1
  O  O219  1  0.87627000  0.89513000  0.32491000  1
  O  O220  1  0.91231000  0.09066000  0.84145000  1
  O  O221  1  0.91288000  0.95180000  0.11718000  1
  O  O222  1  0.95338000  0.73101000  0.34324000  1
  O  O223  1  0.95348000  0.16215000  0.59557000  1
  O  O224  1  0.95731000  0.22905000  0.74459000  1
  O  O225  1  0.97595000  0.92202000  0.81205000  1
  O  O226  1  0.98612000  0.28631000  0.83088000  1
  O  O227  1  0.99627000  0.06739000  0.74146000  1
