# generated using pymatgen
data_ZnH7C13NO4
_symmetry_space_group_name_H-M   'P 1'
_cell_length_a   13.99600000
_cell_length_b   14.62190000
_cell_length_c   18.58510000
_cell_angle_alpha   69.12450000
_cell_angle_beta   67.88050000
_cell_angle_gamma   61.40610000
_symmetry_Int_Tables_number   1
_chemical_formula_structural   ZnH7C13NO4
_chemical_formula_sum   'Zn8 H56 C104 N8 O32'
_cell_volume   3020.33710505
_cell_formula_units_Z   8
loop_
 _symmetry_equiv_pos_site_id
 _symmetry_equiv_pos_as_xyz
  1  'x, y, z'
loop_
 _atom_site_type_symbol
 _atom_site_label
 _atom_site_symmetry_multiplicity
 _atom_site_fract_x
 _atom_site_fract_y
 _atom_site_fract_z
 _atom_site_occupancy
  Zn  Zn0  1  0.08127000  0.93628000  0.60158000  1
  Zn  Zn1  1  0.11894000  0.26392000  0.18432000  1
  Zn  Zn2  1  0.38087000  0.43628000  0.10158000  1
  Zn  Zn3  1  0.43282000  0.76392000  0.68432000  1
  Zn  Zn4  1  0.56718000  0.23608000  0.31568000  1
  Zn  Zn5  1  0.61913000  0.56372000  0.89842000  1
  Zn  Zn6  1  0.88106000  0.73608000  0.81568000  1
  Zn  Zn7  1  0.91873000  0.06372000  0.39842000  1
  H  H8  1  0.00790000  0.44360000  0.45500000  1
  H  H9  1  0.03410000  0.27230000  0.52850000  1
  H  H10  1  0.08540000  0.72450000  0.62330000  1
  H  H11  1  0.09050000  0.13320000  0.10880000  1
  H  H12  1  0.09350000  0.94360000  0.95500000  1
  H  H13  1  0.10230000  0.96900000  0.82300000  1
  H  H14  1  0.10570000  0.46900000  0.32300000  1
  H  H15  1  0.16510000  0.77230000  0.02850000  1
  H  H16  1  0.18780000  0.57390000  0.57070000  1
  H  H17  1  0.19210000  0.99130000  0.04870000  1
  H  H18  1  0.21680000  0.46350000  0.76130000  1
  H  H19  1  0.23210000  0.50870000  0.45130000  1
  H  H20  1  0.27880000  0.86310000  0.46850000  1
  H  H21  1  0.28910000  0.91080000  0.29100000  1
  H  H22  1  0.33240000  0.92610000  0.92930000  1
  H  H23  1  0.33250000  0.36680000  0.39120000  1
  H  H24  1  0.36270000  0.11980000  0.13100000  1
  H  H25  1  0.38650000  0.61980000  0.63100000  1
  H  H26  1  0.38960000  0.36310000  0.96850000  1
  H  H27  1  0.39070000  0.71650000  0.41250000  1
  H  H28  1  0.40560000  0.35700000  0.75460000  1
  H  H29  1  0.43320000  0.77550000  0.87670000  1
  H  H30  1  0.44160000  0.03650000  0.73870000  1
  H  H31  1  0.47020000  0.96750000  0.08130000  1
  H  H32  1  0.48030000  0.21650000  0.91250000  1
  H  H33  1  0.48100000  0.46750000  0.58130000  1
  H  H34  1  0.48280000  0.85700000  0.25460000  1
  H  H35  1  0.49090000  0.58920000  0.20900000  1
  H  H36  1  0.50910000  0.41080000  0.79100000  1
  H  H37  1  0.51720000  0.14300000  0.74540000  1
  H  H38  1  0.51900000  0.53250000  0.41870000  1
  H  H39  1  0.51970000  0.78350000  0.08750000  1
  H  H40  1  0.52980000  0.03250000  0.91870000  1
  H  H41  1  0.55840000  0.96350000  0.26130000  1
  H  H42  1  0.56680000  0.22450000  0.12330000  1
  H  H43  1  0.59440000  0.64300000  0.24540000  1
  H  H44  1  0.60930000  0.28350000  0.58750000  1
  H  H45  1  0.61040000  0.63690000  0.03150000  1
  H  H46  1  0.61350000  0.38020000  0.36900000  1
  H  H47  1  0.63730000  0.88020000  0.86900000  1
  H  H48  1  0.66750000  0.63320000  0.60880000  1
  H  H49  1  0.66760000  0.07390000  0.07070000  1
  H  H50  1  0.71090000  0.08920000  0.70900000  1
  H  H51  1  0.72120000  0.13690000  0.53150000  1
  H  H52  1  0.76790000  0.49130000  0.54870000  1
  H  H53  1  0.78320000  0.53650000  0.23870000  1
  H  H54  1  0.80790000  0.00870000  0.95130000  1
  H  H55  1  0.81220000  0.42610000  0.42930000  1
  H  H56  1  0.83490000  0.22770000  0.97150000  1
  H  H57  1  0.89430000  0.53100000  0.67700000  1
  H  H58  1  0.89770000  0.03100000  0.17700000  1
  H  H59  1  0.90650000  0.05640000  0.04500000  1
  H  H60  1  0.90950000  0.86680000  0.89120000  1
  H  H61  1  0.91460000  0.27550000  0.37670000  1
  H  H62  1  0.96590000  0.72770000  0.47150000  1
  H  H63  1  0.99210000  0.55640000  0.54500000  1
  C  C64  1  0.05810000  0.38540000  0.43180000  1
  C  C65  1  0.07540000  0.28250000  0.47590000  1
  C  C66  1  0.08000000  0.63380000  0.81520000  1
  C  C67  1  0.11620000  0.40030000  0.35310000  1
  C  C68  1  0.12470000  0.88540000  0.93180000  1
  C  C69  1  0.12620000  0.08480000  0.33220000  1
  C  C70  1  0.13040000  0.90030000  0.85310000  1
  C  C71  1  0.14640000  0.72330000  0.57950000  1
  C  C72  1  0.15360000  0.19370000  0.44310000  1
  C  C73  1  0.16620000  0.78250000  0.97590000  1
  C  C74  1  0.16800000  0.10090000  0.10190000  1
  C  C75  1  0.17090000  0.08390000  0.49710000  1
  C  C76  1  0.17800000  0.81270000  0.81810000  1
  C  C77  1  0.18630000  0.83690000  0.73090000  1
  C  C78  1  0.19120000  0.31270000  0.31810000  1
  C  C79  1  0.20510000  0.57560000  0.80720000  1
  C  C80  1  0.20700000  0.63260000  0.54780000  1
  C  C81  1  0.20960000  0.69370000  0.94310000  1
  C  C82  1  0.21290000  0.20790000  0.36290000  1
  C  C83  1  0.21630000  0.70790000  0.86290000  1
  C  C84  1  0.22870000  0.01480000  0.06640000  1
  C  C85  1  0.24590000  0.33690000  0.23090000  1
  C  C86  1  0.24810000  0.58390000  0.99710000  1
  C  C87  1  0.25050000  0.04900000  0.31820000  1
  C  C88  1  0.25810000  0.48320000  0.77760000  1
  C  C89  1  0.26000000  0.80400000  0.48920000  1
  C  C90  1  0.26750000  0.61130000  0.82750000  1
  C  C91  1  0.29370000  0.11130000  0.32750000  1
  C  C92  1  0.29730000  0.63120000  0.48080000  1
  C  C93  1  0.30990000  0.48520000  0.43360000  1
  C  C94  1  0.32030000  0.95300000  0.29340000  1
  C  C95  1  0.32700000  0.71690000  0.45370000  1
  C  C96  1  0.32760000  0.09160000  0.11620000  1
  C  C97  1  0.34490000  0.96240000  0.05660000  1
  C  C98  1  0.36390000  0.53760000  0.44340000  1
  C  C99  1  0.37080000  0.39910000  0.39810000  1
  C  C100  1  0.37160000  0.42020000  0.77220000  1
  C  C101  1  0.38230000  0.54900000  0.81820000  1
  C  C102  1  0.38740000  0.86740000  0.95220000  1
  C  C103  1  0.39360000  0.00150000  0.08410000  1
  C  C104  1  0.40930000  0.86880000  0.01920000  1
  C  C105  1  0.41210000  0.07560000  0.30720000  1
  C  C106  1  0.43330000  0.45300000  0.79340000  1
  C  C107  1  0.43600000  0.92020000  0.27220000  1
  C  C108  1  0.44680000  0.30400000  0.98920000  1
  C  C109  1  0.44920000  0.77670000  0.92050000  1
  C  C110  1  0.45680000  0.58480000  0.83220000  1
  C  C111  1  0.46460000  0.59160000  0.61620000  1
  C  C112  1  0.47100000  0.13380000  0.31520000  1
  C  C113  1  0.47920000  0.49850000  0.41590000  1
  C  C114  1  0.48110000  0.98320000  0.27760000  1
  C  C115  1  0.49760000  0.78310000  0.04630000  1
  C  C116  1  0.50240000  0.21690000  0.95370000  1
  C  C117  1  0.51890000  0.01680000  0.72240000  1
  C  C118  1  0.52080000  0.50150000  0.58410000  1
  C  C119  1  0.52900000  0.86620000  0.68480000  1
  C  C120  1  0.53540000  0.40840000  0.38380000  1
  C  C121  1  0.54320000  0.41520000  0.16780000  1
  C  C122  1  0.55080000  0.22330000  0.07950000  1
  C  C123  1  0.55320000  0.69600000  0.01080000  1
  C  C124  1  0.56400000  0.07980000  0.72780000  1
  C  C125  1  0.56670000  0.54700000  0.20660000  1
  C  C126  1  0.58790000  0.92440000  0.69280000  1
  C  C127  1  0.59070000  0.13120000  0.98080000  1
  C  C128  1  0.60640000  0.99850000  0.91590000  1
  C  C129  1  0.61260000  0.13260000  0.04780000  1
  C  C130  1  0.61770000  0.45100000  0.18180000  1
  C  C131  1  0.62840000  0.57980000  0.22780000  1
  C  C132  1  0.62920000  0.60090000  0.60190000  1
  C  C133  1  0.63610000  0.46240000  0.55660000  1
  C  C134  1  0.65510000  0.03760000  0.94340000  1
  C  C135  1  0.67240000  0.90840000  0.88380000  1
  C  C136  1  0.67300000  0.28310000  0.54630000  1
  C  C137  1  0.67970000  0.04700000  0.70660000  1
  C  C138  1  0.69010000  0.51480000  0.56640000  1
  C  C139  1  0.70270000  0.36880000  0.51920000  1
  C  C140  1  0.70630000  0.88870000  0.67250000  1
  C  C141  1  0.73250000  0.38870000  0.17250000  1
  C  C142  1  0.74000000  0.19600000  0.51080000  1
  C  C143  1  0.74190000  0.51680000  0.22240000  1
  C  C144  1  0.74950000  0.95100000  0.68180000  1
  C  C145  1  0.75190000  0.41610000  0.00290000  1
  C  C146  1  0.75410000  0.66310000  0.76910000  1
  C  C147  1  0.77130000  0.98520000  0.93360000  1
  C  C148  1  0.78370000  0.29210000  0.13710000  1
  C  C149  1  0.78710000  0.79210000  0.63710000  1
  C  C150  1  0.79040000  0.30630000  0.05690000  1
  C  C151  1  0.79300000  0.36740000  0.45220000  1
  C  C152  1  0.79490000  0.42440000  0.19280000  1
  C  C153  1  0.80880000  0.68730000  0.68190000  1
  C  C154  1  0.81370000  0.16310000  0.26910000  1
  C  C155  1  0.82200000  0.18730000  0.18190000  1
  C  C156  1  0.82910000  0.91610000  0.50290000  1
  C  C157  1  0.83200000  0.89910000  0.89810000  1
  C  C158  1  0.83380000  0.21750000  0.02410000  1
  C  C159  1  0.84640000  0.80630000  0.55690000  1
  C  C160  1  0.85360000  0.27670000  0.42050000  1
  C  C161  1  0.86960000  0.09970000  0.14690000  1
  C  C162  1  0.87380000  0.91520000  0.66780000  1
  C  C163  1  0.87530000  0.11460000  0.06820000  1
  C  C164  1  0.88380000  0.59970000  0.64690000  1
  C  C165  1  0.92000000  0.36620000  0.18480000  1
  C  C166  1  0.92460000  0.71750000  0.52410000  1
  C  C167  1  0.94190000  0.61460000  0.56820000  1
  N  N168  1  0.17190000  0.80910000  0.54990000  1
  N  N169  1  0.21600000  0.13960000  0.12700000  1
  N  N170  1  0.46910000  0.30910000  0.04990000  1
  N  N171  1  0.48260000  0.36040000  0.37300000  1
  N  N172  1  0.51740000  0.63960000  0.62700000  1
  N  N173  1  0.53090000  0.69090000  0.95010000  1
  N  N174  1  0.78400000  0.86040000  0.87300000  1
  N  N175  1  0.82810000  0.19090000  0.45010000  1
  O  O176  1  0.02480000  0.70350000  0.85490000  1
  O  O177  1  0.03500000  0.60930000  0.78270000  1
  O  O178  1  0.07141000  0.17408000  0.29570000  1
  O  O179  1  0.07820000  0.07680000  0.54300000  1
  O  O180  1  0.08250000  0.02120000  0.38120000  1
  O  O181  1  0.09796000  0.90538000  0.70910000  1
  O  O182  1  0.22940000  0.51210000  0.99390000  1
  O  O183  1  0.24573000  0.29274000  0.18380000  1
  O  O184  1  0.26460000  0.01210000  0.49390000  1
  O  O185  1  0.27773000  0.79274000  0.68380000  1
  O  O186  1  0.28756000  0.40538000  0.20910000  1
  O  O187  1  0.30200000  0.57680000  0.04300000  1
  O  O188  1  0.41680000  0.20350000  0.35490000  1
  O  O189  1  0.42700000  0.89070000  0.71730000  1
  O  O190  1  0.45881000  0.67408000  0.79570000  1
  O  O191  1  0.48490000  0.47880000  0.11880000  1
  O  O192  1  0.51510000  0.52120000  0.88120000  1
  O  O193  1  0.54119000  0.32592000  0.20430000  1
  O  O194  1  0.57300000  0.10930000  0.28270000  1
  O  O195  1  0.58320000  0.79650000  0.64510000  1
  O  O196  1  0.69800000  0.42320000  0.95700000  1
  O  O197  1  0.71244000  0.59462000  0.79090000  1
  O  O198  1  0.72227000  0.20726000  0.31620000  1
  O  O199  1  0.73540000  0.98790000  0.50610000  1
  O  O200  1  0.75427000  0.70726000  0.81620000  1
  O  O201  1  0.77060000  0.48790000  0.00610000  1
  O  O202  1  0.90204000  0.09462000  0.29090000  1
  O  O203  1  0.91750000  0.97880000  0.61880000  1
  O  O204  1  0.92180000  0.92320000  0.45700000  1
  O  O205  1  0.92859000  0.82592000  0.70430000  1
  O  O206  1  0.96500000  0.39070000  0.21730000  1
  O  O207  1  0.97520000  0.29650000  0.14510000  1
