# generated using pymatgen
data_NiH24(C4N3)4
_symmetry_space_group_name_H-M   'P 1'
_cell_length_a   11.20100000
_cell_length_b   14.94300000
_cell_length_c   21.48300000
_cell_angle_alpha   90.00000000
_cell_angle_beta   92.09600000
_cell_angle_gamma   90.00000000
_symmetry_Int_Tables_number   1
_chemical_formula_structural   NiH24(C4N3)4
_chemical_formula_sum   'Ni4 H96 C64 N48'
_cell_volume   3593.34453496
_cell_formula_units_Z   4
loop_
 _symmetry_equiv_pos_site_id
 _symmetry_equiv_pos_as_xyz
  1  'x, y, z'
loop_
 _atom_site_type_symbol
 _atom_site_label
 _atom_site_symmetry_multiplicity
 _atom_site_fract_x
 _atom_site_fract_y
 _atom_site_fract_z
 _atom_site_occupancy
  Ni  Ni0  1  0.09830000  0.76260000  0.30033000  1
  Ni  Ni1  1  0.40170000  0.26260000  0.19967000  1
  Ni  Ni2  1  0.59830000  0.73740000  0.80033000  1
  Ni  Ni3  1  0.90170000  0.23740000  0.69967000  1
  H  H4  1  0.00490000  0.67570000  0.16510000  1
  H  H5  1  0.01090000  0.50960000  0.90000000  1
  H  H6  1  0.01680000  0.14650000  0.45660000  1
  H  H7  1  0.01700000  0.60740000  0.92630000  1
  H  H8  1  0.02620000  0.72750000  0.63400000  1
  H  H9  1  0.04910000  0.56740000  0.63460000  1
  H  H10  1  0.05230000  0.43580000  0.31720000  1
  H  H11  1  0.05780000  0.99000000  0.44380000  1
  H  H12  1  0.06430000  0.62310000  0.75900000  1
  H  H13  1  0.07950000  0.32620000  0.39810000  1
  H  H14  1  0.08150000  0.78410000  0.44850000  1
  H  H15  1  0.08180000  0.38320000  0.66540000  1
  H  H16  1  0.08420000  0.43180000  0.98740000  1
  H  H17  1  0.11940000  0.52550000  0.01610000  1
  H  H18  1  0.12300000  0.98670000  0.50940000  1
  H  H19  1  0.12900000  0.96720000  0.31780000  1
  H  H20  1  0.14900000  0.29310000  0.11690000  1
  H  H21  1  0.15370000  0.66410000  0.71210000  1
  H  H22  1  0.15530000  0.13090000  0.46530000  1
  H  H23  1  0.17640000  0.17210000  0.67590000  1
  H  H24  1  0.21990000  0.51500000  0.68770000  1
  H  H25  1  0.22450000  0.36560000  0.28240000  1
  H  H26  1  0.24640000  0.60920000  0.22960000  1
  H  H27  1  0.24910000  0.53970000  0.75760000  1
  H  H28  1  0.25090000  0.03970000  0.74240000  1
  H  H29  1  0.25360000  0.10920000  0.27040000  1
  H  H30  1  0.27550000  0.86560000  0.21760000  1
  H  H31  1  0.28010000  0.01500000  0.81230000  1
  H  H32  1  0.32360000  0.67210000  0.82410000  1
  H  H33  1  0.34470000  0.63090000  0.03470000  1
  H  H34  1  0.34630000  0.16410000  0.78790000  1
  H  H35  1  0.35100000  0.79310000  0.38310000  1
  H  H36  1  0.37100000  0.46720000  0.18220000  1
  H  H37  1  0.37700000  0.48670000  0.99060000  1
  H  H38  1  0.38060000  0.02550000  0.48390000  1
  H  H39  1  0.41580000  0.93180000  0.51260000  1
  H  H40  1  0.41820000  0.88320000  0.83460000  1
  H  H41  1  0.41850000  0.28410000  0.05150000  1
  H  H42  1  0.42050000  0.82620000  0.10190000  1
  H  H43  1  0.43570000  0.12310000  0.74100000  1
  H  H44  1  0.44220000  0.49000000  0.05620000  1
  H  H45  1  0.44770000  0.93580000  0.18280000  1
  H  H46  1  0.45090000  0.06740000  0.86540000  1
  H  H47  1  0.47380000  0.22750000  0.86600000  1
  H  H48  1  0.48300000  0.10740000  0.57370000  1
  H  H49  1  0.48320000  0.64650000  0.04340000  1
  H  H50  1  0.48910000  0.00960000  0.60000000  1
  H  H51  1  0.49510000  0.17570000  0.33490000  1
  H  H52  1  0.50490000  0.82430000  0.66510000  1
  H  H53  1  0.51090000  0.99040000  0.40000000  1
  H  H54  1  0.51680000  0.35350000  0.95660000  1
  H  H55  1  0.51700000  0.89260000  0.42630000  1
  H  H56  1  0.52620000  0.77250000  0.13400000  1
  H  H57  1  0.54910000  0.93260000  0.13460000  1
  H  H58  1  0.55230000  0.06420000  0.81720000  1
  H  H59  1  0.55780000  0.51000000  0.94380000  1
  H  H60  1  0.56430000  0.87690000  0.25900000  1
  H  H61  1  0.57950000  0.17380000  0.89810000  1
  H  H62  1  0.58150000  0.71590000  0.94850000  1
  H  H63  1  0.58180000  0.11680000  0.16540000  1
  H  H64  1  0.58420000  0.06820000  0.48740000  1
  H  H65  1  0.61940000  0.97450000  0.51610000  1
  H  H66  1  0.62300000  0.51330000  0.00940000  1
  H  H67  1  0.62900000  0.53280000  0.81780000  1
  H  H68  1  0.64900000  0.20690000  0.61690000  1
  H  H69  1  0.65370000  0.83590000  0.21210000  1
  H  H70  1  0.65530000  0.36910000  0.96530000  1
  H  H71  1  0.67640000  0.32790000  0.17590000  1
  H  H72  1  0.71990000  0.98500000  0.18770000  1
  H  H73  1  0.72450000  0.13440000  0.78240000  1
  H  H74  1  0.74640000  0.89080000  0.72960000  1
  H  H75  1  0.74910000  0.96030000  0.25760000  1
  H  H76  1  0.75090000  0.46030000  0.24240000  1
  H  H77  1  0.75360000  0.39080000  0.77040000  1
  H  H78  1  0.77550000  0.63440000  0.71760000  1
  H  H79  1  0.78010000  0.48500000  0.31230000  1
  H  H80  1  0.82360000  0.82790000  0.32410000  1
  H  H81  1  0.84470000  0.86910000  0.53470000  1
  H  H82  1  0.84630000  0.33590000  0.28790000  1
  H  H83  1  0.85100000  0.70690000  0.88310000  1
  H  H84  1  0.87100000  0.03280000  0.68220000  1
  H  H85  1  0.87700000  0.01330000  0.49060000  1
  H  H86  1  0.88060000  0.47450000  0.98390000  1
  H  H87  1  0.91580000  0.56820000  0.01260000  1
  H  H88  1  0.91820000  0.61680000  0.33460000  1
  H  H89  1  0.91850000  0.21590000  0.55150000  1
  H  H90  1  0.92050000  0.67380000  0.60190000  1
  H  H91  1  0.93570000  0.37690000  0.24100000  1
  H  H92  1  0.94220000  0.01000000  0.55620000  1
  H  H93  1  0.94770000  0.56420000  0.68280000  1
  H  H94  1  0.95090000  0.43260000  0.36540000  1
  H  H95  1  0.97380000  0.27250000  0.36600000  1
  H  H96  1  0.98300000  0.39260000  0.07370000  1
  H  H97  1  0.98320000  0.85350000  0.54340000  1
  H  H98  1  0.98910000  0.49040000  0.10000000  1
  H  H99  1  0.99510000  0.32430000  0.83490000  1
  C  C100  1  0.01100000  0.80170000  0.42790000  1
  C  C101  1  0.01300000  0.60000000  0.66790000  1
  C  C102  1  0.02700000  0.35400000  0.80130000  1
  C  C103  1  0.03300000  0.44500000  0.07770000  1
  C  C104  1  0.03800000  0.31400000  0.35850000  1
  C  C105  1  0.05700000  0.01400000  0.48580000  1
  C  C106  1  0.05700000  0.48020000  0.01360000  1
  C  C107  1  0.07200000  0.38500000  0.70820000  1
  C  C108  1  0.07800000  0.11800000  0.48290000  1
  C  C109  1  0.10400000  0.61240000  0.72040000  1
  C  C110  1  0.13100000  0.17380000  0.63900000  1
  C  C111  1  0.18500000  0.52760000  0.72740000  1
  C  C112  1  0.18700000  0.34670000  0.12780000  1
  C  C113  1  0.19500000  0.94070000  0.33770000  1
  C  C114  1  0.20850000  0.30480000  0.28630000  1
  C  C115  1  0.22500000  0.16600000  0.28040000  1
  C  C116  1  0.27500000  0.66600000  0.21960000  1
  C  C117  1  0.29150000  0.80480000  0.21370000  1
  C  C118  1  0.30500000  0.44070000  0.16230000  1
  C  C119  1  0.31300000  0.84670000  0.37220000  1
  C  C120  1  0.31500000  0.02760000  0.77260000  1
  C  C121  1  0.36900000  0.67380000  0.86100000  1
  C  C122  1  0.39600000  0.11240000  0.77960000  1
  C  C123  1  0.42200000  0.61800000  0.01710000  1
  C  C124  1  0.42800000  0.88500000  0.79180000  1
  C  C125  1  0.44300000  0.51400000  0.01420000  1
  C  C126  1  0.44300000  0.98020000  0.48640000  1
  C  C127  1  0.46200000  0.81400000  0.14150000  1
  C  C128  1  0.46700000  0.94500000  0.42230000  1
  C  C129  1  0.47300000  0.85400000  0.69870000  1
  C  C130  1  0.48700000  0.10000000  0.83210000  1
  C  C131  1  0.48900000  0.30170000  0.07210000  1
  C  C132  1  0.51100000  0.69830000  0.92790000  1
  C  C133  1  0.51300000  0.90000000  0.16790000  1
  C  C134  1  0.52700000  0.14600000  0.30130000  1
  C  C135  1  0.53300000  0.05500000  0.57770000  1
  C  C136  1  0.53800000  0.18600000  0.85850000  1
  C  C137  1  0.55700000  0.01980000  0.51360000  1
  C  C138  1  0.55700000  0.48600000  0.98580000  1
  C  C139  1  0.57200000  0.11500000  0.20820000  1
  C  C140  1  0.57800000  0.38200000  0.98290000  1
  C  C141  1  0.60400000  0.88760000  0.22040000  1
  C  C142  1  0.63100000  0.32620000  0.13900000  1
  C  C143  1  0.68500000  0.97240000  0.22740000  1
  C  C144  1  0.68700000  0.15330000  0.62780000  1
  C  C145  1  0.69500000  0.55930000  0.83770000  1
  C  C146  1  0.70850000  0.19520000  0.78630000  1
  C  C147  1  0.72500000  0.33400000  0.78040000  1
  C  C148  1  0.77500000  0.83400000  0.71960000  1
  C  C149  1  0.79150000  0.69520000  0.71370000  1
  C  C150  1  0.80500000  0.05930000  0.66230000  1
  C  C151  1  0.81300000  0.65330000  0.87220000  1
  C  C152  1  0.81500000  0.47240000  0.27260000  1
  C  C153  1  0.86900000  0.82620000  0.36100000  1
  C  C154  1  0.89600000  0.38760000  0.27960000  1
  C  C155  1  0.92200000  0.88200000  0.51710000  1
  C  C156  1  0.92800000  0.61500000  0.29180000  1
  C  C157  1  0.94300000  0.51980000  0.98640000  1
  C  C158  1  0.94300000  0.98600000  0.51420000  1
  C  C159  1  0.96200000  0.68600000  0.64150000  1
  C  C160  1  0.96700000  0.55500000  0.92230000  1
  C  C161  1  0.97300000  0.64600000  0.19870000  1
  C  C162  1  0.98700000  0.40000000  0.33210000  1
  C  C163  1  0.98900000  0.19830000  0.57210000  1
  N  N164  1  0.01250000  0.32580000  0.73880000  1
  N  N165  1  0.01800000  0.21370000  0.63260000  1
  N  N166  1  0.07550000  0.15490000  0.54710000  1
  N  N167  1  0.09200000  0.42700000  0.80610000  1
  N  N168  1  0.11900000  0.44920000  0.74710000  1
  N  N169  1  0.11940000  0.27340000  0.31760000  1
  N  N170  1  0.13100000  0.17980000  0.31580000  1
  N  N171  1  0.14300000  0.42220000  0.11490000  1
  N  N172  1  0.16200000  0.14010000  0.58790000  1
  N  N173  1  0.20860000  0.85070000  0.34180000  1
  N  N174  1  0.21700000  0.48760000  0.13580000  1
  N  N175  1  0.22700000  0.74250000  0.23880000  1
  N  N176  1  0.27300000  0.24250000  0.26120000  1
  N  N177  1  0.28300000  0.98760000  0.36420000  1
  N  N178  1  0.29140000  0.35070000  0.15820000  1
  N  N179  1  0.33800000  0.64010000  0.91210000  1
  N  N180  1  0.35700000  0.92220000  0.38510000  1
  N  N181  1  0.36900000  0.67980000  0.18420000  1
  N  N182  1  0.38060000  0.77340000  0.18240000  1
  N  N183  1  0.38100000  0.94920000  0.75290000  1
  N  N184  1  0.40800000  0.92700000  0.69390000  1
  N  N185  1  0.42450000  0.65490000  0.95290000  1
  N  N186  1  0.48200000  0.71370000  0.86740000  1
  N  N187  1  0.48750000  0.82580000  0.76120000  1
  N  N188  1  0.51250000  0.17420000  0.23880000  1
  N  N189  1  0.51800000  0.28630000  0.13260000  1
  N  N190  1  0.57550000  0.34510000  0.04710000  1
  N  N191  1  0.59200000  0.07300000  0.30610000  1
  N  N192  1  0.61900000  0.05080000  0.24710000  1
  N  N193  1  0.61940000  0.22660000  0.81760000  1
  N  N194  1  0.63100000  0.32020000  0.81580000  1
  N  N195  1  0.64300000  0.07780000  0.61490000  1
  N  N196  1  0.66200000  0.35990000  0.08790000  1
  N  N197  1  0.70860000  0.64930000  0.84180000  1
  N  N198  1  0.71700000  0.01240000  0.63580000  1
  N  N199  1  0.72700000  0.75750000  0.73880000  1
  N  N200  1  0.77300000  0.25750000  0.76120000  1
  N  N201  1  0.78300000  0.51240000  0.86420000  1
  N  N202  1  0.79140000  0.14930000  0.65820000  1
  N  N203  1  0.83800000  0.85990000  0.41210000  1
  N  N204  1  0.85700000  0.57780000  0.88510000  1
  N  N205  1  0.86900000  0.82020000  0.68420000  1
  N  N206  1  0.88060000  0.72660000  0.68240000  1
  N  N207  1  0.88100000  0.55080000  0.25290000  1
  N  N208  1  0.90800000  0.57300000  0.19390000  1
  N  N209  1  0.92450000  0.84510000  0.45290000  1
  N  N210  1  0.98200000  0.78630000  0.36740000  1
  N  N211  1  0.98750000  0.67420000  0.26120000  1
