# generated using pymatgen
data_TbH15(C4O)6
_symmetry_space_group_name_H-M   'P 1'
_cell_length_a   16.22950000
_cell_length_b   16.22950000
_cell_length_c   28.03460000
_cell_angle_alpha   80.12190000
_cell_angle_beta   80.12190000
_cell_angle_gamma   62.93240000
_symmetry_Int_Tables_number   1
_chemical_formula_structural   TbH15(C4O)6
_chemical_formula_sum   'Tb4 H60 C96 O24'
_cell_volume   6441.05829354
_cell_formula_units_Z   4
loop_
 _symmetry_equiv_pos_site_id
 _symmetry_equiv_pos_as_xyz
  1  'x, y, z'
loop_
 _atom_site_type_symbol
 _atom_site_label
 _atom_site_symmetry_multiplicity
 _atom_site_fract_x
 _atom_site_fract_y
 _atom_site_fract_z
 _atom_site_occupancy
  Tb  Tb0  1  0.43125000  0.97098000  0.45556000  1
  Tb  Tb1  1  0.02902000  0.56875000  0.04444000  1
  Tb  Tb2  1  0.97098000  0.43126000  0.95556000  1
  Tb  Tb3  1  0.56875000  0.02902000  0.54444000  1
  H  H4  1  0.44180000  0.97200000  0.98730000  1
  H  H5  1  0.42370000  0.93970000  0.67000000  1
  H  H6  1  0.70520000  0.91040000  0.02870000  1
  H  H7  1  0.45920000  0.87600000  0.29430000  1
  H  H8  1  0.36980000  0.87020000  0.73970000  1
  H  H9  1  0.55330000  0.84930000  0.95570000  1
  H  H10  1  0.75790000  0.82490000  0.52650000  1
  H  H11  1  0.33540000  0.82340000  0.58550000  1
  H  H12  1  0.42680000  0.81400000  0.23630000  1
  H  H13  1  0.29420000  0.77540000  0.78010000  1
  H  H14  1  0.82490000  0.75790000  0.02650000  1
  H  H15  1  0.28250000  0.75170000  0.65560000  1
  H  H16  1  0.35760000  0.73940000  0.40020000  1
  H  H17  1  0.24830000  0.71750000  0.84440000  1
  H  H18  1  0.36620000  0.71700000  0.21350000  1
  H  H19  1  0.22460000  0.70580000  0.71990000  1
  H  H20  1  0.91040000  0.70520000  0.52870000  1
  H  H21  1  0.67130000  0.70410000  0.94780000  1
  H  H22  1  0.70410000  0.67130000  0.44780000  1
  H  H23  1  0.33160000  0.67060000  0.15680000  1
  H  H24  1  0.32940000  0.66840000  0.34320000  1
  H  H25  1  0.17660000  0.66460000  0.91450000  1
  H  H26  1  0.26060000  0.64240000  0.09980000  1
  H  H27  1  0.28300000  0.63380000  0.28650000  1
  H  H28  1  0.12980000  0.63020000  0.76030000  1
  H  H29  1  0.06030000  0.57630000  0.83000000  1
  H  H30  1  0.18600000  0.57320000  0.26370000  1
  H  H31  1  0.02800000  0.55820000  0.51270000  1
  H  H32  1  0.84930000  0.55330000  0.45570000  1
  H  H33  1  0.12400000  0.54080000  0.20570000  1
  H  H34  1  0.87600000  0.45920000  0.79430000  1
  H  H35  1  0.15070000  0.44670000  0.54430000  1
  H  H36  1  0.97200000  0.44180000  0.48730000  1
  H  H37  1  0.81400000  0.42680000  0.73630000  1
  H  H38  1  0.93970000  0.42370000  0.17000000  1
  H  H39  1  0.87020000  0.36980000  0.23970000  1
  H  H40  1  0.71700000  0.36620000  0.71350000  1
  H  H41  1  0.73940000  0.35760000  0.90020000  1
  H  H42  1  0.82340000  0.33540000  0.08550000  1
  H  H43  1  0.67060000  0.33160000  0.65680000  1
  H  H44  1  0.66840000  0.32940000  0.84320000  1
  H  H45  1  0.29590000  0.32870000  0.55220000  1
  H  H46  1  0.32870000  0.29590000  0.05220000  1
  H  H47  1  0.08960000  0.29480000  0.47130000  1
  H  H48  1  0.77540000  0.29420000  0.28010000  1
  H  H49  1  0.63380000  0.28300000  0.78650000  1
  H  H50  1  0.75170000  0.28250000  0.15560000  1
  H  H51  1  0.64240000  0.26060000  0.59980000  1
  H  H52  1  0.71750000  0.24830000  0.34440000  1
  H  H53  1  0.17510000  0.24210000  0.97350000  1
  H  H54  1  0.70580000  0.22460000  0.21990000  1
  H  H55  1  0.57320000  0.18600000  0.76370000  1
  H  H56  1  0.66460000  0.17660000  0.41450000  1
  H  H57  1  0.24210000  0.17510000  0.47350000  1
  H  H58  1  0.44670000  0.15070000  0.04430000  1
  H  H59  1  0.63020000  0.12980000  0.26030000  1
  H  H60  1  0.54080000  0.12400000  0.70570000  1
  H  H61  1  0.29480000  0.08960000  0.97130000  1
  H  H62  1  0.57630000  0.06030000  0.33000000  1
  H  H63  1  0.55820000  0.02800000  0.01270000  1
  C  C64  1  0.54120000  0.98540000  0.00260000  1
  C  C65  1  0.42099000  0.93119000  0.57705000  1
  C  C66  1  0.39400000  0.90240000  0.66713000  1
  C  C67  1  0.61670000  0.89290000  0.99510000  1
  C  C68  1  0.38312000  0.88952000  0.62180000  1
  C  C69  1  0.69740000  0.86680000  0.01360000  1
  C  C70  1  0.36200000  0.86120000  0.70850000  1
  C  C71  1  0.42130000  0.85930000  0.39210000  1
  C  C72  1  0.61964000  0.83624000  0.48240000  1
  C  C73  1  0.43060000  0.83520000  0.30430000  1
  C  C74  1  0.34180000  0.83300000  0.61690000  1
  C  C75  1  0.60890000  0.83090000  0.97000000  1
  C  C76  1  0.40800000  0.81600000  0.35370000  1
  C  C77  1  0.31790000  0.80630000  0.70460000  1
  C  C78  1  0.41300000  0.79720000  0.26980000  1
  C  C79  1  0.31000000  0.79100000  0.65850000  1
  C  C80  1  0.77030000  0.77650000  0.01120000  1
  C  C81  1  0.77650000  0.77030000  0.51120000  1
  C  C82  1  0.28230000  0.76630000  0.74980000  1
  C  C83  1  0.71480000  0.76100000  0.48570000  1
  C  C84  1  0.37200000  0.75460000  0.36650000  1
  C  C85  1  0.67880000  0.74480000  0.96540000  1
  C  C86  1  0.37500000  0.73380000  0.28330000  1
  C  C87  1  0.23370000  0.71770000  0.75020000  1
  C  C88  1  0.76100000  0.71480000  0.98570000  1
  C  C89  1  0.35470000  0.71190000  0.33260000  1
  C  C90  1  0.34720000  0.70140000  0.24640000  1
  C  C91  1  0.86680000  0.69740000  0.51360000  1
  C  C92  1  0.20900000  0.69000000  0.84150000  1
  C  C93  1  0.19370000  0.68210000  0.79540000  1
  C  C94  1  0.74480000  0.67880000  0.46540000  1
  C  C95  1  0.16700000  0.65820000  0.88310000  1
  C  C96  1  0.29860000  0.65280000  0.25360000  1
  C  C97  1  0.28810000  0.64530000  0.16740000  1
  C  C98  1  0.13880000  0.63800000  0.79150000  1
  C  C99  1  0.24540000  0.62800000  0.13350000  1
  C  C100  1  0.26620000  0.62500000  0.21670000  1
  C  C101  1  0.83624000  0.61964000  0.98240000  1
  C  C102  1  0.11048000  0.61688000  0.87820000  1
  C  C103  1  0.89290000  0.61670000  0.49510000  1
  C  C104  1  0.83090000  0.60890000  0.47000000  1
  C  C105  1  0.09760000  0.60600000  0.83287000  1
  C  C106  1  0.18400000  0.59200000  0.14630000  1
  C  C107  1  0.20280000  0.58700000  0.23020000  1
  C  C108  1  0.06881000  0.57901000  0.92295000  1
  C  C109  1  0.14070000  0.57870000  0.10790000  1
  C  C110  1  0.16480000  0.56940000  0.19570000  1
  C  C111  1  0.98540000  0.54120000  0.50260000  1
  C  C112  1  0.01460000  0.45880000  0.49740000  1
  C  C113  1  0.83520000  0.43060000  0.80430000  1
  C  C114  1  0.85930000  0.42130000  0.89210000  1
  C  C115  1  0.93119000  0.42099000  0.07705000  1
  C  C116  1  0.79720000  0.41300000  0.76980000  1
  C  C117  1  0.81600000  0.40800000  0.85370000  1
  C  C118  1  0.90240000  0.39400000  0.16713000  1
  C  C119  1  0.16910000  0.39110000  0.53000000  1
  C  C120  1  0.10710000  0.38330000  0.50490000  1
  C  C121  1  0.88952000  0.38312000  0.12180000  1
  C  C122  1  0.16376000  0.38036000  0.01760000  1
  C  C123  1  0.73380000  0.37500000  0.78330000  1
  C  C124  1  0.75460000  0.37200000  0.86650000  1
  C  C125  1  0.86120000  0.36200000  0.20850000  1
  C  C126  1  0.71190000  0.35470000  0.83260000  1
  C  C127  1  0.70140000  0.34720000  0.74640000  1
  C  C128  1  0.83300000  0.34180000  0.11690000  1
  C  C129  1  0.25520000  0.32120000  0.53460000  1
  C  C130  1  0.80630000  0.31790000  0.20460000  1
  C  C131  1  0.79100000  0.31000000  0.15850000  1
  C  C132  1  0.13320000  0.30260000  0.48640000  1
  C  C133  1  0.65280000  0.29860000  0.75360000  1
  C  C134  1  0.64530000  0.28810000  0.66740000  1
  C  C135  1  0.23900000  0.28520000  0.01430000  1
  C  C136  1  0.76630000  0.28230000  0.24980000  1
  C  C137  1  0.62500000  0.26620000  0.71670000  1
  C  C138  1  0.32120000  0.25520000  0.03460000  1
  C  C139  1  0.62800000  0.24540000  0.63350000  1
  C  C140  1  0.28520000  0.23900000  0.51430000  1
  C  C141  1  0.71770000  0.23370000  0.25020000  1
  C  C142  1  0.22350000  0.22970000  0.48880000  1
  C  C143  1  0.22970000  0.22350000  0.98880000  1
  C  C144  1  0.69000000  0.20900000  0.34150000  1
  C  C145  1  0.58700000  0.20280000  0.73020000  1
  C  C146  1  0.68210000  0.19370000  0.29540000  1
  C  C147  1  0.59200000  0.18400000  0.64630000  1
  C  C148  1  0.39110000  0.16910000  0.03000000  1
  C  C149  1  0.65820000  0.16700000  0.38310000  1
  C  C150  1  0.56940000  0.16480000  0.69570000  1
  C  C151  1  0.38036000  0.16376000  0.51760000  1
  C  C152  1  0.57870000  0.14070000  0.60790000  1
  C  C153  1  0.63800000  0.13880000  0.29150000  1
  C  C154  1  0.30260000  0.13320000  0.98640000  1
  C  C155  1  0.61688000  0.11048000  0.37820000  1
  C  C156  1  0.38330000  0.10710000  0.00490000  1
  C  C157  1  0.60600000  0.09760000  0.33287000  1
  C  C158  1  0.57901000  0.06881000  0.42295000  1
  C  C159  1  0.45880000  0.01460000  0.99740000  1
  O  O160  1  0.45874000  0.98074000  0.58384000  1
  O  O161  1  0.41069000  0.91569000  0.53662000  1
  O  O162  1  0.45913000  0.91293000  0.37641000  1
  O  O163  1  0.59381000  0.90701000  0.50394000  1
  O  O164  1  0.39371000  0.84911000  0.43631000  1
  O  O165  1  0.56935000  0.82655000  0.45758000  1
  O  O166  1  0.15089000  0.60629000  0.06369000  1
  O  O167  1  0.90701000  0.59381000  0.00394000  1
  O  O168  1  0.08431000  0.58931000  0.96338000  1
  O  O169  1  0.82655000  0.56935000  0.95758000  1
  O  O170  1  0.01926000  0.54126000  0.91616000  1
  O  O171  1  0.08707000  0.54087000  0.12359000  1
  O  O172  1  0.91293000  0.45913000  0.87641000  1
  O  O173  1  0.98074000  0.45874000  0.08384000  1
  O  O174  1  0.17345000  0.43065000  0.04242000  1
  O  O175  1  0.91569000  0.41069000  0.03662000  1
  O  O176  1  0.09299000  0.40619000  0.99606000  1
  O  O177  1  0.84911000  0.39371000  0.93631000  1
  O  O178  1  0.43065000  0.17345000  0.54242000  1
  O  O179  1  0.60629000  0.15089000  0.56369000  1
  O  O180  1  0.40619000  0.09299000  0.49606000  1
  O  O181  1  0.54087000  0.08707000  0.62359000  1
  O  O182  1  0.58931000  0.08431000  0.46338000  1
  O  O183  1  0.54126000  0.01926000  0.41616000  1
