# generated using pymatgen
data_Co2H59C68(N2O3)4
_symmetry_space_group_name_H-M   'P 1'
_cell_length_a   13.45600000
_cell_length_b   20.26259492
_cell_length_c   33.41001039
_cell_angle_alpha   73.94099401
_cell_angle_beta   78.38251961
_cell_angle_gamma   70.60733403
_symmetry_Int_Tables_number   1
_chemical_formula_structural   Co2H59C68(N2O3)4
_chemical_formula_sum   'Co8 H236 C272 N32 O48'
_cell_volume   8196.73687624
_cell_formula_units_Z   4
loop_
 _symmetry_equiv_pos_site_id
 _symmetry_equiv_pos_as_xyz
  1  'x, y, z'
loop_
 _atom_site_type_symbol
 _atom_site_label
 _atom_site_symmetry_multiplicity
 _atom_site_fract_x
 _atom_site_fract_y
 _atom_site_fract_z
 _atom_site_occupancy
  C  C0  1  0.97940000  0.86120000  0.10080000  1
  C  C1  1  0.05860000  0.36120000  0.60080000  1
  C  C2  1  0.98860000  0.39020000  0.56600000  1
  C  C3  1  0.05520000  0.89020000  0.06600000  1
  C  C4  1  0.90963000  0.42384000  0.50950000  1
  C  C5  1  0.15703000  0.92384000  0.00950000  1
  C  C6  1  0.00802000  0.39226000  0.52430000  1
  C  C7  1  0.07542000  0.89226000  0.02430000  1
  C  C8  1  0.72168000  0.88724000  0.02140000  1
  C  C9  1  0.36968000  0.38724000  0.52140000  1
  C  C10  1  0.88690000  0.44050000  0.46430000  1
  C  C11  1  0.20830000  0.94050000  0.96430000  1
  C  C12  1  0.72250000  0.01770000  0.87850000  1
  C  C13  1  0.38130000  0.51770000  0.37850000  1
  C  C14  1  0.61690000  0.06150000  0.81950000  1
  C  C15  1  0.50210000  0.56150000  0.31950000  1
  C  C16  1  0.62520000  0.60920000  0.26140000  1
  C  C17  1  0.50420000  0.10920000  0.76140000  1
  C  C18  1  0.64572000  0.35096000  0.51960000  1
  C  C19  1  0.48372000  0.85096000  0.01960000  1
  C  C20  1  0.65820000  0.30650000  0.56310000  1
  C  C21  1  0.47220000  0.80650000  0.06310000  1
  C  C22  1  0.01978000  0.86634000  0.99950000  1
  C  C23  1  0.11438000  0.36634000  0.49950000  1
  C  C24  1  0.70656000  0.01698000  0.83590000  1
  C  C25  1  0.44056000  0.51698000  0.33590000  1
  C  C26  1  0.79197000  0.77376000  0.07190000  1
  C  C27  1  0.36237000  0.27376000  0.57190000  1
  C  C28  1  0.62820000  0.39080000  0.45200000  1
  C  C29  1  0.52900000  0.89080000  0.95200000  1
  C  C30  1  0.59830000  0.06280000  0.77840000  1
  C  C31  1  0.56050000  0.56280000  0.27840000  1
  C  C32  1  0.78344000  0.80952000  0.03100000  1
  C  C33  1  0.37604000  0.30952000  0.53100000  1
  C  C34  1  0.68510000  0.60610000  0.22450000  1
  C  C35  1  0.48430000  0.10610000  0.72450000  1
  C  C36  1  0.64044000  0.32912000  0.48440000  1
  C  C37  1  0.54604000  0.82912000  0.98440000  1
  C  C38  1  0.61940000  0.40080000  0.40680000  1
  C  C39  1  0.57300000  0.90080000  0.90680000  1
  C  C40  1  0.01970000  0.07460000  0.72680000  1
  C  C41  1  0.17890000  0.57460000  0.22680000  1
  C  C42  1  0.87110000  0.67100000  0.12620000  1
  C  C43  1  0.33170000  0.17100000  0.62620000  1
  C  C44  1  0.06000000  0.10430000  0.68650000  1
  C  C45  1  0.14920000  0.60430000  0.18650000  1
  C  C46  1  0.08978000  0.80944000  0.97740000  1
  C  C47  1  0.12338000  0.30944000  0.47740000  1
  C  C48  1  0.85760000  0.70260000  0.08380000  1
  C  C49  1  0.35600000  0.20260000  0.58380000  1
  C  C50  1  0.78173000  0.97204000  0.81170000  1
  C  C51  1  0.43453000  0.47204000  0.31170000  1
  C  C52  1  0.83793000  0.77194000  0.99880000  1
  C  C53  1  0.39133000  0.27194000  0.49880000  1
  C  C54  1  0.67170000  0.01350000  0.75630000  1
  C  C55  1  0.55850000  0.51350000  0.25630000  1
  C  C56  1  0.04700000  0.86560000  0.90040000  1
  C  C57  1  0.18700000  0.36560000  0.40040000  1
  C  C58  1  0.68250000  0.56000000  0.20240000  1
  C  C59  1  0.55510000  0.06000000  0.70240000  1
  C  C60  1  0.96920000  0.02360000  0.73400000  1
  C  C61  1  0.27320000  0.52360000  0.23400000  1
  C  C62  1  0.07004000  0.21192000  0.53860000  1
  C  C63  1  0.17944000  0.71192000  0.03860000  1
  C  C64  1  0.09939000  0.81052000  0.93610000  1
  C  C65  1  0.15399000  0.31052000  0.43610000  1
  C  C66  1  0.76620000  0.96900000  0.77260000  1
  C  C67  1  0.49220000  0.46900000  0.27260000  1
  C  C68  1  0.10591000  0.24268000  0.49550000  1
  C  C69  1  0.15591000  0.74268000  0.99550000  1
  C  C70  1  0.94150000  0.60270000  0.13510000  1
  C  C71  1  0.32070000  0.10270000  0.63510000  1
  C  C72  1  0.65149000  0.25342000  0.48160000  1
  C  C73  1  0.61349000  0.75342000  0.98160000  1
  C  C74  1  0.04900000  0.08100000  0.65260000  1
  C  C75  1  0.21740000  0.58100000  0.15260000  1
  C  C76  1  0.64690000  0.01410000  0.71690000  1
  C  C77  1  0.62210000  0.51410000  0.21690000  1
  C  C78  1  0.91414000  0.66722000  0.05010000  1
  C  C79  1  0.36854000  0.16722000  0.55010000  1
  C  C80  1  0.89780000  0.70150000  0.00790000  1
  C  C81  1  0.39280000  0.20150000  0.50790000  1
  C  C82  1  0.95550000  0.99910000  0.70070000  1
  C  C83  1  0.34470000  0.49910000  0.20070000  1
  C  C84  1  0.75614000  0.20222000  0.49070000  1
  C  C85  1  0.55094000  0.70222000  0.99070000  1
  C  C86  1  0.99690000  0.02840000  0.66020000  1
  C  C87  1  0.31450000  0.52840000  0.16020000  1
  C  C88  1  0.87700000  0.25510000  0.42730000  1
  C  C89  1  0.44060000  0.75510000  0.92730000  1
  C  C90  1  0.70788000  0.11304000  0.56000000  1
  C  C91  1  0.61908000  0.61304000  0.06000000  1
  C  C92  1  0.00030000  0.56710000  0.10350000  1
  C  C93  1  0.32910000  0.06710000  0.60350000  1
  C  C94  1  0.85483000  0.20204000  0.46670000  1
  C  C95  1  0.47643000  0.70204000  0.96670000  1
  C  C96  1  0.85016833  0.91706333  0.74960000  1
  C  C97  1  0.48316833  0.41706333  0.24960000  1
  C  C98  1  0.77722000  0.14286000  0.52350000  1
  C  C99  1  0.55642000  0.64286000  0.02350000  1
  C  C100  1  0.98750000  0.59710000  0.06270000  1
  C  C101  1  0.35270000  0.09710000  0.56270000  1
  C  C102  1  0.89941000  0.94784000  0.70674000  1
  C  C103  1  0.44601000  0.44784000  0.20674000  1
  C  C104  1  0.94953000  0.66494000  0.97180000  1
  C  C105  1  0.41373000  0.16494000  0.47180000  1
  C  C106  1  0.98150000  0.00750000  0.62610000  1
  C  C107  1  0.38490000  0.50750000  0.12610000  1
  C  C108  1  0.86581000  0.73308000  0.88690000  1
  C  C109  1  0.51421000  0.23308000  0.38690000  1
  C  C110  1  0.82580000  0.76360000  0.84900000  1
  C  C111  1  0.56160000  0.26360000  0.34900000  1
  C  C112  1  0.89301000  0.92408000  0.67270000  1
  C  C113  1  0.51021000  0.42408000  0.17270000  1
  C  C114  1  0.87677000  0.63916000  0.95370000  1
  C  C115  1  0.53037000  0.13916000  0.45370000  1
  C  C116  1  0.93259000  0.95565000  0.63077000  1
  C  C117  1  0.48099000  0.45565000  0.13077000  1
  C  C118  1  0.83928000  0.67184000  0.91380000  1
  C  C119  1  0.57508000  0.17184000  0.41380000  1
  C  C120  1  0.76140000  0.73570000  0.83590000  1
  C  C121  1  0.66700000  0.23570000  0.33590000  1
  C  C122  1  0.84692000  0.58006000  0.97830000  1
  C  C123  1  0.59472000  0.08006000  0.47830000  1
  C  C124  1  0.77006000  0.64488000  0.90100000  1
  C  C125  1  0.68406000  0.14488000  0.40100000  1
  C  C126  1  0.73270000  0.67610000  0.86170000  1
  C  C127  1  0.72950000  0.17610000  0.36170000  1
  C  C128  1  0.91947000  0.93132000  0.59514000  1
  C  C129  1  0.55407000  0.43132000  0.09514000  1
  C  C130  1  0.22496000  0.01388000  0.50900000  1
  C  C131  1  0.25216000  0.51388000  0.00900000  1
  C  C132  1  0.78041000  0.55128000  0.96410000  1
  C  C133  1  0.70421000  0.05128000  0.46410000  1
  C  C134  1  0.74662000  0.08406000  0.42630000  1
  C  C135  1  0.74302000  0.58406000  0.92630000  1
  C  C136  1  0.25338000  0.91594000  0.57370000  1
  C  C137  1  0.25698000  0.41594000  0.07370000  1
  C  C138  1  0.21959000  0.44872000  0.03590000  1
  C  C139  1  0.29579000  0.94872000  0.53590000  1
  C  C140  1  0.77504000  0.98612000  0.49100000  1
  C  C141  1  0.74784000  0.48612000  0.99100000  1
  C  C142  1  0.08053000  0.06868000  0.40486000  1
  C  C143  1  0.44593000  0.56868000  0.90486000  1
  C  C144  1  0.26730000  0.32390000  0.13830000  1
  C  C145  1  0.27050000  0.82390000  0.63830000  1
  C  C146  1  0.22994000  0.35512000  0.09900000  1
  C  C147  1  0.31594000  0.85512000  0.59900000  1
  C  C148  1  0.15308000  0.41994000  0.02170000  1
  C  C149  1  0.40528000  0.91994000  0.52170000  1
  C  C150  1  0.23860000  0.26430000  0.16410000  1
  C  C151  1  0.33300000  0.76430000  0.66410000  1
  C  C152  1  0.16072000  0.32816000  0.08620000  1
  C  C153  1  0.42492000  0.82816000  0.58620000  1
  C  C154  1  0.06741000  0.04435000  0.36923000  1
  C  C155  1  0.51901000  0.54435000  0.86923000  1
  C  C156  1  0.12323000  0.36084000  0.04630000  1
  C  C157  1  0.46963000  0.86084000  0.54630000  1
  C  C158  1  0.10699000  0.07592000  0.32730000  1
  C  C159  1  0.48979000  0.57592000  0.82730000  1
  C  C160  1  0.17420000  0.23640000  0.15100000  1
  C  C161  1  0.43840000  0.73640000  0.65100000  1
  C  C162  1  0.13419000  0.26692000  0.11310000  1
  C  C163  1  0.48579000  0.76692000  0.61310000  1
  C  C164  1  0.01850000  0.99250000  0.37390000  1
  C  C165  1  0.61510000  0.49250000  0.87390000  1
  C  C166  1  0.05047000  0.33506000  0.02820000  1
  C  C167  1  0.58627000  0.83506000  0.52820000  1
  C  C168  1  0.10059000  0.05216000  0.29326000  1
  C  C169  1  0.55399000  0.55216000  0.79326000  1
  C  C170  1  0.01250000  0.40290000  0.93730000  1
  C  C171  1  0.64730000  0.90290000  0.43730000  1
  C  C172  1  0.22278000  0.85714000  0.47650000  1
  C  C173  1  0.44358000  0.35714000  0.97650000  1
  C  C174  1  0.14983167  0.08293667  0.25040000  1
  C  C175  1  0.51683167  0.58293667  0.75040000  1
  C  C176  1  0.14517000  0.79796000  0.53330000  1
  C  C177  1  0.52357000  0.29796000  0.03330000  1
  C  C178  1  0.99970000  0.43290000  0.89650000  1
  C  C179  1  0.67090000  0.93290000  0.39650000  1
  C  C180  1  0.29212000  0.88696000  0.44000000  1
  C  C181  1  0.38092000  0.38696000  0.94000000  1
  C  C182  1  0.12300000  0.74490000  0.57270000  1
  C  C183  1  0.55940000  0.24490000  0.07270000  1
  C  C184  1  0.00310000  0.97160000  0.33980000  1
  C  C185  1  0.68550000  0.47160000  0.83980000  1
  C  C186  1  0.24386000  0.79778000  0.50930000  1
  C  C187  1  0.44906000  0.29778000  0.00930000  1
  C  C188  1  0.04450000  0.00090000  0.29930000  1
  C  C189  1  0.65530000  0.50090000  0.79930000  1
  C  C190  1  0.10220000  0.29850000  0.99210000  1
  C  C191  1  0.60720000  0.79850000  0.49210000  1
  C  C192  1  0.08586000  0.33278000  0.94990000  1
  C  C193  1  0.63146000  0.83278000  0.44990000  1
  C  C194  1  0.35310000  0.98590000  0.28310000  1
  C  C195  1  0.37790000  0.48590000  0.78310000  1
  C  C196  1  0.95100000  0.91900000  0.34740000  1
  C  C197  1  0.78260000  0.41900000  0.84740000  1
  C  C198  1  0.34851000  0.74658000  0.51840000  1
  C  C199  1  0.38651000  0.24658000  0.01840000  1
  C  C200  1  0.05850000  0.39730000  0.86490000  1
  C  C201  1  0.67930000  0.89730000  0.36490000  1
  C  C202  1  0.89409000  0.75732000  0.50450000  1
  C  C203  1  0.84409000  0.25732000  0.00450000  1
  C  C204  1  0.23380000  0.03100000  0.22740000  1
  C  C205  1  0.50780000  0.53100000  0.72740000  1
  C  C206  1  0.90061000  0.18948000  0.06390000  1
  C  C207  1  0.84601000  0.68948000  0.56390000  1
  C  C208  1  0.92996000  0.78808000  0.46140000  1
  C  C209  1  0.82056000  0.28808000  0.96140000  1
  C  C210  1  0.03080000  0.97640000  0.26600000  1
  C  C211  1  0.72680000  0.47640000  0.76600000  1
  C  C212  1  0.31750000  0.44000000  0.79760000  1
  C  C213  1  0.44490000  0.94000000  0.29760000  1
  C  C214  1  0.95300000  0.13440000  0.09960000  1
  C  C215  1  0.81300000  0.63440000  0.59960000  1
  C  C216  1  0.32830000  0.98650000  0.24370000  1
  C  C217  1  0.44150000  0.48650000  0.74370000  1
  C  C218  1  0.16207000  0.22806000  0.00120000  1
  C  C219  1  0.60867000  0.72806000  0.50120000  1
  C  C220  1  0.21827000  0.02796000  0.18830000  1
  C  C221  1  0.56547000  0.52796000  0.68830000  1
  C  C222  1  0.14240000  0.29740000  0.91620000  1
  C  C223  1  0.64400000  0.79740000  0.41620000  1
  C  C224  1  0.91022000  0.19056000  0.02260000  1
  C  C225  1  0.87662000  0.69056000  0.52260000  1
  C  C226  1  0.94000000  0.89570000  0.31350000  1
  C  C227  1  0.85080000  0.39570000  0.81350000  1
  C  C228  1  0.12890000  0.32900000  0.87380000  1
  C  C229  1  0.66830000  0.82900000  0.37380000  1
  C  C230  1  0.98030000  0.92540000  0.27320000  1
  C  C231  1  0.82110000  0.42540000  0.77320000  1
  C  C232  1  0.38060000  0.59920000  0.59320000  1
  C  C233  1  0.42700000  0.09920000  0.09320000  1
  C  C234  1  0.35956000  0.67088000  0.51560000  1
  C  C235  1  0.45396000  0.17088000  0.01560000  1
  C  C236  1  0.31490000  0.39390000  0.77550000  1
  C  C237  1  0.51570000  0.89390000  0.27550000  1
  C  C238  1  0.21656000  0.19048000  0.96900000  1
  C  C239  1  0.62396000  0.69048000  0.46900000  1
  C  C240  1  0.40170000  0.93720000  0.22160000  1
  C  C241  1  0.43950000  0.43720000  0.72160000  1
  C  C242  1  0.37180000  0.60920000  0.54800000  1
  C  C243  1  0.47100000  0.10920000  0.04800000  1
  C  C244  1  0.20803000  0.22624000  0.92810000  1
  C  C245  1  0.63763000  0.72624000  0.42810000  1
  C  C246  1  0.29344000  0.98302000  0.16410000  1
  C  C247  1  0.55944000  0.48302000  0.66410000  1
  C  C248  1  0.98022000  0.13366000  0.00050000  1
  C  C249  1  0.88562000  0.63366000  0.50050000  1
  C  C250  1  0.34180000  0.69350000  0.43690000  1
  C  C251  1  0.52780000  0.19350000  0.93690000  1
  C  C252  1  0.35428000  0.64904000  0.48040000  1
  C  C253  1  0.51628000  0.14904000  0.98040000  1
  C  C254  1  0.37480000  0.39080000  0.73860000  1
  C  C255  1  0.49580000  0.89080000  0.23860000  1
  C  C256  1  0.38310000  0.93850000  0.18050000  1
  C  C257  1  0.49790000  0.43850000  0.68050000  1
  C  C258  1  0.27750000  0.98230000  0.12150000  1
  C  C259  1  0.61870000  0.48230000  0.62150000  1
  C  C260  1  0.11310000  0.55950000  0.53570000  1
  C  C261  1  0.79170000  0.05950000  0.03570000  1
  C  C262  1  0.27832000  0.11276000  0.97860000  1
  C  C263  1  0.63032000  0.61276000  0.47860000  1
  C  C264  1  0.99198000  0.60774000  0.47570000  1
  C  C265  1  0.92458000  0.10774000  0.97570000  1
  C  C266  1  0.09037000  0.57616000  0.49050000  1
  C  C267  1  0.84297000  0.07616000  0.99050000  1
  C  C268  1  0.01140000  0.60980000  0.43400000  1
  C  C269  1  0.94480000  0.10980000  0.93400000  1
  C  C270  1  0.02060000  0.13880000  0.89920000  1
  C  C271  1  0.94140000  0.63880000  0.39920000  1
  Co  Co272  1  0.69416000  0.02292000  0.95786000  1
  Co  Co273  1  0.32506000  0.52292000  0.45786000  1
  Co  Co274  1  0.09227000  0.11217000  0.46733000  1
  Co  Co275  1  0.32823000  0.61217000  0.96733000  1
  Co  Co276  1  0.90773000  0.88783000  0.53267000  1
  Co  Co277  1  0.67177000  0.38783000  0.03267000  1
  Co  Co278  1  0.30584000  0.97708000  0.04214000  1
  Co  Co279  1  0.67494000  0.47708000  0.54214000  1
  H  H280  1  0.98740000  0.86940000  0.12680000  1
  H  H281  1  0.01640000  0.36940000  0.62680000  1
  H  H282  1  0.90780000  0.88530000  0.09450000  1
  H  H283  1  0.11240000  0.38530000  0.59450000  1
  H  H284  1  0.87700000  0.07590000  0.90110000  1
  H  H285  1  0.14600000  0.57590000  0.40110000  1
  H  H286  1  0.61590000  0.48700000  0.45480000  1
  H  H287  1  0.44230000  0.98700000  0.95480000  1
  H  H288  1  0.56650000  0.09160000  0.83520000  1
  H  H289  1  0.50670000  0.59160000  0.33520000  1
  H  H290  1  0.81220000  0.46270000  0.46290000  1
  H  H291  1  0.26220000  0.96270000  0.96290000  1
  H  H292  1  0.92520000  0.47260000  0.44680000  1
  H  H293  1  0.15540000  0.97260000  0.94680000  1
  H  H294  1  0.62610000  0.64170000  0.27610000  1
  H  H295  1  0.45610000  0.14170000  0.77610000  1
  H  H296  1  0.65910000  0.33600000  0.58100000  1
  H  H297  1  0.42390000  0.83600000  0.08100000  1
  H  H298  1  0.99460000  0.81060000  0.10320000  1
  H  H299  1  0.09160000  0.31060000  0.60320000  1
  H  H300  1  0.75270000  0.79740000  0.09280000  1
  H  H301  1  0.35710000  0.29740000  0.59280000  1
  H  H302  1  0.98470000  0.90720000  0.97880000  1
  H  H303  1  0.12930000  0.40720000  0.47880000  1
  H  H304  1  0.96510000  0.84800000  0.01840000  1
  H  H305  1  0.16850000  0.34800000  0.51840000  1
  H  H306  1  0.60010000  0.28640000  0.57340000  1
  H  H307  1  0.54010000  0.78640000  0.07340000  1
  H  H308  1  0.90890000  0.39660000  0.45480000  1
  H  H309  1  0.23970000  0.89660000  0.95480000  1
  H  H310  1  0.72890000  0.63560000  0.21400000  1
  H  H311  1  0.42150000  0.13560000  0.71400000  1
  H  H312  1  0.61190000  0.45010000  0.39270000  1
  H  H313  1  0.54530000  0.95010000  0.89270000  1
  H  H314  1  0.83440000  0.69480000  0.14740000  1
  H  H315  1  0.32340000  0.19480000  0.64740000  1
  H  H316  1  0.02750000  0.09030000  0.74930000  1
  H  H317  1  0.13290000  0.59030000  0.24930000  1
  H  H318  1  0.72370000  0.26830000  0.56290000  1
  H  H319  1  0.44510000  0.76830000  0.06290000  1
  H  H320  1  0.08460000  0.63910000  0.18230000  1
  H  H321  1  0.09400000  0.13910000  0.68230000  1
  H  H322  1  0.06220000  0.91000000  0.89740000  1
  H  H323  1  0.13040000  0.41000000  0.39740000  1
  H  H324  1  0.79940000  0.84760000  0.95600000  1
  H  H325  1  0.39700000  0.34760000  0.45600000  1
  H  H326  1  0.64900000  0.88800000  0.90440000  1
  H  H327  1  0.55860000  0.38800000  0.40440000  1
  H  H328  1  0.00110000  0.24160000  0.54700000  1
  H  H329  1  0.21030000  0.74160000  0.04700000  1
  H  H330  1  0.87450000  0.93470000  0.85070000  1
  H  H331  1  0.34010000  0.43470000  0.35070000  1
  H  H332  1  0.97160000  0.87350000  0.90590000  1
  H  H333  1  0.24900000  0.37350000  0.40590000  1
  H  H334  1  0.94340000  0.00490000  0.76130000  1
  H  H335  1  0.29040000  0.50490000  0.26130000  1
  H  H336  1  0.11510000  0.70910000  0.05670000  1
  H  H337  1  0.11910000  0.20910000  0.55670000  1
  H  H338  1  0.68220000  0.37060000  0.39420000  1
  H  H339  1  0.55300000  0.87060000  0.89420000  1
  H  H340  1  0.95010000  0.57960000  0.16300000  1
  H  H341  1  0.30730000  0.07960000  0.66300000  1
  H  H342  1  0.66560000  0.73660000  0.00120000  1
  H  H343  1  0.59660000  0.23660000  0.50120000  1
  H  H344  1  0.72320000  0.55990000  0.17630000  1
  H  H345  1  0.54060000  0.05990000  0.67630000  1
  H  H346  1  0.85600000  0.30220000  0.43300000  1
  H  H347  1  0.40880000  0.80220000  0.93300000  1
  H  H348  1  0.07570000  0.09990000  0.62550000  1
  H  H349  1  0.19890000  0.59990000  0.12550000  1
  H  H350  1  0.07360000  0.84890000  0.87490000  1
  H  H351  1  0.20260000  0.34890000  0.37490000  1
  H  H352  1  0.65160000  0.75460000  0.95360000  1
  H  H353  1  0.64020000  0.25460000  0.45360000  1
  H  H354  1  0.06630000  0.16460000  0.54060000  1
  H  H355  1  0.22850000  0.66460000  0.04060000  1
  H  H356  1  0.66430000  0.64190000  0.05830000  1
  H  H357  1  0.63550000  0.14190000  0.55830000  1
  H  H358  1  0.72950000  0.11340000  0.58560000  1
  H  H359  1  0.57150000  0.61340000  0.08560000  1
  H  H360  1  0.69350000  0.98310000  0.70090000  1
  H  H361  1  0.62250000  0.48310000  0.20090000  1
  H  H362  1  0.83760000  0.25580000  0.40620000  1
  H  H363  1  0.50040000  0.75580000  0.90620000  1
  H  H364  1  0.95140000  0.24160000  0.41760000  1
  H  H365  1  0.38940000  0.74160000  0.91760000  1
  H  H366  1  0.90670000  0.89150000  0.76710000  1
  H  H367  1  0.43470000  0.39150000  0.26710000  1
  H  H368  1  0.97830000  0.69820000  0.94940000  1
  H  H369  1  0.37410000  0.19820000  0.44940000  1
  H  H370  1  0.91030000  0.75240000  0.89500000  1
  H  H371  1  0.44230000  0.25240000  0.39500000  1
  H  H372  1  0.17030000  0.23610000  0.40570000  1
  H  H373  1  0.18790000  0.73610000  0.90570000  1
  H  H374  1  0.84270000  0.80420000  0.83200000  1
  H  H375  1  0.52110000  0.30420000  0.33200000  1
  H  H376  1  0.04880000  0.52220000  0.11080000  1
  H  H377  1  0.31820000  0.02220000  0.61080000  1
  H  H378  1  0.00510000  0.02940000  0.59920000  1
  H  H379  1  0.81920000  0.88190000  0.74670000  1
  H  H380  1  0.55220000  0.38190000  0.24670000  1
  H  H381  1  0.36630000  0.52940000  0.09920000  1
  H  H382  1  0.71410000  0.06470000  0.55950000  1
  H  H383  1  0.66170000  0.56470000  0.05950000  1
  H  H384  1  0.02680000  0.57210000  0.04230000  1
  H  H385  1  0.35880000  0.07210000  0.54230000  1
  H  H386  1  0.91710000  0.07300000  0.53540000  1
  H  H387  1  0.47450000  0.57300000  0.03540000  1
  H  H388  1  0.00850000  0.62390000  0.98130000  1
  H  H389  1  0.38630000  0.12390000  0.48130000  1
  H  H390  1  0.73700000  0.75640000  0.80980000  1
  H  H391  1  0.69680000  0.25640000  0.30980000  1
  H  H392  1  0.84710000  0.86220000  0.65680000  1
  H  H393  1  0.63390000  0.36220000  0.15680000  1
  H  H394  1  0.18190000  0.93420000  0.58280000  1
  H  H395  1  0.30110000  0.43420000  0.08280000  1
  H  H396  1  0.80110000  0.15710000  0.35290000  1
  H  H397  1  0.68890000  0.65710000  0.85290000  1
  H  H398  1  0.19890000  0.84290000  0.64710000  1
  H  H399  1  0.31110000  0.34290000  0.14710000  1
  H  H400  1  0.81810000  0.06580000  0.41720000  1
  H  H401  1  0.69890000  0.56580000  0.91720000  1
  H  H402  1  0.15290000  0.13780000  0.34320000  1
  H  H403  1  0.36610000  0.63780000  0.84320000  1
  H  H404  1  0.26300000  0.24360000  0.19020000  1
  H  H405  1  0.30320000  0.74360000  0.69020000  1
  H  H406  1  0.99150000  0.37610000  0.01870000  1
  H  H407  1  0.61370000  0.87610000  0.51870000  1
  H  H408  1  0.08290000  0.92700000  0.46460000  1
  H  H409  1  0.52550000  0.42700000  0.96460000  1
  H  H410  1  0.97320000  0.42790000  0.95770000  1
  H  H411  1  0.64120000  0.92790000  0.45770000  1
  H  H412  1  0.28590000  0.93530000  0.44050000  1
  H  H413  1  0.33830000  0.43530000  0.94050000  1
  H  H414  1  0.18080000  0.11810000  0.25330000  1
  H  H415  1  0.99490000  0.97060000  0.40080000  1
  H  H416  1  0.63370000  0.47060000  0.90080000  1
  H  H417  1  0.44780000  0.61810000  0.75330000  1
  H  H418  1  0.95120000  0.47780000  0.88920000  1
  H  H419  1  0.68180000  0.97780000  0.38920000  1
  H  H420  1  0.15730000  0.19580000  0.16800000  1
  H  H421  1  0.47890000  0.69580000  0.66800000  1
  H  H422  1  0.82970000  0.76390000  0.59430000  1
  H  H423  1  0.81210000  0.26390000  0.09430000  1
  H  H424  1  0.08970000  0.24760000  0.10500000  1
  H  H425  1  0.55770000  0.74760000  0.60500000  1
  H  H426  1  0.02170000  0.30180000  0.05060000  1
  H  H427  1  0.62590000  0.80180000  0.55060000  1
  H  H428  1  0.09330000  0.10850000  0.23290000  1
  H  H429  1  0.56530000  0.60850000  0.73290000  1
  H  H430  1  0.04860000  0.75840000  0.58240000  1
  H  H431  1  0.61060000  0.25840000  0.08240000  1
  H  H432  1  0.16240000  0.74420000  0.59380000  1
  H  H433  1  0.49960000  0.24420000  0.09380000  1
  H  H434  1  0.30650000  0.01690000  0.29910000  1
  H  H435  1  0.37750000  0.51690000  0.79910000  1
  H  H436  1  0.27050000  0.88660000  0.41440000  1
  H  H437  1  0.42850000  0.38660000  0.91440000  1
  H  H438  1  0.33570000  0.35810000  0.94170000  1
  H  H439  1  0.36450000  0.85810000  0.44170000  1
  H  H440  1  0.93370000  0.83540000  0.45940000  1
  H  H441  1  0.77150000  0.33540000  0.95940000  1
  H  H442  1  0.34840000  0.24540000  0.04640000  1
  H  H443  1  0.35980000  0.74540000  0.54640000  1
  H  H444  1  0.92640000  0.15110000  0.12510000  1
  H  H445  1  0.79740000  0.65110000  0.62510000  1
  H  H446  1  0.92430000  0.90010000  0.37450000  1
  H  H447  1  0.80110000  0.40010000  0.87450000  1
  H  H448  1  0.14400000  0.69780000  0.56700000  1
  H  H449  1  0.59120000  0.19780000  0.06700000  1
  H  H450  1  0.27680000  0.44010000  0.82370000  1
  H  H451  1  0.45940000  0.94010000  0.32370000  1
  H  H452  1  0.33440000  0.26340000  0.99880000  1
  H  H453  1  0.40340000  0.76340000  0.49880000  1
  H  H454  1  0.04990000  0.42040000  0.83700000  1
  H  H455  1  0.69270000  0.92040000  0.33700000  1
  H  H456  1  0.31780000  0.62940000  0.60580000  1
  H  H457  1  0.44700000  0.12940000  0.10580000  1
  H  H458  1  0.88490000  0.29090000  0.94330000  1
  H  H459  1  0.88090000  0.79090000  0.44330000  1
  H  H460  1  0.05660000  0.99510000  0.23870000  1
  H  H461  1  0.70960000  0.49510000  0.73870000  1
  H  H462  1  0.02840000  0.12650000  0.09410000  1
  H  H463  1  0.75100000  0.62650000  0.59410000  1
  H  H464  1  0.12550000  0.06530000  0.14930000  1
  H  H465  1  0.65990000  0.56530000  0.64930000  1
  H  H466  1  0.99890000  0.75840000  0.45300000  1
  H  H467  1  0.78970000  0.25840000  0.95300000  1
  H  H468  1  0.35100000  0.11200000  0.09560000  1
  H  H469  1  0.44140000  0.61200000  0.59560000  1
  H  H470  1  0.20060000  0.15240000  0.04400000  1
  H  H471  1  0.60300000  0.65240000  0.54400000  1
  H  H472  1  0.93780000  0.09000000  0.10260000  1
  H  H473  1  0.86960000  0.59000000  0.60260000  1
  H  H474  1  0.91540000  0.36090000  0.81770000  1
  H  H475  1  0.90600000  0.86090000  0.31770000  1
  H  H476  1  0.27630000  0.73170000  0.43710000  1
  H  H477  1  0.55490000  0.23170000  0.93710000  1
  H  H478  1  0.97250000  0.90970000  0.25070000  1
  H  H479  1  0.86710000  0.40970000  0.75070000  1
  H  H480  1  0.16560000  0.30520000  0.85260000  1
  H  H481  1  0.67660000  0.80520000  0.35260000  1
  H  H482  1  0.38810000  0.54990000  0.60730000  1
  H  H483  1  0.45470000  0.04990000  0.10730000  1
  H  H484  1  0.27110000  0.36440000  0.78600000  1
  H  H485  1  0.57850000  0.86440000  0.28600000  1
  H  H486  1  0.09110000  0.60340000  0.54520000  1
  H  H487  1  0.76030000  0.10340000  0.04520000  1
  H  H488  1  0.39990000  0.71360000  0.42660000  1
  H  H489  1  0.45990000  0.21360000  0.92660000  1
  H  H490  1  0.03490000  0.15200000  0.98160000  1
  H  H491  1  0.83150000  0.65200000  0.48160000  1
  H  H492  1  0.01530000  0.09280000  0.02120000  1
  H  H493  1  0.87070000  0.59280000  0.52120000  1
  H  H494  1  0.24730000  0.20260000  0.90720000  1
  H  H495  1  0.64290000  0.70260000  0.40720000  1
  H  H496  1  0.00540000  0.18940000  0.89680000  1
  H  H497  1  0.90840000  0.68940000  0.39680000  1
  H  H498  1  0.34090000  0.66400000  0.41900000  1
  H  H499  1  0.57610000  0.16400000  0.91900000  1
  H  H500  1  0.37390000  0.35830000  0.72390000  1
  H  H501  1  0.54390000  0.85830000  0.22390000  1
  H  H502  1  0.07480000  0.52740000  0.55320000  1
  H  H503  1  0.84460000  0.02740000  0.05320000  1
  H  H504  1  0.18780000  0.53730000  0.53710000  1
  H  H505  1  0.73780000  0.03730000  0.03710000  1
  H  H506  1  0.43350000  0.90840000  0.16480000  1
  H  H507  1  0.49330000  0.40840000  0.66480000  1
  H  H508  1  0.38410000  0.51300000  0.54520000  1
  H  H509  1  0.55770000  0.01300000  0.04520000  1
  H  H510  1  0.12300000  0.92410000  0.09890000  1
  H  H511  1  0.85400000  0.42410000  0.59890000  1
  H  H512  1  0.09220000  0.11470000  0.90550000  1
  H  H513  1  0.88760000  0.61470000  0.40550000  1
  H  H514  1  0.01260000  0.13060000  0.87320000  1
  H  H515  1  0.98360000  0.63060000  0.37320000  1
  N  N516  1  0.88499000  0.41892000  0.57430000  1
  N  N517  1  0.12179000  0.91892000  0.07430000  1
  N  N518  1  0.83350000  0.43891000  0.54049000  1
  N  N519  1  0.18710000  0.93891000  0.04049000  1
  N  N520  1  0.63599000  0.42156000  0.50986000  1
  N  N521  1  0.43259000  0.92156000  0.00986000  1
  N  N522  1  0.62460000  0.44332000  0.46868000  1
  N  N523  1  0.46340000  0.94332000  0.96868000  1
  N  N524  1  0.15401000  0.24726000  0.42972000  1
  N  N525  1  0.16901000  0.74726000  0.92972000  1
  N  N526  1  0.12490000  0.20393000  0.46607000  1
  N  N527  1  0.20510000  0.70393000  0.96607000  1
  N  N528  1  0.93249000  0.14634000  0.48428000  1
  N  N529  1  0.43689000  0.64634000  0.98428000  1
  N  N530  1  0.88437000  0.11111000  0.51855000  1
  N  N531  1  0.48597000  0.61111000  0.01855000  1
  N  N532  1  0.11563000  0.88889000  0.48145000  1
  N  N533  1  0.51403000  0.38889000  0.98145000  1
  N  N534  1  0.06751000  0.85366000  0.51572000  1
  N  N535  1  0.56311000  0.35366000  0.01572000  1
  N  N536  1  0.87510000  0.79607000  0.53393000  1
  N  N537  1  0.79490000  0.29607000  0.03393000  1
  N  N538  1  0.84599000  0.75274000  0.57028000  1
  N  N539  1  0.83099000  0.25274000  0.07028000  1
  N  N540  1  0.37540000  0.55668000  0.53132000  1
  N  N541  1  0.53660000  0.05668000  0.03132000  1
  N  N542  1  0.36401000  0.57844000  0.49014000  1
  N  N543  1  0.56741000  0.07844000  0.99014000  1
  N  N544  1  0.16650000  0.56109000  0.45951000  1
  N  N545  1  0.81290000  0.06109000  0.95951000  1
  N  N546  1  0.11501000  0.58108000  0.42570000  1
  N  N547  1  0.87821000  0.08108000  0.92570000  1
  O  O548  1  0.67102000  0.91731000  0.05005000  1
  O  O549  1  0.36162000  0.41731000  0.55005000  1
  O  O550  1  0.64813000  0.05043000  0.90111000  1
  O  O551  1  0.40033000  0.55043000  0.40111000  1
  O  O552  1  0.72717000  0.92004000  0.98262000  1
  O  O553  1  0.37017000  0.42004000  0.48262000  1
  O  O554  1  0.80514000  0.98041000  0.89271000  1
  O  O555  1  0.32174000  0.48041000  0.39271000  1
  O  O556  1  0.83260000  0.80494000  0.95806000  1
  O  O557  1  0.40440000  0.30494000  0.45806000  1
  O  O558  1  0.87468000  0.92863000  0.82741000  1
  O  O559  1  0.36928000  0.42863000  0.32741000  1
  O  O560  1  0.88259000  0.54766000  0.01576000  1
  O  O561  1  0.55399000  0.04766000  0.51576000  1
  O  O562  1  0.12944000  0.03934000  0.52358000  1
  O  O563  1  0.30764000  0.53934000  0.02358000  1
  O  O564  1  0.84342000  0.87312000  0.67904000  1
  O  O565  1  0.60442000  0.37312000  0.17904000  1
  O  O566  1  0.93919000  0.96692000  0.55830000  1
  O  O567  1  0.53559000  0.46692000  0.05830000  1
  O  O568  1  0.10677000  0.12395000  0.40031000  1
  O  O569  1  0.36897000  0.62395000  0.90031000  1
  O  O570  1  0.22204000  0.54122000  0.97330000  1
  O  O571  1  0.26344000  0.04122000  0.47330000  1
  O  O572  1  0.77796000  0.45878000  0.02670000  1
  O  O573  1  0.73656000  0.95878000  0.52670000  1
  O  O574  1  0.89323000  0.87605000  0.59969000  1
  O  O575  1  0.63103000  0.37605000  0.09969000  1
  O  O576  1  0.06081000  0.03308000  0.44170000  1
  O  O577  1  0.46441000  0.53308000  0.94170000  1
  O  O578  1  0.15658000  0.12688000  0.32096000  1
  O  O579  1  0.39558000  0.62688000  0.82096000  1
  O  O580  1  0.87056000  0.96066000  0.47642000  1
  O  O581  1  0.69236000  0.46066000  0.97642000  1
  O  O582  1  0.11741000  0.45234000  0.98424000  1
  O  O583  1  0.44601000  0.95234000  0.48424000  1
  O  O584  1  0.12532000  0.07137000  0.17259000  1
  O  O585  1  0.63072000  0.57137000  0.67259000  1
  O  O586  1  0.16740000  0.19506000  0.04194000  1
  O  O587  1  0.59560000  0.69506000  0.54194000  1
  O  O588  1  0.19486000  0.01959000  0.10729000  1
  O  O589  1  0.67826000  0.51959000  0.60729000  1
  O  O590  1  0.27283000  0.07996000  0.01738000  1
  O  O591  1  0.62983000  0.57996000  0.51738000  1
  O  O592  1  0.35187000  0.94957000  0.09889000  1
  O  O593  1  0.59967000  0.44957000  0.59889000  1
  O  O594  1  0.32898000  0.08269000  0.94995000  1
  O  O595  1  0.63838000  0.58269000  0.44995000  1
