# generated using pymatgen
data_Zn5H31C36N9O13
_symmetry_space_group_name_H-M   'P 1'
_cell_length_a   15.50800000
_cell_length_b   19.22000000
_cell_length_c   25.21100000
_cell_angle_alpha   90.00000000
_cell_angle_beta   90.00000000
_cell_angle_gamma   90.00000000
_symmetry_Int_Tables_number   1
_chemical_formula_structural   Zn5H31C36N9O13
_chemical_formula_sum   'Zn20 H124 C144 N36 O52'
_cell_volume   7514.48545336
_cell_formula_units_Z   4
loop_
 _symmetry_equiv_pos_site_id
 _symmetry_equiv_pos_as_xyz
  1  'x, y, z'
loop_
 _atom_site_type_symbol
 _atom_site_label
 _atom_site_symmetry_multiplicity
 _atom_site_fract_x
 _atom_site_fract_y
 _atom_site_fract_z
 _atom_site_occupancy
  Zn  Zn0  1  0.02579000  0.53568000  0.45013000  1
  Zn  Zn1  1  0.02579000  0.96432000  0.45013000  1
  Zn  Zn2  1  0.05372000  0.66218000  0.22766000  1
  Zn  Zn3  1  0.05372000  0.83782000  0.22766000  1
  Zn  Zn4  1  0.18290000  0.75000000  0.30419000  1
  Zn  Zn5  1  0.31710000  0.25000000  0.80419000  1
  Zn  Zn6  1  0.44628000  0.16218000  0.72766000  1
  Zn  Zn7  1  0.44628000  0.33782000  0.72766000  1
  Zn  Zn8  1  0.47421000  0.03568000  0.95013000  1
  Zn  Zn9  1  0.47421000  0.46432000  0.95013000  1
  Zn  Zn10  1  0.52579000  0.53568000  0.04987000  1
  Zn  Zn11  1  0.52579000  0.96432000  0.04987000  1
  Zn  Zn12  1  0.55372000  0.66218000  0.27234000  1
  Zn  Zn13  1  0.55372000  0.83782000  0.27234000  1
  Zn  Zn14  1  0.68290000  0.75000000  0.19581000  1
  Zn  Zn15  1  0.81710000  0.25000000  0.69581000  1
  Zn  Zn16  1  0.94628000  0.16218000  0.77234000  1
  Zn  Zn17  1  0.94628000  0.33782000  0.77234000  1
  Zn  Zn18  1  0.97421000  0.03568000  0.54987000  1
  Zn  Zn19  1  0.97421000  0.46432000  0.54987000  1
  H  H20  1  0.00540000  0.75000000  0.51290000  1
  H  H21  1  0.02230000  0.00300000  0.09570000  1
  H  H22  1  0.02230000  0.49700000  0.09570000  1
  H  H23  1  0.02300000  0.01930000  0.71920000  1
  H  H24  1  0.02300000  0.48070000  0.71920000  1
  H  H25  1  0.02920000  0.50900000  0.66100000  1
  H  H26  1  0.02920000  0.99100000  0.66100000  1
  H  H27  1  0.03510000  0.14540000  0.35270000  1
  H  H28  1  0.03510000  0.35460000  0.35270000  1
  H  H29  1  0.04220000  0.25000000  0.30630000  1
  H  H30  1  0.06440000  0.04930000  0.01430000  1
  H  H31  1  0.06440000  0.45070000  0.01430000  1
  H  H32  1  0.08870000  0.05250000  0.67930000  1
  H  H33  1  0.08870000  0.44750000  0.67930000  1
  H  H34  1  0.12020000  0.09160000  0.78530000  1
  H  H35  1  0.12020000  0.40840000  0.78530000  1
  H  H36  1  0.14880000  0.67850000  0.45340000  1
  H  H37  1  0.14880000  0.82150000  0.45340000  1
  H  H38  1  0.16850000  0.75000000  0.21020000  1
  H  H39  1  0.18610000  0.11100000  0.83000000  1
  H  H40  1  0.18610000  0.38900000  0.83000000  1
  H  H41  1  0.20690000  0.05230000  0.99080000  1
  H  H42  1  0.20690000  0.44770000  0.99080000  1
  H  H43  1  0.21230000  0.61790000  0.43910000  1
  H  H44  1  0.21230000  0.88210000  0.43910000  1
  H  H45  1  0.21450000  0.11350000  0.77040000  1
  H  H46  1  0.21450000  0.38650000  0.77040000  1
  H  H47  1  0.22360000  0.69120000  0.41270000  1
  H  H48  1  0.22360000  0.80880000  0.41270000  1
  H  H49  1  0.23390000  0.06970000  0.61290000  1
  H  H50  1  0.23390000  0.43030000  0.61290000  1
  H  H51  1  0.26610000  0.56970000  0.11290000  1
  H  H52  1  0.26610000  0.93030000  0.11290000  1
  H  H53  1  0.27640000  0.19120000  0.91270000  1
  H  H54  1  0.27640000  0.30880000  0.91270000  1
  H  H55  1  0.28550000  0.61350000  0.27040000  1
  H  H56  1  0.28550000  0.88650000  0.27040000  1
  H  H57  1  0.28770000  0.11790000  0.93910000  1
  H  H58  1  0.28770000  0.38210000  0.93910000  1
  H  H59  1  0.29310000  0.55230000  0.49080000  1
  H  H60  1  0.29310000  0.94770000  0.49080000  1
  H  H61  1  0.31390000  0.61100000  0.33000000  1
  H  H62  1  0.31390000  0.88900000  0.33000000  1
  H  H63  1  0.33150000  0.25000000  0.71020000  1
  H  H64  1  0.35120000  0.17850000  0.95340000  1
  H  H65  1  0.35120000  0.32150000  0.95340000  1
  H  H66  1  0.37980000  0.59160000  0.28530000  1
  H  H67  1  0.37980000  0.90840000  0.28530000  1
  H  H68  1  0.41130000  0.55250000  0.17930000  1
  H  H69  1  0.41130000  0.94750000  0.17930000  1
  H  H70  1  0.43560000  0.54930000  0.51430000  1
  H  H71  1  0.43560000  0.95070000  0.51430000  1
  H  H72  1  0.45780000  0.75000000  0.80630000  1
  H  H73  1  0.46490000  0.64540000  0.85270000  1
  H  H74  1  0.46490000  0.85460000  0.85270000  1
  H  H75  1  0.47080000  0.00900000  0.16100000  1
  H  H76  1  0.47080000  0.49100000  0.16100000  1
  H  H77  1  0.47700000  0.51930000  0.21920000  1
  H  H78  1  0.47700000  0.98070000  0.21920000  1
  H  H79  1  0.47770000  0.50300000  0.59570000  1
  H  H80  1  0.47770000  0.99700000  0.59570000  1
  H  H81  1  0.49460000  0.25000000  0.01290000  1
  H  H82  1  0.50540000  0.75000000  0.98710000  1
  H  H83  1  0.52230000  0.00300000  0.40430000  1
  H  H84  1  0.52230000  0.49700000  0.40430000  1
  H  H85  1  0.52300000  0.01930000  0.78080000  1
  H  H86  1  0.52300000  0.48070000  0.78080000  1
  H  H87  1  0.52920000  0.50900000  0.83900000  1
  H  H88  1  0.52920000  0.99100000  0.83900000  1
  H  H89  1  0.53510000  0.14540000  0.14730000  1
  H  H90  1  0.53510000  0.35460000  0.14730000  1
  H  H91  1  0.54220000  0.25000000  0.19370000  1
  H  H92  1  0.56440000  0.04930000  0.48570000  1
  H  H93  1  0.56440000  0.45070000  0.48570000  1
  H  H94  1  0.58870000  0.05250000  0.82070000  1
  H  H95  1  0.58870000  0.44750000  0.82070000  1
  H  H96  1  0.62020000  0.09160000  0.71470000  1
  H  H97  1  0.62020000  0.40840000  0.71470000  1
  H  H98  1  0.64880000  0.67850000  0.04660000  1
  H  H99  1  0.64880000  0.82150000  0.04660000  1
  H  H100  1  0.66850000  0.75000000  0.28980000  1
  H  H101  1  0.68610000  0.11100000  0.67000000  1
  H  H102  1  0.68610000  0.38900000  0.67000000  1
  H  H103  1  0.70690000  0.05230000  0.50920000  1
  H  H104  1  0.70690000  0.44770000  0.50920000  1
  H  H105  1  0.71230000  0.61790000  0.06090000  1
  H  H106  1  0.71230000  0.88210000  0.06090000  1
  H  H107  1  0.71450000  0.11350000  0.72960000  1
  H  H108  1  0.71450000  0.38650000  0.72960000  1
  H  H109  1  0.72360000  0.69120000  0.08730000  1
  H  H110  1  0.72360000  0.80880000  0.08730000  1
  H  H111  1  0.73390000  0.06970000  0.88710000  1
  H  H112  1  0.73390000  0.43030000  0.88710000  1
  H  H113  1  0.76610000  0.56970000  0.38710000  1
  H  H114  1  0.76610000  0.93030000  0.38710000  1
  H  H115  1  0.77640000  0.19120000  0.58730000  1
  H  H116  1  0.77640000  0.30880000  0.58730000  1
  H  H117  1  0.78550000  0.61350000  0.22960000  1
  H  H118  1  0.78550000  0.88650000  0.22960000  1
  H  H119  1  0.78770000  0.11790000  0.56090000  1
  H  H120  1  0.78770000  0.38210000  0.56090000  1
  H  H121  1  0.79310000  0.55230000  0.00920000  1
  H  H122  1  0.79310000  0.94770000  0.00920000  1
  H  H123  1  0.81390000  0.61100000  0.17000000  1
  H  H124  1  0.81390000  0.88900000  0.17000000  1
  H  H125  1  0.83150000  0.25000000  0.78980000  1
  H  H126  1  0.85120000  0.17850000  0.54660000  1
  H  H127  1  0.85120000  0.32150000  0.54660000  1
  H  H128  1  0.87980000  0.59160000  0.21470000  1
  H  H129  1  0.87980000  0.90840000  0.21470000  1
  H  H130  1  0.91130000  0.55250000  0.32070000  1
  H  H131  1  0.91130000  0.94750000  0.32070000  1
  H  H132  1  0.93560000  0.54930000  0.98570000  1
  H  H133  1  0.93560000  0.95070000  0.98570000  1
  H  H134  1  0.95780000  0.75000000  0.69370000  1
  H  H135  1  0.96490000  0.64540000  0.64730000  1
  H  H136  1  0.96490000  0.85460000  0.64730000  1
  H  H137  1  0.97080000  0.00900000  0.33900000  1
  H  H138  1  0.97080000  0.49100000  0.33900000  1
  H  H139  1  0.97700000  0.51930000  0.28080000  1
  H  H140  1  0.97700000  0.98070000  0.28080000  1
  H  H141  1  0.97770000  0.50300000  0.90430000  1
  H  H142  1  0.97770000  0.99700000  0.90430000  1
  H  H143  1  0.99460000  0.25000000  0.48710000  1
  C  C144  1  0.00460000  0.25000000  0.45070000  1
  C  C145  1  0.00610000  0.11980000  0.45290000  1
  C  C146  1  0.00610000  0.38020000  0.45290000  1
  C  C147  1  0.01180000  0.18680000  0.42420000  1
  C  C148  1  0.01180000  0.31320000  0.42420000  1
  C  C149  1  0.02810000  0.18730000  0.37070000  1
  C  C150  1  0.02810000  0.31270000  0.37070000  1
  C  C151  1  0.03260000  0.03190000  0.68280000  1
  C  C152  1  0.03260000  0.46810000  0.68280000  1
  C  C153  1  0.03410000  0.58260000  0.33420000  1
  C  C154  1  0.03410000  0.91740000  0.33420000  1
  C  C155  1  0.03420000  0.25000000  0.34290000  1
  C  C156  1  0.07810000  0.50270000  0.08290000  1
  C  C157  1  0.07810000  0.99730000  0.08290000  1
  C  C158  1  0.10500000  0.02780000  0.03590000  1
  C  C159  1  0.10500000  0.47220000  0.03590000  1
  C  C160  1  0.11450000  0.58470000  0.16040000  1
  C  C161  1  0.11450000  0.91530000  0.16040000  1
  C  C162  1  0.12490000  0.63640000  0.38170000  1
  C  C163  1  0.12490000  0.86360000  0.38170000  1
  C  C164  1  0.14000000  0.19530000  0.79130000  1
  C  C165  1  0.14000000  0.30470000  0.79130000  1
  C  C166  1  0.14050000  0.54330000  0.11060000  1
  C  C167  1  0.14050000  0.95670000  0.11060000  1
  C  C168  1  0.15800000  0.01180000  0.53060000  1
  C  C169  1  0.15800000  0.48820000  0.53060000  1
  C  C170  1  0.16770000  0.12130000  0.79450000  1
  C  C171  1  0.16770000  0.37870000  0.79450000  1
  C  C172  1  0.18250000  0.65790000  0.42560000  1
  C  C173  1  0.18250000  0.84210000  0.42560000  1
  C  C174  1  0.19010000  0.02700000  0.02050000  1
  C  C175  1  0.19010000  0.47300000  0.02050000  1
  C  C176  1  0.22530000  0.54490000  0.09350000  1
  C  C177  1  0.22530000  0.95510000  0.09350000  1
  C  C178  1  0.24970000  0.01020000  0.54800000  1
  C  C179  1  0.24970000  0.48980000  0.54800000  1
  C  C180  1  0.25030000  0.51020000  0.04800000  1
  C  C181  1  0.25030000  0.98980000  0.04800000  1
  C  C182  1  0.27470000  0.04490000  0.59350000  1
  C  C183  1  0.27470000  0.45510000  0.59350000  1
  C  C184  1  0.30990000  0.52700000  0.52050000  1
  C  C185  1  0.30990000  0.97300000  0.52050000  1
  C  C186  1  0.31750000  0.15790000  0.92560000  1
  C  C187  1  0.31750000  0.34210000  0.92560000  1
  C  C188  1  0.33230000  0.62130000  0.29450000  1
  C  C189  1  0.33230000  0.87870000  0.29450000  1
  C  C190  1  0.34200000  0.51180000  0.03060000  1
  C  C191  1  0.34200000  0.98820000  0.03060000  1
  C  C192  1  0.35950000  0.04330000  0.61060000  1
  C  C193  1  0.35950000  0.45670000  0.61060000  1
  C  C194  1  0.36000000  0.69530000  0.29130000  1
  C  C195  1  0.36000000  0.80470000  0.29130000  1
  C  C196  1  0.37510000  0.13640000  0.88170000  1
  C  C197  1  0.37510000  0.36360000  0.88170000  1
  C  C198  1  0.38550000  0.08470000  0.66040000  1
  C  C199  1  0.38550000  0.41530000  0.66040000  1
  C  C200  1  0.39500000  0.52780000  0.53590000  1
  C  C201  1  0.39500000  0.97220000  0.53590000  1
  C  C202  1  0.42190000  0.00270000  0.58290000  1
  C  C203  1  0.42190000  0.49730000  0.58290000  1
  C  C204  1  0.46580000  0.75000000  0.84290000  1
  C  C205  1  0.46590000  0.08260000  0.83420000  1
  C  C206  1  0.46590000  0.41740000  0.83420000  1
  C  C207  1  0.46740000  0.53190000  0.18280000  1
  C  C208  1  0.46740000  0.96810000  0.18280000  1
  C  C209  1  0.47190000  0.68730000  0.87070000  1
  C  C210  1  0.47190000  0.81270000  0.87070000  1
  C  C211  1  0.48820000  0.68680000  0.92420000  1
  C  C212  1  0.48820000  0.81320000  0.92420000  1
  C  C213  1  0.49390000  0.61980000  0.95290000  1
  C  C214  1  0.49390000  0.88020000  0.95290000  1
  C  C215  1  0.49540000  0.75000000  0.95070000  1
  C  C216  1  0.50460000  0.25000000  0.04930000  1
  C  C217  1  0.50610000  0.11980000  0.04710000  1
  C  C218  1  0.50610000  0.38020000  0.04710000  1
  C  C219  1  0.51180000  0.18680000  0.07580000  1
  C  C220  1  0.51180000  0.31320000  0.07580000  1
  C  C221  1  0.52810000  0.18730000  0.12930000  1
  C  C222  1  0.52810000  0.31270000  0.12930000  1
  C  C223  1  0.53260000  0.03190000  0.81720000  1
  C  C224  1  0.53260000  0.46810000  0.81720000  1
  C  C225  1  0.53410000  0.58260000  0.16580000  1
  C  C226  1  0.53410000  0.91740000  0.16580000  1
  C  C227  1  0.53420000  0.25000000  0.15710000  1
  C  C228  1  0.57810000  0.50270000  0.41710000  1
  C  C229  1  0.57810000  0.99730000  0.41710000  1
  C  C230  1  0.60500000  0.02780000  0.46410000  1
  C  C231  1  0.60500000  0.47220000  0.46410000  1
  C  C232  1  0.61450000  0.58470000  0.33960000  1
  C  C233  1  0.61450000  0.91530000  0.33960000  1
  C  C234  1  0.62490000  0.63640000  0.11830000  1
  C  C235  1  0.62490000  0.86360000  0.11830000  1
  C  C236  1  0.64000000  0.19530000  0.70870000  1
  C  C237  1  0.64000000  0.30470000  0.70870000  1
  C  C238  1  0.64050000  0.54330000  0.38940000  1
  C  C239  1  0.64050000  0.95670000  0.38940000  1
  C  C240  1  0.65800000  0.01180000  0.96940000  1
  C  C241  1  0.65800000  0.48820000  0.96940000  1
  C  C242  1  0.66770000  0.12130000  0.70550000  1
  C  C243  1  0.66770000  0.37870000  0.70550000  1
  C  C244  1  0.68250000  0.65790000  0.07440000  1
  C  C245  1  0.68250000  0.84210000  0.07440000  1
  C  C246  1  0.69010000  0.02700000  0.47950000  1
  C  C247  1  0.69010000  0.47300000  0.47950000  1
  C  C248  1  0.72530000  0.54490000  0.40650000  1
  C  C249  1  0.72530000  0.95510000  0.40650000  1
  C  C250  1  0.74970000  0.01020000  0.95200000  1
  C  C251  1  0.74970000  0.48980000  0.95200000  1
  C  C252  1  0.75030000  0.51020000  0.45200000  1
  C  C253  1  0.75030000  0.98980000  0.45200000  1
  C  C254  1  0.77470000  0.04490000  0.90650000  1
  C  C255  1  0.77470000  0.45510000  0.90650000  1
  C  C256  1  0.80990000  0.52700000  0.97950000  1
  C  C257  1  0.80990000  0.97300000  0.97950000  1
  C  C258  1  0.81750000  0.15790000  0.57440000  1
  C  C259  1  0.81750000  0.34210000  0.57440000  1
  C  C260  1  0.83230000  0.62130000  0.20550000  1
  C  C261  1  0.83230000  0.87870000  0.20550000  1
  C  C262  1  0.84200000  0.51180000  0.46940000  1
  C  C263  1  0.84200000  0.98820000  0.46940000  1
  C  C264  1  0.85950000  0.04330000  0.88940000  1
  C  C265  1  0.85950000  0.45670000  0.88940000  1
  C  C266  1  0.86000000  0.69530000  0.20870000  1
  C  C267  1  0.86000000  0.80470000  0.20870000  1
  C  C268  1  0.87510000  0.13640000  0.61830000  1
  C  C269  1  0.87510000  0.36360000  0.61830000  1
  C  C270  1  0.88550000  0.08470000  0.83960000  1
  C  C271  1  0.88550000  0.41530000  0.83960000  1
  C  C272  1  0.89500000  0.52780000  0.96410000  1
  C  C273  1  0.89500000  0.97220000  0.96410000  1
  C  C274  1  0.92190000  0.00270000  0.91710000  1
  C  C275  1  0.92190000  0.49730000  0.91710000  1
  C  C276  1  0.96580000  0.75000000  0.65710000  1
  C  C277  1  0.96590000  0.08260000  0.66580000  1
  C  C278  1  0.96590000  0.41740000  0.66580000  1
  C  C279  1  0.96740000  0.53190000  0.31720000  1
  C  C280  1  0.96740000  0.96810000  0.31720000  1
  C  C281  1  0.97190000  0.68730000  0.62930000  1
  C  C282  1  0.97190000  0.81270000  0.62930000  1
  C  C283  1  0.98820000  0.68680000  0.57580000  1
  C  C284  1  0.98820000  0.81320000  0.57580000  1
  C  C285  1  0.99390000  0.61980000  0.54710000  1
  C  C286  1  0.99390000  0.88020000  0.54710000  1
  C  C287  1  0.99540000  0.75000000  0.54930000  1
  N  N288  1  0.05950000  0.21470000  0.78110000  1
  N  N289  1  0.05950000  0.28530000  0.78110000  1
  N  N290  1  0.06640000  0.58460000  0.38340000  1
  N  N291  1  0.06640000  0.91540000  0.38340000  1
  N  N292  1  0.06750000  0.63070000  0.30332000  1
  N  N293  1  0.06750000  0.86930000  0.30332000  1
  N  N294  1  0.12680000  0.66560000  0.33405000  1
  N  N295  1  0.12680000  0.83440000  0.33405000  1
  N  N296  1  0.19180000  0.25000000  0.79800000  1
  N  N297  1  0.30820000  0.75000000  0.29800000  1
  N  N298  1  0.37320000  0.16560000  0.83405000  1
  N  N299  1  0.37320000  0.33440000  0.83405000  1
  N  N300  1  0.43250000  0.13070000  0.80332000  1
  N  N301  1  0.43250000  0.36930000  0.80332000  1
  N  N302  1  0.43360000  0.08460000  0.88340000  1
  N  N303  1  0.43360000  0.41540000  0.88340000  1
  N  N304  1  0.44050000  0.71470000  0.28110000  1
  N  N305  1  0.44050000  0.78530000  0.28110000  1
  N  N306  1  0.55950000  0.21470000  0.71890000  1
  N  N307  1  0.55950000  0.28530000  0.71890000  1
  N  N308  1  0.56640000  0.58460000  0.11660000  1
  N  N309  1  0.56640000  0.91540000  0.11660000  1
  N  N310  1  0.56750000  0.63070000  0.19668000  1
  N  N311  1  0.56750000  0.86930000  0.19668000  1
  N  N312  1  0.62680000  0.66560000  0.16595000  1
  N  N313  1  0.62680000  0.83440000  0.16595000  1
  N  N314  1  0.69180000  0.25000000  0.70200000  1
  N  N315  1  0.80820000  0.75000000  0.20200000  1
  N  N316  1  0.87320000  0.16560000  0.66595000  1
  N  N317  1  0.87320000  0.33440000  0.66595000  1
  N  N318  1  0.93250000  0.13070000  0.69668000  1
  N  N319  1  0.93250000  0.36930000  0.69668000  1
  N  N320  1  0.93360000  0.08460000  0.61660000  1
  N  N321  1  0.93360000  0.41540000  0.61660000  1
  N  N322  1  0.94050000  0.71470000  0.21890000  1
  N  N323  1  0.94050000  0.78530000  0.21890000  1
  O  O324  1  0.01240000  0.62070000  0.49940000  1
  O  O325  1  0.01240000  0.87930000  0.49940000  1
  O  O326  1  0.02050000  0.06640000  0.42610000  1
  O  O327  1  0.02050000  0.43360000  0.42610000  1
  O  O328  1  0.03920000  0.58670000  0.17180000  1
  O  O329  1  0.03920000  0.91330000  0.17180000  1
  O  O330  1  0.10470000  0.03980000  0.56140000  1
  O  O331  1  0.10470000  0.46020000  0.56140000  1
  O  O332  1  0.12510000  0.75000000  0.23370000  1
  O  O333  1  0.14090000  0.51630000  0.48704000  1
  O  O334  1  0.14090000  0.98370000  0.48704000  1
  O  O335  1  0.16710000  0.61100000  0.18680000  1
  O  O336  1  0.16710000  0.88900000  0.18680000  1
  O  O337  1  0.33290000  0.11100000  0.68680000  1
  O  O338  1  0.33290000  0.38900000  0.68680000  1
  O  O339  1  0.35910000  0.01630000  0.98704000  1
  O  O340  1  0.35910000  0.48370000  0.98704000  1
  O  O341  1  0.37490000  0.25000000  0.73370000  1
  O  O342  1  0.39530000  0.53980000  0.06140000  1
  O  O343  1  0.39530000  0.96020000  0.06140000  1
  O  O344  1  0.46080000  0.08670000  0.67180000  1
  O  O345  1  0.46080000  0.41330000  0.67180000  1
  O  O346  1  0.47950000  0.56640000  0.92610000  1
  O  O347  1  0.47950000  0.93360000  0.92610000  1
  O  O348  1  0.48760000  0.12070000  0.99940000  1
  O  O349  1  0.48760000  0.37930000  0.99940000  1
  O  O350  1  0.51240000  0.62070000  0.00060000  1
  O  O351  1  0.51240000  0.87930000  0.00060000  1
  O  O352  1  0.52050000  0.06640000  0.07390000  1
  O  O353  1  0.52050000  0.43360000  0.07390000  1
  O  O354  1  0.53920000  0.58670000  0.32820000  1
  O  O355  1  0.53920000  0.91330000  0.32820000  1
  O  O356  1  0.60470000  0.03980000  0.93860000  1
  O  O357  1  0.60470000  0.46020000  0.93860000  1
  O  O358  1  0.62510000  0.75000000  0.26630000  1
  O  O359  1  0.64090000  0.51630000  0.01296000  1
  O  O360  1  0.64090000  0.98370000  0.01296000  1
  O  O361  1  0.66710000  0.61100000  0.31320000  1
  O  O362  1  0.66710000  0.88900000  0.31320000  1
  O  O363  1  0.83290000  0.11100000  0.81320000  1
  O  O364  1  0.83290000  0.38900000  0.81320000  1
  O  O365  1  0.85910000  0.01630000  0.51296000  1
  O  O366  1  0.85910000  0.48370000  0.51296000  1
  O  O367  1  0.87490000  0.25000000  0.76630000  1
  O  O368  1  0.89530000  0.53980000  0.43860000  1
  O  O369  1  0.89530000  0.96020000  0.43860000  1
  O  O370  1  0.96080000  0.08670000  0.82820000  1
  O  O371  1  0.96080000  0.41330000  0.82820000  1
  O  O372  1  0.97950000  0.56640000  0.57390000  1
  O  O373  1  0.97950000  0.93360000  0.57390000  1
  O  O374  1  0.98760000  0.12070000  0.50060000  1
  O  O375  1  0.98760000  0.37930000  0.50060000  1
