# generated using pymatgen
data_BaTiC4O9
_symmetry_space_group_name_H-M   'P 1'
_cell_length_a   13.36700000
_cell_length_b   13.85200000
_cell_length_c   14.02300000
_cell_angle_alpha   90.00000000
_cell_angle_beta   91.61000000
_cell_angle_gamma   90.00000000
_symmetry_Int_Tables_number   1
_chemical_formula_structural   BaTiC4O9
_chemical_formula_sum   'Ba8 Ti8 C32 O72'
_cell_volume   2595.46922179
_cell_formula_units_Z   8
loop_
 _symmetry_equiv_pos_site_id
 _symmetry_equiv_pos_as_xyz
  1  'x, y, z'
loop_
 _atom_site_type_symbol
 _atom_site_label
 _atom_site_symmetry_multiplicity
 _atom_site_fract_x
 _atom_site_fract_y
 _atom_site_fract_z
 _atom_site_occupancy
  Ba  Ba0  1  0.03349000  0.06976000  0.23622000  1
  Ba  Ba1  1  0.03464000  0.66220000  0.95550000  1
  Ba  Ba2  1  0.46536000  0.16220000  0.54450000  1
  Ba  Ba3  1  0.46651000  0.56976000  0.26378000  1
  Ba  Ba4  1  0.53349000  0.43024000  0.73622000  1
  Ba  Ba5  1  0.53464000  0.83780000  0.45550000  1
  Ba  Ba6  1  0.96536000  0.33780000  0.04450000  1
  Ba  Ba7  1  0.96651000  0.93024000  0.76378000  1
  Ti  Ti8  1  0.08200000  0.38890000  0.61710000  1
  Ti  Ti9  1  0.12730000  0.62280000  0.52770000  1
  Ti  Ti10  1  0.37270000  0.12280000  0.97230000  1
  Ti  Ti11  1  0.41800000  0.88890000  0.88290000  1
  Ti  Ti12  1  0.58200000  0.11110000  0.11710000  1
  Ti  Ti13  1  0.62730000  0.87720000  0.02770000  1
  Ti  Ti14  1  0.87270000  0.37720000  0.47230000  1
  Ti  Ti15  1  0.91800000  0.61110000  0.38290000  1
  C  C16  1  0.03280000  0.42450000  0.81120000  1
  C  C17  1  0.04000000  0.31700000  0.80270000  1
  C  C18  1  0.04820000  0.68000000  0.70540000  1
  C  C19  1  0.15520000  0.65000000  0.73230000  1
  C  C20  1  0.18320000  0.17600000  0.04580000  1
  C  C21  1  0.20660000  0.84800000  0.89200000  1
  C  C22  1  0.22700000  0.27300000  0.00940000  1
  C  C23  1  0.24000000  0.29100000  0.52850000  1
  C  C24  1  0.26000000  0.79100000  0.97150000  1
  C  C25  1  0.27300000  0.77300000  0.49060000  1
  C  C26  1  0.29340000  0.34800000  0.60800000  1
  C  C27  1  0.31680000  0.67600000  0.45420000  1
  C  C28  1  0.34480000  0.15000000  0.76770000  1
  C  C29  1  0.45180000  0.18000000  0.79460000  1
  C  C30  1  0.46000000  0.81700000  0.69730000  1
  C  C31  1  0.46720000  0.92450000  0.68880000  1
  C  C32  1  0.53280000  0.07550000  0.31120000  1
  C  C33  1  0.54000000  0.18300000  0.30270000  1
  C  C34  1  0.54820000  0.82000000  0.20540000  1
  C  C35  1  0.65520000  0.85000000  0.23230000  1
  C  C36  1  0.68320000  0.32400000  0.54580000  1
  C  C37  1  0.70660000  0.65200000  0.39200000  1
  C  C38  1  0.72700000  0.22700000  0.50940000  1
  C  C39  1  0.74000000  0.20900000  0.02850000  1
  C  C40  1  0.76000000  0.70900000  0.47150000  1
  C  C41  1  0.77300000  0.72700000  0.99060000  1
  C  C42  1  0.79340000  0.15200000  0.10800000  1
  C  C43  1  0.81680000  0.82400000  0.95420000  1
  C  C44  1  0.84480000  0.35000000  0.26770000  1
  C  C45  1  0.95180000  0.32000000  0.29460000  1
  C  C46  1  0.96000000  0.68300000  0.19730000  1
  C  C47  1  0.96720000  0.57550000  0.18880000  1
  O  O48  1  0.00990000  0.28870000  0.23550000  1
  O  O49  1  0.01270000  0.46640000  0.88670000  1
  O  O50  1  0.01570000  0.26260000  0.86990000  1
  O  O51  1  0.02550000  0.67450000  0.61580000  1
  O  O52  1  0.04340000  0.63910000  0.42620000  1
  O  O53  1  0.05110000  0.46980000  0.73330000  1
  O  O54  1  0.06850000  0.28580000  0.72310000  1
  O  O55  1  0.09910000  0.17260000  0.07790000  1
  O  O56  1  0.10610000  0.49560000  0.54820000  1
  O  O57  1  0.11460000  0.84790000  0.88590000  1
  O  O58  1  0.14320000  0.29570000  0.52990000  1
  O  O59  1  0.17580000  0.34600000  0.01650000  1
  O  O60  1  0.18470000  0.64930000  0.81630000  1
  O  O61  1  0.18540000  0.76570000  0.52010000  1
  O  O62  1  0.20580000  0.62700000  0.66010000  1
  O  O63  1  0.21220000  0.74240000  0.02870000  1
  O  O64  1  0.23300000  0.39070000  0.66280000  1
  O  O65  1  0.24150000  0.10250000  0.03430000  1
  O  O66  1  0.25850000  0.60250000  0.46570000  1
  O  O67  1  0.26700000  0.89070000  0.83720000  1
  O  O68  1  0.28780000  0.24240000  0.47130000  1
  O  O69  1  0.29420000  0.12700000  0.83990000  1
  O  O70  1  0.31460000  0.26570000  0.97990000  1
  O  O71  1  0.31530000  0.14930000  0.68370000  1
  O  O72  1  0.32420000  0.84600000  0.48350000  1
  O  O73  1  0.35680000  0.79570000  0.97010000  1
  O  O74  1  0.38540000  0.34790000  0.61410000  1
  O  O75  1  0.39390000  0.99560000  0.95180000  1
  O  O76  1  0.40090000  0.67260000  0.42210000  1
  O  O77  1  0.43150000  0.78580000  0.77690000  1
  O  O78  1  0.44890000  0.96980000  0.76670000  1
  O  O79  1  0.45660000  0.13910000  0.07380000  1
  O  O80  1  0.47450000  0.17450000  0.88420000  1
  O  O81  1  0.48430000  0.76260000  0.63010000  1
  O  O82  1  0.48730000  0.96640000  0.61330000  1
  O  O83  1  0.49010000  0.78870000  0.26450000  1
  O  O84  1  0.50990000  0.21130000  0.73550000  1
  O  O85  1  0.51270000  0.03360000  0.38670000  1
  O  O86  1  0.51570000  0.23740000  0.36990000  1
  O  O87  1  0.52550000  0.82550000  0.11580000  1
  O  O88  1  0.54340000  0.86090000  0.92620000  1
  O  O89  1  0.55110000  0.03020000  0.23330000  1
  O  O90  1  0.56850000  0.21420000  0.22310000  1
  O  O91  1  0.59910000  0.32740000  0.57790000  1
  O  O92  1  0.60610000  0.00440000  0.04820000  1
  O  O93  1  0.61460000  0.65210000  0.38590000  1
  O  O94  1  0.64320000  0.20430000  0.02990000  1
  O  O95  1  0.67580000  0.15400000  0.51650000  1
  O  O96  1  0.68470000  0.85070000  0.31630000  1
  O  O97  1  0.68540000  0.73430000  0.02010000  1
  O  O98  1  0.70580000  0.87300000  0.16010000  1
  O  O99  1  0.71220000  0.75760000  0.52870000  1
  O  O100  1  0.73300000  0.10930000  0.16280000  1
  O  O101  1  0.74150000  0.39750000  0.53430000  1
  O  O102  1  0.75850000  0.89750000  0.96570000  1
  O  O103  1  0.76700000  0.60930000  0.33720000  1
  O  O104  1  0.78780000  0.25760000  0.97130000  1
  O  O105  1  0.79420000  0.37300000  0.33990000  1
  O  O106  1  0.81460000  0.23430000  0.47990000  1
  O  O107  1  0.81530000  0.35070000  0.18370000  1
  O  O108  1  0.82420000  0.65400000  0.98350000  1
  O  O109  1  0.85680000  0.70430000  0.47010000  1
  O  O110  1  0.88540000  0.15210000  0.11410000  1
  O  O111  1  0.89390000  0.50440000  0.45180000  1
  O  O112  1  0.90090000  0.82740000  0.92210000  1
  O  O113  1  0.93150000  0.71420000  0.27690000  1
  O  O114  1  0.94890000  0.53020000  0.26670000  1
  O  O115  1  0.95660000  0.36090000  0.57380000  1
  O  O116  1  0.97450000  0.32550000  0.38420000  1
  O  O117  1  0.98430000  0.73740000  0.13010000  1
  O  O118  1  0.98730000  0.53360000  0.11330000  1
  O  O119  1  0.99010000  0.71130000  0.76450000  1
