# generated using pymatgen
data_Eu2H12C15(NO2)6
_symmetry_space_group_name_H-M   'P 1'
_cell_length_a   10.57510000
_cell_length_b   10.57510000
_cell_length_c   14.80130000
_cell_angle_alpha   90.60700000
_cell_angle_beta   90.60700000
_cell_angle_gamma   105.77300000
_symmetry_Int_Tables_number   1
_chemical_formula_structural   Eu2H12C15(NO2)6
_chemical_formula_sum   'Eu4 H24 C30 N12 O24'
_cell_volume   1592.69718879
_cell_formula_units_Z   2
loop_
 _symmetry_equiv_pos_site_id
 _symmetry_equiv_pos_as_xyz
  1  'x, y, z'
loop_
 _atom_site_type_symbol
 _atom_site_label
 _atom_site_symmetry_multiplicity
 _atom_site_fract_x
 _atom_site_fract_y
 _atom_site_fract_z
 _atom_site_occupancy
  Eu  Eu0  1  0.92713000  0.82429000  0.94272000  1
  Eu  Eu1  1  0.67571000  0.57287000  0.55728000  1
  Eu  Eu2  1  0.32429000  0.42713000  0.44272000  1
  Eu  Eu3  1  0.07287000  0.17571000  0.05728000  1
  H  H4  1  0.85750000  0.94610000  0.24400000  1
  H  H5  1  0.71410000  0.94190000  0.21300000  1
  H  H6  1  0.17720000  0.88720000  0.25150000  1
  H  H7  1  0.29330000  0.85910000  0.19770000  1
  H  H8  1  0.15620000  0.80100000  0.66870000  1
  H  H9  1  0.35910000  0.79330000  0.69770000  1
  H  H10  1  0.55810000  0.78590000  0.28700000  1
  H  H11  1  0.38720000  0.67720000  0.75150000  1
  H  H12  1  0.03950000  0.67350000  0.65990000  1
  H  H13  1  0.30100000  0.65620000  0.16870000  1
  H  H14  1  0.55390000  0.64250000  0.25600000  1
  H  H15  1  0.17350000  0.53950000  0.15990000  1
  H  H16  1  0.82650000  0.46050000  0.84010000  1
  H  H17  1  0.44610000  0.35750000  0.74400000  1
  H  H18  1  0.69900000  0.34380000  0.83130000  1
  H  H19  1  0.96050000  0.32650000  0.34010000  1
  H  H20  1  0.61280000  0.32280000  0.24850000  1
  H  H21  1  0.44190000  0.21410000  0.71300000  1
  H  H22  1  0.64090000  0.20670000  0.30230000  1
  H  H23  1  0.84380000  0.19900000  0.33130000  1
  H  H24  1  0.70670000  0.14090000  0.80230000  1
  H  H25  1  0.82280000  0.11280000  0.74850000  1
  H  H26  1  0.28590000  0.05810000  0.78700000  1
  H  H27  1  0.14250000  0.05390000  0.75600000  1
  C  C28  1  0.15370000  0.90010000  0.11440000  1
  C  C29  1  0.78150000  0.89550000  0.20970000  1
  C  C30  1  0.81950000  0.88550000  0.11130000  1
  C  C31  1  0.19850000  0.84170000  0.19900000  1
  C  C32  1  0.05410000  0.75730000  0.78620000  1
  C  C33  1  0.11140000  0.72080000  0.69910000  1
  C  C34  1  0.60450000  0.71850000  0.29030000  1
  C  C35  1  0.34170000  0.69850000  0.69900000  1
  C  C36  1  0.81430000  0.68570000  0.25000000  1
  C  C37  1  0.61450000  0.68050000  0.38870000  1
  C  C38  1  0.01380000  0.65560000  0.23090000  1
  C  C39  1  0.40010000  0.65370000  0.61440000  1
  C  C40  1  0.22080000  0.61140000  0.19910000  1
  C  C41  1  0.25730000  0.55410000  0.28620000  1
  C  C42  1  0.15560000  0.51380000  0.73090000  1
  C  C43  1  0.84440000  0.48620000  0.26910000  1
  C  C44  1  0.74270000  0.44590000  0.71380000  1
  C  C45  1  0.77920000  0.38860000  0.80090000  1
  C  C46  1  0.59990000  0.34630000  0.38560000  1
  C  C47  1  0.98620000  0.34440000  0.76910000  1
  C  C48  1  0.38550000  0.31950000  0.61130000  1
  C  C49  1  0.18570000  0.31430000  0.75000000  1
  C  C50  1  0.65830000  0.30150000  0.30100000  1
  C  C51  1  0.39550000  0.28150000  0.70970000  1
  C  C52  1  0.88860000  0.27920000  0.30090000  1
  C  C53  1  0.94590000  0.24270000  0.21380000  1
  C  C54  1  0.80150000  0.15830000  0.80100000  1
  C  C55  1  0.18050000  0.11450000  0.88870000  1
  C  C56  1  0.21850000  0.10450000  0.79030000  1
  C  C57  1  0.84630000  0.09990000  0.88560000  1
  N  N58  1  0.73290000  0.76710000  0.25000000  1
  N  N59  1  0.94120000  0.74040000  0.23080000  1
  N  N60  1  0.14200000  0.70160000  0.21030000  1
  N  N61  1  0.20160000  0.64200000  0.71030000  1
  N  N62  1  0.75960000  0.55880000  0.26920000  1
  N  N63  1  0.97210000  0.52790000  0.25000000  1
  N  N64  1  0.02790000  0.47210000  0.75000000  1
  N  N65  1  0.24040000  0.44120000  0.73080000  1
  N  N66  1  0.79840000  0.35800000  0.28970000  1
  N  N67  1  0.85800000  0.29840000  0.78970000  1
  N  N68  1  0.05880000  0.25960000  0.76920000  1
  N  N69  1  0.26710000  0.23290000  0.75000000  1
  O  O70  1  0.90990000  0.97710000  0.07900000  1
  O  O71  1  0.81730000  0.97550000  0.88470000  1
  O  O72  1  0.09300000  0.82360000  0.05420000  1
  O  O73  1  0.94920000  0.79500000  0.78010000  1
  O  O74  1  0.76220000  0.78660000  0.06470000  1
  O  O75  1  0.10550000  0.74950000  0.86230000  1
  O  O76  1  0.71340000  0.73780000  0.43530000  1
  O  O77  1  0.52450000  0.68270000  0.61530000  1
  O  O78  1  0.24950000  0.60550000  0.36230000  1
  O  O79  1  0.32360000  0.59300000  0.55420000  1
  O  O80  1  0.52290000  0.59010000  0.42100000  1
  O  O81  1  0.70500000  0.55080000  0.71990000  1
  O  O82  1  0.29500000  0.44920000  0.28010000  1
  O  O83  1  0.47710000  0.40990000  0.57900000  1
  O  O84  1  0.67640000  0.40700000  0.44580000  1
  O  O85  1  0.75050000  0.39450000  0.63770000  1
  O  O86  1  0.47550000  0.31730000  0.38470000  1
  O  O87  1  0.28660000  0.26220000  0.56470000  1
  O  O88  1  0.89450000  0.25050000  0.13770000  1
  O  O89  1  0.23780000  0.21340000  0.93530000  1
  O  O90  1  0.05080000  0.20500000  0.21990000  1
  O  O91  1  0.90700000  0.17640000  0.94580000  1
  O  O92  1  0.18270000  0.02450000  0.11530000  1
  O  O93  1  0.09010000  0.02290000  0.92100000  1
