# generated using pymatgen
data_Sm3P3H45C37N3O23
_symmetry_space_group_name_H-M   'P 1'
_cell_length_a   15.04000000
_cell_length_b   15.09000000
_cell_length_c   15.17900000
_cell_angle_alpha   105.68900000
_cell_angle_beta   103.55900000
_cell_angle_gamma   117.11100000
_symmetry_Int_Tables_number   1
_chemical_formula_structural   Sm3P3H45C37N3O23
_chemical_formula_sum   'Sm6 P6 H90 C74 N6 O46'
_cell_volume   2682.73559479
_cell_formula_units_Z   2
loop_
 _symmetry_equiv_pos_site_id
 _symmetry_equiv_pos_as_xyz
  1  'x, y, z'
loop_
 _atom_site_type_symbol
 _atom_site_label
 _atom_site_symmetry_multiplicity
 _atom_site_fract_x
 _atom_site_fract_y
 _atom_site_fract_z
 _atom_site_occupancy
  Sm  Sm0  1  0.18247000  0.88732000  0.31907000  1
  Sm  Sm1  1  0.41570000  0.06229000  0.64294000  1
  Sm  Sm2  1  0.44276000  0.13319000  0.30217000  1
  Sm  Sm3  1  0.55724000  0.86681000  0.69783000  1
  Sm  Sm4  1  0.58430000  0.93771000  0.35706000  1
  Sm  Sm5  1  0.81753000  0.11268000  0.68093000  1
  P  P6  1  0.30540000  0.82810000  0.19910000  1
  P  P7  1  0.37500000  0.18950000  0.47880000  1
  P  P8  1  0.38310000  0.85830000  0.47740000  1
  P  P9  1  0.61690000  0.14170000  0.52260000  1
  P  P10  1  0.62500000  0.81050000  0.52120000  1
  P  P11  1  0.69460000  0.17190000  0.80090000  1
  H  H12  1  0.00130000  0.16780000  0.02530000  1
  H  H13  1  0.00880000  0.78990000  0.50620000  1
  H  H14  1  0.01060000  0.40680000  0.57810000  1
  H  H15  1  0.03600000  0.40810000  0.13870000  1
  H  H16  1  0.03720000  0.97350000  0.64400000  1
  H  H17  1  0.05660000  0.08240000  0.54860000  1
  H  H18  1  0.07240000  0.89950000  0.67410000  1
  H  H19  1  0.07510000  0.18810000  0.62450000  1
  H  H20  1  0.09160000  0.55010000  0.29610000  1
  H  H21  1  0.09400000  0.14420000  0.31570000  1
  H  H22  1  0.09760000  0.52310000  0.13730000  1
  H  H23  1  0.11090000  0.05860000  0.83010000  1
  H  H24  1  0.11110000  0.24410000  0.39870000  1
  H  H25  1  0.13090000  0.17510000  0.15860000  1
  H  H26  1  0.15180000  0.49060000  0.31110000  1
  H  H27  1  0.15960000  0.77350000  0.88700000  1
  H  H28  1  0.16180000  0.55000000  0.57250000  1
  H  H29  1  0.16340000  0.10970000  0.44320000  1
  H  H30  1  0.16420000  0.78030000  0.05570000  1
  H  H31  1  0.18720000  0.88220000  0.96670000  1
  H  H32  1  0.19270000  0.40510000  0.16170000  1
  H  H33  1  0.19990000  0.69830000  0.03090000  1
  H  H34  1  0.20000000  0.29820000  0.57630000  1
  H  H35  1  0.20160000  0.37480000  0.93270000  1
  H  H36  1  0.21770000  0.44650000  0.83280000  1
  H  H37  1  0.22480000  0.69540000  0.44290000  1
  H  H38  1  0.23440000  0.91360000  0.83710000  1
  H  H39  1  0.23840000  0.22810000  0.61050000  1
  H  H40  1  0.23850000  0.06780000  0.96010000  1
  H  H41  1  0.25020000  0.67970000  0.29030000  1
  H  H42  1  0.28210000  0.71000000  0.92180000  1
  H  H43  1  0.28230000  0.25260000  0.39570000  1
  H  H44  1  0.28550000  0.79300000  0.79270000  1
  H  H45  1  0.30690000  0.61210000  0.16780000  1
  H  H46  1  0.32510000  0.68520000  0.47140000  1
  H  H47  1  0.33100000  0.31900000  0.51180000  1
  H  H48  1  0.33780000  0.98910000  0.93970000  1
  H  H49  1  0.33950000  0.56850000  0.33460000  1
  H  H50  1  0.34290000  0.90640000  0.06320000  1
  H  H51  1  0.35970000  0.54660000  0.18580000  1
  H  H52  1  0.36620000  0.58010000  0.82010000  1
  H  H53  1  0.38620000  0.78010000  0.02400000  1
  H  H54  1  0.41250000  0.68610000  0.34140000  1
  H  H55  1  0.43570000  0.80550000  0.89240000  1
  H  H56  1  0.47160000  0.91630000  0.97540000  1
  H  H57  1  0.52840000  0.08370000  0.02460000  1
  H  H58  1  0.56430000  0.19450000  0.10760000  1
  H  H59  1  0.58750000  0.31390000  0.65860000  1
  H  H60  1  0.61380000  0.21990000  0.97600000  1
  H  H61  1  0.63380000  0.41990000  0.17990000  1
  H  H62  1  0.64030000  0.45340000  0.81420000  1
  H  H63  1  0.65710000  0.09360000  0.93680000  1
  H  H64  1  0.66050000  0.43150000  0.66540000  1
  H  H65  1  0.66220000  0.01090000  0.06030000  1
  H  H66  1  0.66900000  0.68100000  0.48820000  1
  H  H67  1  0.67490000  0.31480000  0.52860000  1
  H  H68  1  0.69310000  0.38790000  0.83220000  1
  H  H69  1  0.71450000  0.20700000  0.20730000  1
  H  H70  1  0.71770000  0.74740000  0.60430000  1
  H  H71  1  0.71790000  0.29000000  0.07820000  1
  H  H72  1  0.74980000  0.32030000  0.70970000  1
  H  H73  1  0.76150000  0.93220000  0.03990000  1
  H  H74  1  0.76160000  0.77190000  0.38950000  1
  H  H75  1  0.76560000  0.08640000  0.16290000  1
  H  H76  1  0.77520000  0.30460000  0.55710000  1
  H  H77  1  0.78230000  0.55350000  0.16720000  1
  H  H78  1  0.79840000  0.62520000  0.06730000  1
  H  H79  1  0.80000000  0.70180000  0.42370000  1
  H  H80  1  0.80010000  0.30170000  0.96910000  1
  H  H81  1  0.80730000  0.59490000  0.83830000  1
  H  H82  1  0.81280000  0.11780000  0.03330000  1
  H  H83  1  0.83580000  0.21970000  0.94430000  1
  H  H84  1  0.83660000  0.89030000  0.55680000  1
  H  H85  1  0.83820000  0.45000000  0.42750000  1
  H  H86  1  0.84040000  0.22650000  0.11300000  1
  H  H87  1  0.84820000  0.50940000  0.68890000  1
  H  H88  1  0.86910000  0.82490000  0.84140000  1
  H  H89  1  0.88890000  0.75590000  0.60130000  1
  H  H90  1  0.88910000  0.94140000  0.16990000  1
  H  H91  1  0.90240000  0.47690000  0.86270000  1
  H  H92  1  0.90600000  0.85580000  0.68430000  1
  H  H93  1  0.90840000  0.44990000  0.70390000  1
  H  H94  1  0.92490000  0.81190000  0.37550000  1
  H  H95  1  0.92760000  0.10050000  0.32590000  1
  H  H96  1  0.94340000  0.91760000  0.45140000  1
  H  H97  1  0.96280000  0.02650000  0.35600000  1
  H  H98  1  0.96400000  0.59190000  0.86130000  1
  H  H99  1  0.98940000  0.59320000  0.42190000  1
  H  H100  1  0.99120000  0.21010000  0.49380000  1
  H  H101  1  0.99870000  0.83220000  0.97470000  1
  C  C102  1  0.00180000  0.31980000  0.70600000  1
  C  C103  1  0.01840000  0.89910000  0.62440000  1
  C  C104  1  0.02300000  0.86230000  0.52180000  1
  C  C105  1  0.04030000  0.10680000  0.91480000  1
  C  C106  1  0.04800000  0.90440000  0.16820000  1
  C  C107  1  0.04880000  0.14480000  0.01240000  1
  C  C108  1  0.07230000  0.15470000  0.55960000  1
  C  C109  1  0.08450000  0.44380000  0.62810000  1
  C  C110  1  0.09370000  0.17030000  0.38070000  1
  C  C111  1  0.10220000  0.41400000  0.70410000  1
  C  C112  1  0.10640000  0.47720000  0.16720000  1
  C  C113  1  0.11180000  0.07870000  0.89620000  1
  C  C114  1  0.12710000  0.15160000  0.09160000  1
  C  C115  1  0.13440000  0.93330000  0.52340000  1
  C  C116  1  0.14470000  0.53740000  0.28140000  1
  C  C117  1  0.15800000  0.41100000  0.02600000  1
  C  C118  1  0.17350000  0.52680000  0.62510000  1
  C  C119  1  0.18170000  0.22440000  0.56070000  1
  C  C120  1  0.18910000  0.08800000  0.97270000  1
  C  C121  1  0.19050000  0.45810000  0.13890000  1
  C  C122  1  0.19850000  0.11920000  0.07240000  1
  C  C123  1  0.20740000  0.46560000  0.77710000  1
  C  C124  1  0.21890000  0.84660000  0.93730000  1
  C  C125  1  0.22690000  0.77500000  0.06440000  1
  C  C126  1  0.27890000  0.12670000  0.15260000  1
  C  C127  1  0.28020000  0.58050000  0.69770000  1
  C  C128  1  0.28410000  0.91370000  0.89080000  1
  C  C129  1  0.28980000  0.70990000  0.43190000  1
  C  C130  1  0.29190000  0.24620000  0.45830000  1
  C  C131  1  0.29260000  0.54580000  0.77090000  1
  C  C132  1  0.30650000  0.56190000  0.19610000  1
  C  C133  1  0.33960000  0.78410000  0.97130000  1
  C  C134  1  0.33970000  0.61910000  0.30700000  1
  C  C135  1  0.34170000  0.86470000  0.84710000  1
  C  C136  1  0.37240000  0.66930000  0.69100000  1
  C  C137  1  0.40870000  0.84560000  0.92400000  1
  C  C138  1  0.41100000  0.93650000  0.80270000  1
  C  C139  1  0.58900000  0.06350000  0.19730000  1
  C  C140  1  0.59130000  0.15440000  0.07600000  1
  C  C141  1  0.62760000  0.33070000  0.30900000  1
  C  C142  1  0.65830000  0.13530000  0.15290000  1
  C  C143  1  0.66030000  0.38090000  0.69300000  1
  C  C144  1  0.66040000  0.21590000  0.02870000  1
  C  C145  1  0.69350000  0.43810000  0.80390000  1
  C  C146  1  0.70740000  0.45420000  0.22910000  1
  C  C147  1  0.70810000  0.75380000  0.54170000  1
  C  C148  1  0.71020000  0.29010000  0.56810000  1
  C  C149  1  0.71590000  0.08630000  0.10920000  1
  C  C150  1  0.71980000  0.41950000  0.30230000  1
  C  C151  1  0.72110000  0.87330000  0.84740000  1
  C  C152  1  0.77310000  0.22500000  0.93560000  1
  C  C153  1  0.78110000  0.15340000  0.06270000  1
  C  C154  1  0.79260000  0.53440000  0.22290000  1
  C  C155  1  0.80150000  0.88080000  0.92760000  1
  C  C156  1  0.80950000  0.54190000  0.86110000  1
  C  C157  1  0.81090000  0.91200000  0.02730000  1
  C  C158  1  0.81830000  0.77560000  0.43930000  1
  C  C159  1  0.82650000  0.47320000  0.37490000  1
  C  C160  1  0.84200000  0.58900000  0.97400000  1
  C  C161  1  0.85530000  0.46260000  0.71860000  1
  C  C162  1  0.86560000  0.06670000  0.47660000  1
  C  C163  1  0.87290000  0.84840000  0.90840000  1
  C  C164  1  0.88820000  0.92130000  0.10380000  1
  C  C165  1  0.89360000  0.52280000  0.83280000  1
  C  C166  1  0.89780000  0.58600000  0.29590000  1
  C  C167  1  0.90630000  0.82970000  0.61930000  1
  C  C168  1  0.91550000  0.55620000  0.37190000  1
  C  C169  1  0.92770000  0.84530000  0.44040000  1
  C  C170  1  0.95120000  0.85520000  0.98760000  1
  C  C171  1  0.95200000  0.09560000  0.83180000  1
  C  C172  1  0.95970000  0.89320000  0.08520000  1
  C  C173  1  0.97700000  0.13770000  0.47820000  1
  C  C174  1  0.98160000  0.10090000  0.37560000  1
  C  C175  1  0.99820000  0.68020000  0.29400000  1
  N  N176  1  0.18070000  0.17900000  0.45810000  1
  N  N177  1  0.25610000  0.64030000  0.32410000  1
  N  N178  1  0.28850000  0.83770000  0.01570000  1
  N  N179  1  0.71150000  0.16230000  0.98430000  1
  N  N180  1  0.74390000  0.35970000  0.67590000  1
  N  N181  1  0.81930000  0.82100000  0.54190000  1
  O  O182  1  0.01900000  0.28920000  0.77450000  1
  O  O183  1  0.05640000  0.94800000  0.25740000  1
  O  O184  1  0.07280000  0.38760000  0.97140000  1
  O  O185  1  0.08780000  0.72890000  0.36240000  1
  O  O186  1  0.10110000  0.86690000  0.14850000  1
  O  O187  1  0.14030000  0.96120000  0.45290000  1
  O  O188  1  0.21750000  0.96430000  0.59790000  1
  O  O189  1  0.22080000  0.75240000  0.22890000  1
  O  O190  1  0.22650000  0.39880000  0.99650000  1
  O  O191  1  0.30170000  0.17970000  0.24370000  1
  O  O192  1  0.31220000  0.07720000  0.38810000  1
  O  O193  1  0.31840000  0.91070000  0.46320000  1
  O  O194  1  0.31910000  0.07230000  0.12690000  1
  O  O195  1  0.32990000  0.94450000  0.25050000  1
  O  O196  1  0.35450000  0.71940000  0.64290000  1
  O  O197  1  0.37080000  0.97480000  0.75350000  1
  O  O198  1  0.38730000  0.17930000  0.57700000  1
  O  O199  1  0.40620000  0.82710000  0.21440000  1
  O  O200  1  0.44600000  0.90570000  0.59130000  1
  O  O201  1  0.45380000  0.87340000  0.42080000  1
  O  O202  1  0.46990000  0.69860000  0.73830000  1
  O  O203  1  0.47740000  0.26220000  0.46760000  1
  O  O204  1  0.49620000  0.05200000  0.18260000  1
  O  O205  1  0.50380000  0.94800000  0.81740000  1
  O  O206  1  0.52260000  0.73780000  0.53240000  1
  O  O207  1  0.53010000  0.30140000  0.26170000  1
  O  O208  1  0.54620000  0.12660000  0.57920000  1
  O  O209  1  0.55400000  0.09430000  0.40870000  1
  O  O210  1  0.59380000  0.17290000  0.78560000  1
  O  O211  1  0.61270000  0.82070000  0.42300000  1
  O  O212  1  0.62920000  0.02520000  0.24650000  1
  O  O213  1  0.64550000  0.28060000  0.35710000  1
  O  O214  1  0.67010000  0.05550000  0.74950000  1
  O  O215  1  0.68090000  0.92770000  0.87310000  1
  O  O216  1  0.68160000  0.08930000  0.53680000  1
  O  O217  1  0.68780000  0.92280000  0.61190000  1
  O  O218  1  0.69830000  0.82030000  0.75630000  1
  O  O219  1  0.77350000  0.60120000  0.00350000  1
  O  O220  1  0.77920000  0.24760000  0.77110000  1
  O  O221  1  0.78250000  0.03570000  0.40210000  1
  O  O222  1  0.85970000  0.03880000  0.54710000  1
  O  O223  1  0.89890000  0.13310000  0.85150000  1
  O  O224  1  0.91220000  0.27110000  0.63760000  1
  O  O225  1  0.92720000  0.61240000  0.02860000  1
  O  O226  1  0.94360000  0.05200000  0.74260000  1
  O  O227  1  0.98100000  0.71080000  0.22550000  1
