# generated using pymatgen
data_CsH8C14SO6
_symmetry_space_group_name_H-M   'P 1'
_cell_length_a   6.05440000
_cell_length_b   12.49910000
_cell_length_c   14.75390000
_cell_angle_alpha   114.46200000
_cell_angle_beta   93.21300000
_cell_angle_gamma   100.17700000
_symmetry_Int_Tables_number   1
_chemical_formula_structural   CsH8C14SO6
_chemical_formula_sum   'Cs2 H16 C28 S2 O12'
_cell_volume   989.82635185
_cell_formula_units_Z   2
loop_
 _symmetry_equiv_pos_site_id
 _symmetry_equiv_pos_as_xyz
  1  'x, y, z'
loop_
 _atom_site_type_symbol
 _atom_site_label
 _atom_site_symmetry_multiplicity
 _atom_site_fract_x
 _atom_site_fract_y
 _atom_site_fract_z
 _atom_site_occupancy
  Cs  Cs0  1  0.22922000  0.30698000  0.87595000  1
  Cs  Cs1  1  0.77078000  0.69302000  0.12405000  1
  H  H2  1  0.09980000  0.85480000  0.93520000  1
  H  H3  1  0.11200000  0.91770000  0.50860000  1
  H  H4  1  0.19420000  0.12690000  0.37890000  1
  H  H5  1  0.21160000  0.16420000  0.18660000  1
  H  H6  1  0.25840000  0.01990000  0.67820000  1
  H  H7  1  0.25960000  0.99620000  0.88090000  1
  H  H8  1  0.34090000  0.22630000  0.54910000  1
  H  H9  1  0.36790000  0.30120000  0.12610000  1
  H  H10  1  0.63210000  0.69880000  0.87390000  1
  H  H11  1  0.65910000  0.77370000  0.45090000  1
  H  H12  1  0.74040000  0.00380000  0.11910000  1
  H  H13  1  0.74160000  0.98010000  0.32180000  1
  H  H14  1  0.78840000  0.83580000  0.81340000  1
  H  H15  1  0.80580000  0.87310000  0.62110000  1
  H  H16  1  0.88800000  0.08230000  0.49140000  1
  H  H17  1  0.90020000  0.14520000  0.06480000  1
  C  C18  1  0.23230000  0.66554000  0.93825000  1
  C  C19  1  0.23800000  0.85117000  0.91075000  1
  C  C20  1  0.25130000  0.90920000  0.53138000  1
  C  C21  1  0.26520000  0.76920000  0.35539000  1
  C  C22  1  0.33230000  0.93553000  0.87830000  1
  C  C23  1  0.33250000  0.11750000  0.40177000  1
  C  C24  1  0.33810000  0.97044000  0.63263000  1
  C  C25  1  0.34690000  0.76073000  0.90737000  1
  C  C26  1  0.34900000  0.16028000  0.16152000  1
  C  C27  1  0.37030000  0.83548000  0.46368000  1
  C  C28  1  0.42120000  0.17750000  0.50331000  1
  C  C29  1  0.44430000  0.24306000  0.12662000  1
  C  C30  1  0.45330000  0.04352000  0.33516000  1
  C  C31  1  0.46180000  0.07201000  0.15837000  1
  C  C32  1  0.53820000  0.92799000  0.84163000  1
  C  C33  1  0.54670000  0.95648000  0.66484000  1
  C  C34  1  0.55570000  0.75694000  0.87338000  1
  C  C35  1  0.57880000  0.82250000  0.49669000  1
  C  C36  1  0.62970000  0.16452000  0.53632000  1
  C  C37  1  0.65100000  0.83972000  0.83848000  1
  C  C38  1  0.65310000  0.23927000  0.09263000  1
  C  C39  1  0.66190000  0.02956000  0.36737000  1
  C  C40  1  0.66750000  0.88250000  0.59823000  1
  C  C41  1  0.66770000  0.06447000  0.12170000  1
  C  C42  1  0.73480000  0.23080000  0.64461000  1
  C  C43  1  0.74870000  0.09080000  0.46862000  1
  C  C44  1  0.76200000  0.14883000  0.08925000  1
  C  C45  1  0.76770000  0.33446000  0.06175000  1
  S  S46  1  0.34417000  0.96919000  0.20551000  1
  S  S47  1  0.65583000  0.03081000  0.79449000  1
  O  O48  1  0.02320000  0.65598000  0.94219000  1
  O  O49  1  0.08190000  0.77840000  0.32657000  1
  O  O50  1  0.10220000  0.95650000  0.19562000  1
  O  O51  1  0.35050000  0.60249000  0.95677000  1
  O  O52  1  0.38860000  0.70037000  0.29705000  1
  O  O53  1  0.43560000  0.86321000  0.16177000  1
  O  O54  1  0.56440000  0.13679000  0.83823000  1
  O  O55  1  0.61140000  0.29963000  0.70295000  1
  O  O56  1  0.64950000  0.39751000  0.04323000  1
  O  O57  1  0.89780000  0.04350000  0.80438000  1
  O  O58  1  0.91810000  0.22160000  0.67343000  1
  O  O59  1  0.97680000  0.34402000  0.05781000  1
