# generated using pymatgen
data_ZnH23C32N5O6
_symmetry_space_group_name_H-M   'P 1'
_cell_length_a   16.57640000
_cell_length_b   16.57640000
_cell_length_c   25.25040000
_cell_angle_alpha   90.00000000
_cell_angle_beta   90.00000000
_cell_angle_gamma   120.00000000
_symmetry_Int_Tables_number   1
_chemical_formula_structural   ZnH23C32N5O6
_chemical_formula_sum   'Zn6 H138 C192 N30 O36'
_cell_volume   6008.68351875
_cell_formula_units_Z   6
loop_
 _symmetry_equiv_pos_site_id
 _symmetry_equiv_pos_as_xyz
  1  'x, y, z'
loop_
 _atom_site_type_symbol
 _atom_site_label
 _atom_site_symmetry_multiplicity
 _atom_site_fract_x
 _atom_site_fract_y
 _atom_site_fract_z
 _atom_site_occupancy
  Zn  Zn0  1  0.71402000  0.28598000  0.66666667  1
  Zn  Zn1  1  0.71402000  0.42805000  0.00000000  1
  Zn  Zn2  1  0.57195000  0.28598000  0.33333333  1
  Zn  Zn3  1  0.42805000  0.71402000  0.33333333  1
  Zn  Zn4  1  0.28598000  0.57195000  1.00000000  1
  Zn  Zn5  1  0.28598000  0.71402000  0.66666667  1
  H  H6  1  0.98690000  0.41270000  0.50983000  1
  H  H7  1  0.98690000  0.57420000  0.15683000  1
  H  H8  1  0.97830000  0.36330000  0.78717000  1
  H  H9  1  0.97830000  0.61500000  0.87950000  1
  H  H10  1  0.94450000  0.36150000  0.03150000  1
  H  H11  1  0.94450000  0.58300000  0.63517000  1
  H  H12  1  0.90090000  0.35830000  0.61357000  1
  H  H13  1  0.90090000  0.54260000  0.05310000  1
  H  H14  1  0.89820000  0.43950000  0.28533000  1
  H  H15  1  0.89820000  0.45870000  0.38133000  1
  H  H16  1  0.87800000  0.13970000  0.13773000  1
  H  H17  1  0.87800000  0.73830000  0.52893000  1
  H  H18  1  0.86460000  0.26600000  0.50983000  1
  H  H19  1  0.86460000  0.59860000  0.15683000  1
  H  H20  1  0.86030000  0.12200000  0.19560000  1
  H  H21  1  0.86030000  0.73830000  0.47107000  1
  H  H22  1  0.83280000  0.28760000  0.96670000  1
  H  H23  1  0.83280000  0.54520000  0.69997000  1
  H  H24  1  0.83020000  0.31770000  0.76087000  1
  H  H25  1  0.83020000  0.51250000  0.90580000  1
  H  H26  1  0.82040000  0.22580000  0.08920000  1
  H  H27  1  0.82040000  0.59460000  0.57747000  1
  H  H28  1  0.78910000  0.30390000  0.37513000  1
  H  H29  1  0.78910000  0.48520000  0.29153000  1
  H  H30  1  0.77420000  0.17960000  0.24413000  1
  H  H31  1  0.77420000  0.59460000  0.42253000  1
  H  H32  1  0.73830000  0.86030000  0.86227000  1
  H  H33  1  0.73830000  0.87800000  0.80440000  1
  H  H34  1  0.73400000  0.13540000  0.82350000  1
  H  H35  1  0.73400000  0.59860000  0.84317000  1
  H  H36  1  0.71240000  0.16720000  0.36663000  1
  H  H37  1  0.71240000  0.54520000  0.30003000  1
  H  H38  1  0.69610000  0.21090000  0.95820000  1
  H  H39  1  0.69610000  0.48520000  0.70847000  1
  H  H40  1  0.68230000  0.16980000  0.57247000  1
  H  H41  1  0.68230000  0.51250000  0.09420000  1
  H  H42  1  0.67640000  0.32360000  0.16667000  1
  H  H43  1  0.67640000  0.35280000  0.50000000  1
  H  H44  1  0.64720000  0.32360000  0.83333000  1
  H  H45  1  0.64170000  0.09910000  0.71977000  1
  H  H46  1  0.64170000  0.54260000  0.94690000  1
  H  H47  1  0.63850000  0.05550000  0.30183000  1
  H  H48  1  0.63850000  0.58300000  0.36483000  1
  H  H49  1  0.63670000  0.02170000  0.54617000  1
  H  H50  1  0.63670000  0.61500000  0.12050000  1
  H  H51  1  0.61500000  0.63670000  0.21283000  1
  H  H52  1  0.61500000  0.97830000  0.45383000  1
  H  H53  1  0.59860000  0.73400000  0.49017000  1
  H  H54  1  0.59860000  0.86460000  0.17650000  1
  H  H55  1  0.59460000  0.77420000  0.91080000  1
  H  H56  1  0.59460000  0.82040000  0.75587000  1
  H  H57  1  0.58730000  0.01310000  0.82350000  1
  H  H58  1  0.58730000  0.57420000  0.84317000  1
  H  H59  1  0.58300000  0.63850000  0.96850000  1
  H  H60  1  0.58300000  0.94450000  0.69817000  1
  H  H61  1  0.57420000  0.58730000  0.49017000  1
  H  H62  1  0.57420000  0.98690000  0.17650000  1
  H  H63  1  0.56050000  0.10180000  0.04800000  1
  H  H64  1  0.56050000  0.45870000  0.61867000  1
  H  H65  1  0.54520000  0.71240000  0.03330000  1
  H  H66  1  0.54520000  0.83280000  0.63337000  1
  H  H67  1  0.54260000  0.64170000  0.38643000  1
  H  H68  1  0.54260000  0.90090000  0.28023000  1
  H  H69  1  0.54130000  0.10180000  0.95200000  1
  H  H70  1  0.54130000  0.43950000  0.71467000  1
  H  H71  1  0.51480000  0.21090000  0.04180000  1
  H  H72  1  0.51480000  0.30390000  0.62487000  1
  H  H73  1  0.51250000  0.68230000  0.23913000  1
  H  H74  1  0.51250000  0.83020000  0.42753000  1
  H  H75  1  0.48750000  0.16980000  0.42753000  1
  H  H76  1  0.48750000  0.31770000  0.23913000  1
  H  H77  1  0.48520000  0.69610000  0.62487000  1
  H  H78  1  0.48520000  0.78910000  0.04180000  1
  H  H79  1  0.45870000  0.56050000  0.71467000  1
  H  H80  1  0.45870000  0.89820000  0.95200000  1
  H  H81  1  0.45740000  0.09910000  0.28023000  1
  H  H82  1  0.45740000  0.35830000  0.38643000  1
  H  H83  1  0.45480000  0.16720000  0.63337000  1
  H  H84  1  0.45480000  0.28760000  0.03330000  1
  H  H85  1  0.43950000  0.54130000  0.61867000  1
  H  H86  1  0.43950000  0.89820000  0.04800000  1
  H  H87  1  0.42580000  0.01310000  0.17650000  1
  H  H88  1  0.42580000  0.41270000  0.49017000  1
  H  H89  1  0.41700000  0.05550000  0.69817000  1
  H  H90  1  0.41700000  0.36150000  0.96850000  1
  H  H91  1  0.41270000  0.42580000  0.84317000  1
  H  H92  1  0.41270000  0.98690000  0.82350000  1
  H  H93  1  0.40540000  0.17960000  0.75587000  1
  H  H94  1  0.40540000  0.22580000  0.91080000  1
  H  H95  1  0.40140000  0.13540000  0.17650000  1
  H  H96  1  0.40140000  0.26600000  0.49017000  1
  H  H97  1  0.38500000  0.02170000  0.45383000  1
  H  H98  1  0.38500000  0.36330000  0.21283000  1
  H  H99  1  0.36330000  0.38500000  0.12050000  1
  H  H100  1  0.36330000  0.97830000  0.54617000  1
  H  H101  1  0.36150000  0.41700000  0.36483000  1
  H  H102  1  0.36150000  0.94450000  0.30183000  1
  H  H103  1  0.35830000  0.45740000  0.94690000  1
  H  H104  1  0.35830000  0.90090000  0.71977000  1
  H  H105  1  0.35280000  0.67640000  0.83333000  1
  H  H106  1  0.32360000  0.64720000  0.50000000  1
  H  H107  1  0.32360000  0.67640000  0.16667000  1
  H  H108  1  0.31770000  0.48750000  0.09420000  1
  H  H109  1  0.31770000  0.83020000  0.57247000  1
  H  H110  1  0.30390000  0.51480000  0.70847000  1
  H  H111  1  0.30390000  0.78910000  0.95820000  1
  H  H112  1  0.28760000  0.45480000  0.30003000  1
  H  H113  1  0.28760000  0.83280000  0.36663000  1
  H  H114  1  0.26600000  0.40140000  0.84317000  1
  H  H115  1  0.26600000  0.86460000  0.82350000  1
  H  H116  1  0.26170000  0.12200000  0.80440000  1
  H  H117  1  0.26170000  0.13970000  0.86227000  1
  H  H118  1  0.22580000  0.40540000  0.42253000  1
  H  H119  1  0.22580000  0.82040000  0.24413000  1
  H  H120  1  0.21090000  0.51480000  0.29153000  1
  H  H121  1  0.21090000  0.69610000  0.37513000  1
  H  H122  1  0.17960000  0.40540000  0.57747000  1
  H  H123  1  0.17960000  0.77420000  0.08920000  1
  H  H124  1  0.16980000  0.48750000  0.90580000  1
  H  H125  1  0.16980000  0.68230000  0.76087000  1
  H  H126  1  0.16720000  0.45480000  0.69997000  1
  H  H127  1  0.16720000  0.71240000  0.96670000  1
  H  H128  1  0.13970000  0.26170000  0.47107000  1
  H  H129  1  0.13970000  0.87800000  0.19560000  1
  H  H130  1  0.13540000  0.40140000  0.15683000  1
  H  H131  1  0.13540000  0.73400000  0.50983000  1
  H  H132  1  0.12200000  0.26170000  0.52893000  1
  H  H133  1  0.12200000  0.86030000  0.13773000  1
  H  H134  1  0.10180000  0.54130000  0.38133000  1
  H  H135  1  0.10180000  0.56050000  0.28533000  1
  H  H136  1  0.09910000  0.45740000  0.05310000  1
  H  H137  1  0.09910000  0.64170000  0.61357000  1
  H  H138  1  0.05550000  0.41700000  0.63517000  1
  H  H139  1  0.05550000  0.63850000  0.03150000  1
  H  H140  1  0.02170000  0.38500000  0.87950000  1
  H  H141  1  0.02170000  0.63670000  0.78717000  1
  H  H142  1  0.01310000  0.42580000  0.15683000  1
  H  H143  1  0.01310000  0.58730000  0.50983000  1
  C  C144  1  0.98924000  0.38438000  0.00485000  1
  C  C145  1  0.98924000  0.60486000  0.66182000  1
  C  C146  1  0.96528000  0.36474000  0.75146000  1
  C  C147  1  0.96528000  0.60054000  0.91521000  1
  C  C148  1  0.96353000  0.35930000  0.95325000  1
  C  C149  1  0.96353000  0.60423000  0.71342000  1
  C  C150  1  0.96272000  0.45110000  0.44364000  1
  C  C151  1  0.96272000  0.51162000  0.22302000  1
  C  C152  1  0.94730000  0.39280000  0.48069000  1
  C  C153  1  0.94730000  0.55450000  0.18597000  1
  C  C154  1  0.91714000  0.36159000  0.64907000  1
  C  C155  1  0.91714000  0.55555000  0.01760000  1
  C  C156  1  0.89820000  0.41790000  0.40659000  1
  C  C157  1  0.89820000  0.48030000  0.26007000  1
  C  C158  1  0.87619000  0.33659000  0.73505000  1
  C  C159  1  0.87619000  0.53960000  0.93162000  1
  C  C160  1  0.87550000  0.30260000  0.47980000  1
  C  C161  1  0.87550000  0.57290000  0.18686000  1
  C  C162  1  0.83675000  0.24851000  0.89703000  1
  C  C163  1  0.83675000  0.58824000  0.76964000  1
  C  C164  1  0.82993000  0.32413000  0.40371000  1
  C  C165  1  0.82993000  0.50580000  0.26295000  1
  C  C166  1  0.82127000  0.26541000  0.43851000  1
  C  C167  1  0.82127000  0.55586000  0.22815000  1
  C  C168  1  0.80536000  0.19464000  0.16667000  1
  C  C169  1  0.80536000  0.61072000  0.50000000  1
  C  C170  1  0.79572000  0.23339000  0.12060000  1
  C  C171  1  0.79572000  0.56233000  0.54607000  1
  C  C172  1  0.76661000  0.20428000  0.21273000  1
  C  C173  1  0.76661000  0.56233000  0.45393000  1
  C  C174  1  0.75149000  0.16325000  0.43630000  1
  C  C175  1  0.75149000  0.58824000  0.23036000  1
  C  C176  1  0.74906000  0.28402000  0.12080000  1
  C  C177  1  0.74906000  0.46504000  0.54587000  1
  C  C178  1  0.74150000  0.32663000  0.06963000  1
  C  C179  1  0.74150000  0.41487000  0.59704000  1
  C  C180  1  0.73459000  0.17873000  0.89482000  1
  C  C181  1  0.73459000  0.55586000  0.77185000  1
  C  C182  1  0.71598000  0.25094000  0.21253000  1
  C  C183  1  0.71598000  0.46504000  0.45413000  1
  C  C184  1  0.70884000  0.29116000  0.16667000  1
  C  C185  1  0.70884000  0.41768000  0.50000000  1
  C  C186  1  0.69740000  0.12450000  0.85353000  1
  C  C187  1  0.69740000  0.57290000  0.81314000  1
  C  C188  1  0.67587000  0.17007000  0.92962000  1
  C  C189  1  0.67587000  0.50580000  0.73705000  1
  C  C190  1  0.67337000  0.25850000  0.26370000  1
  C  C191  1  0.67337000  0.41487000  0.40296000  1
  C  C192  1  0.66341000  0.12381000  0.59829000  1
  C  C193  1  0.66341000  0.53960000  0.06838000  1
  C  C194  1  0.64070000  0.03647000  0.38008000  1
  C  C195  1  0.64070000  0.60423000  0.28658000  1
  C  C196  1  0.63841000  0.08286000  0.68427000  1
  C  C197  1  0.63841000  0.55555000  0.98240000  1
  C  C198  1  0.63526000  0.03472000  0.58188000  1
  C  C199  1  0.63526000  0.60054000  0.08479000  1
  C  C200  1  0.61562000  0.01076000  0.32848000  1
  C  C201  1  0.61562000  0.60486000  0.33818000  1
  C  C202  1  0.61072000  0.80536000  0.83333000  1
  C  C203  1  0.60720000  0.05270000  0.85264000  1
  C  C204  1  0.60720000  0.55450000  0.81403000  1
  C  C205  1  0.60486000  0.61562000  0.99515000  1
  C  C206  1  0.60486000  0.98924000  0.67152000  1
  C  C207  1  0.60423000  0.64070000  0.04675000  1
  C  C208  1  0.60423000  0.96353000  0.61992000  1
  C  C209  1  0.60054000  0.63526000  0.24854000  1
  C  C210  1  0.60054000  0.96528000  0.41812000  1
  C  C211  1  0.58824000  0.75149000  0.10297000  1
  C  C212  1  0.58824000  0.83675000  0.56370000  1
  C  C213  1  0.58513000  0.25850000  0.73630000  1
  C  C214  1  0.58513000  0.32663000  0.93037000  1
  C  C215  1  0.58232000  0.29116000  0.83333000  1
  C  C216  1  0.58210000  0.10180000  0.92674000  1
  C  C217  1  0.58210000  0.48030000  0.73993000  1
  C  C218  1  0.57290000  0.69740000  0.52020000  1
  C  C219  1  0.57290000  0.87550000  0.14647000  1
  C  C220  1  0.56233000  0.76661000  0.87940000  1
  C  C221  1  0.56233000  0.79572000  0.78727000  1
  C  C222  1  0.55586000  0.73459000  0.56149000  1
  C  C223  1  0.55586000  0.82127000  0.10518000  1
  C  C224  1  0.55555000  0.63841000  0.35093000  1
  C  C225  1  0.55555000  0.91714000  0.31573000  1
  C  C226  1  0.55450000  0.60720000  0.51931000  1
  C  C227  1  0.55450000  0.94730000  0.14736000  1
  C  C228  1  0.54890000  0.03728000  0.88969000  1
  C  C229  1  0.54890000  0.51162000  0.77698000  1
  C  C230  1  0.53960000  0.66341000  0.26495000  1
  C  C231  1  0.53960000  0.87619000  0.40171000  1
  C  C232  1  0.53496000  0.25094000  0.78747000  1
  C  C233  1  0.53496000  0.28402000  0.87920000  1
  C  C234  1  0.51970000  0.10180000  0.07326000  1
  C  C235  1  0.51970000  0.41790000  0.59341000  1
  C  C236  1  0.51162000  0.54890000  0.55636000  1
  C  C237  1  0.51162000  0.96272000  0.11031000  1
  C  C238  1  0.50580000  0.67587000  0.59629000  1
  C  C239  1  0.50580000  0.82993000  0.07038000  1
  C  C240  1  0.49420000  0.17007000  0.07038000  1
  C  C241  1  0.49420000  0.32413000  0.59629000  1
  C  C242  1  0.48838000  0.03728000  0.11031000  1
  C  C243  1  0.48838000  0.45110000  0.55636000  1
  C  C244  1  0.48030000  0.58210000  0.59341000  1
  C  C245  1  0.48030000  0.89820000  0.07326000  1
  C  C246  1  0.46504000  0.71598000  0.87920000  1
  C  C247  1  0.46504000  0.74906000  0.78747000  1
  C  C248  1  0.46040000  0.12381000  0.40171000  1
  C  C249  1  0.46040000  0.33659000  0.26495000  1
  C  C250  1  0.45110000  0.48838000  0.77698000  1
  C  C251  1  0.45110000  0.96272000  0.88969000  1
  C  C252  1  0.44550000  0.05270000  0.14736000  1
  C  C253  1  0.44550000  0.39280000  0.51931000  1
  C  C254  1  0.44445000  0.08286000  0.31573000  1
  C  C255  1  0.44445000  0.36159000  0.35093000  1
  C  C256  1  0.44414000  0.17873000  0.10518000  1
  C  C257  1  0.44414000  0.26541000  0.56149000  1
  C  C258  1  0.43767000  0.20428000  0.78727000  1
  C  C259  1  0.43767000  0.23339000  0.87940000  1
  C  C260  1  0.42710000  0.12450000  0.14647000  1
  C  C261  1  0.42710000  0.30260000  0.52020000  1
  C  C262  1  0.41790000  0.51970000  0.73993000  1
  C  C263  1  0.41790000  0.89820000  0.92674000  1
  C  C264  1  0.41768000  0.70884000  0.83333000  1
  C  C265  1  0.41487000  0.67337000  0.93037000  1
  C  C266  1  0.41487000  0.74150000  0.73630000  1
  C  C267  1  0.41176000  0.16325000  0.56370000  1
  C  C268  1  0.41176000  0.24851000  0.10297000  1
  C  C269  1  0.39946000  0.03472000  0.41812000  1
  C  C270  1  0.39946000  0.36474000  0.24854000  1
  C  C271  1  0.39577000  0.03647000  0.61992000  1
  C  C272  1  0.39577000  0.35930000  0.04675000  1
  C  C273  1  0.39514000  0.01076000  0.67152000  1
  C  C274  1  0.39514000  0.38438000  0.99515000  1
  C  C275  1  0.39280000  0.44550000  0.81403000  1
  C  C276  1  0.39280000  0.94730000  0.85264000  1
  C  C277  1  0.38928000  0.19464000  0.83333000  1
  C  C278  1  0.38438000  0.39514000  0.33818000  1
  C  C279  1  0.38438000  0.98924000  0.32848000  1
  C  C280  1  0.36474000  0.39946000  0.08479000  1
  C  C281  1  0.36474000  0.96528000  0.58188000  1
  C  C282  1  0.36159000  0.44445000  0.98240000  1
  C  C283  1  0.36159000  0.91714000  0.68427000  1
  C  C284  1  0.35930000  0.39577000  0.28658000  1
  C  C285  1  0.35930000  0.96353000  0.38008000  1
  C  C286  1  0.33659000  0.46040000  0.06838000  1
  C  C287  1  0.33659000  0.87619000  0.59829000  1
  C  C288  1  0.32663000  0.58513000  0.40296000  1
  C  C289  1  0.32663000  0.74150000  0.26370000  1
  C  C290  1  0.32413000  0.49420000  0.73705000  1
  C  C291  1  0.32413000  0.82993000  0.92962000  1
  C  C292  1  0.30260000  0.42710000  0.81314000  1
  C  C293  1  0.30260000  0.87550000  0.85353000  1
  C  C294  1  0.29116000  0.58232000  0.50000000  1
  C  C295  1  0.29116000  0.70884000  0.16667000  1
  C  C296  1  0.28402000  0.53496000  0.45413000  1
  C  C297  1  0.28402000  0.74906000  0.21253000  1
  C  C298  1  0.26541000  0.44414000  0.77185000  1
  C  C299  1  0.26541000  0.82127000  0.89482000  1
  C  C300  1  0.25850000  0.58513000  0.59704000  1
  C  C301  1  0.25850000  0.67337000  0.06963000  1
  C  C302  1  0.25094000  0.53496000  0.54587000  1
  C  C303  1  0.25094000  0.71598000  0.12080000  1
  C  C304  1  0.24851000  0.41176000  0.23036000  1
  C  C305  1  0.24851000  0.83675000  0.43630000  1
  C  C306  1  0.23339000  0.43767000  0.45393000  1
  C  C307  1  0.23339000  0.79572000  0.21273000  1
  C  C308  1  0.20428000  0.43767000  0.54607000  1
  C  C309  1  0.20428000  0.76661000  0.12060000  1
  C  C310  1  0.19464000  0.38928000  0.50000000  1
  C  C311  1  0.19464000  0.80536000  0.16667000  1
  C  C312  1  0.17873000  0.44414000  0.22815000  1
  C  C313  1  0.17873000  0.73459000  0.43851000  1
  C  C314  1  0.17007000  0.49420000  0.26295000  1
  C  C315  1  0.17007000  0.67587000  0.40371000  1
  C  C316  1  0.16325000  0.41176000  0.76964000  1
  C  C317  1  0.16325000  0.75149000  0.89703000  1
  C  C318  1  0.12450000  0.42710000  0.18686000  1
  C  C319  1  0.12450000  0.69740000  0.47980000  1
  C  C320  1  0.12381000  0.46040000  0.93162000  1
  C  C321  1  0.12381000  0.66341000  0.73505000  1
  C  C322  1  0.10180000  0.51970000  0.26007000  1
  C  C323  1  0.10180000  0.58210000  0.40659000  1
  C  C324  1  0.08286000  0.44445000  0.01760000  1
  C  C325  1  0.08286000  0.63841000  0.64907000  1
  C  C326  1  0.05270000  0.44550000  0.18597000  1
  C  C327  1  0.05270000  0.60720000  0.48069000  1
  C  C328  1  0.03728000  0.48838000  0.22302000  1
  C  C329  1  0.03728000  0.54890000  0.44364000  1
  C  C330  1  0.03647000  0.39577000  0.71342000  1
  C  C331  1  0.03647000  0.64070000  0.95325000  1
  C  C332  1  0.03472000  0.39946000  0.91521000  1
  C  C333  1  0.03472000  0.63526000  0.75146000  1
  C  C334  1  0.01076000  0.39514000  0.66182000  1
  C  C335  1  0.01076000  0.61562000  0.00485000  1
  N  N336  1  0.87226000  0.29695000  0.94197000  1
  N  N337  1  0.87226000  0.57531000  0.72470000  1
  N  N338  1  0.85413000  0.14587000  0.16667000  1
  N  N339  1  0.85413000  0.70825000  0.50000000  1
  N  N340  1  0.85099000  0.33445000  0.68479000  1
  N  N341  1  0.85099000  0.51654000  0.98188000  1
  N  N342  1  0.70825000  0.85413000  0.83333000  1
  N  N343  1  0.70305000  0.12774000  0.39136000  1
  N  N344  1  0.70305000  0.57531000  0.27530000  1
  N  N345  1  0.66555000  0.14901000  0.64855000  1
  N  N346  1  0.66555000  0.51654000  0.01812000  1
  N  N347  1  0.57531000  0.70305000  0.05803000  1
  N  N348  1  0.57531000  0.87226000  0.60864000  1
  N  N349  1  0.51654000  0.66555000  0.31521000  1
  N  N350  1  0.51654000  0.85099000  0.35145000  1
  N  N351  1  0.48346000  0.14901000  0.35145000  1
  N  N352  1  0.48346000  0.33445000  0.31521000  1
  N  N353  1  0.42469000  0.12774000  0.60864000  1
  N  N354  1  0.42469000  0.29695000  0.05803000  1
  N  N355  1  0.33445000  0.48346000  0.01812000  1
  N  N356  1  0.33445000  0.85099000  0.64855000  1
  N  N357  1  0.29695000  0.42469000  0.27530000  1
  N  N358  1  0.29695000  0.87226000  0.39136000  1
  N  N359  1  0.29175000  0.14587000  0.83333000  1
  N  N360  1  0.14901000  0.48346000  0.98188000  1
  N  N361  1  0.14901000  0.66555000  0.68479000  1
  N  N362  1  0.14587000  0.29175000  0.50000000  1
  N  N363  1  0.14587000  0.85413000  0.16667000  1
  N  N364  1  0.12774000  0.42469000  0.72470000  1
  N  N365  1  0.12774000  0.70305000  0.94197000  1
  O  O366  1  0.88483000  0.26358000  0.85843000  1
  O  O367  1  0.88483000  0.62125000  0.80824000  1
  O  O368  1  0.76761000  0.30766000  0.02760000  1
  O  O369  1  0.76761000  0.45995000  0.63907000  1
  O  O370  1  0.73642000  0.11517000  0.47490000  1
  O  O371  1  0.73642000  0.62125000  0.19176000  1
  O  O372  1  0.70929000  0.32993000  0.59494000  1
  O  O373  1  0.70929000  0.37936000  0.07173000  1
  O  O374  1  0.69234000  0.23239000  0.30573000  1
  O  O375  1  0.69234000  0.45995000  0.36093000  1
  O  O376  1  0.67007000  0.29071000  0.73840000  1
  O  O377  1  0.67007000  0.37936000  0.92827000  1
  O  O378  1  0.62125000  0.73642000  0.14157000  1
  O  O379  1  0.62125000  0.88483000  0.52510000  1
  O  O380  1  0.62064000  0.29071000  0.26160000  1
  O  O381  1  0.62064000  0.32993000  0.40506000  1
  O  O382  1  0.54005000  0.23239000  0.69427000  1
  O  O383  1  0.54005000  0.30766000  0.97240000  1
  O  O384  1  0.45995000  0.69234000  0.97240000  1
  O  O385  1  0.45995000  0.76761000  0.69427000  1
  O  O386  1  0.37936000  0.67007000  0.40506000  1
  O  O387  1  0.37936000  0.70929000  0.26160000  1
  O  O388  1  0.37875000  0.11517000  0.52510000  1
  O  O389  1  0.37875000  0.26358000  0.14157000  1
  O  O390  1  0.32993000  0.62064000  0.92827000  1
  O  O391  1  0.32993000  0.70929000  0.73840000  1
  O  O392  1  0.30766000  0.54005000  0.36093000  1
  O  O393  1  0.30766000  0.76761000  0.30573000  1
  O  O394  1  0.29071000  0.62064000  0.07173000  1
  O  O395  1  0.29071000  0.67007000  0.59494000  1
  O  O396  1  0.26358000  0.37875000  0.19176000  1
  O  O397  1  0.26358000  0.88483000  0.47490000  1
  O  O398  1  0.23239000  0.54005000  0.63907000  1
  O  O399  1  0.23239000  0.69234000  0.02760000  1
  O  O400  1  0.11517000  0.37875000  0.80824000  1
  O  O401  1  0.11517000  0.73642000  0.85843000  1
