# generated using pymatgen
data_ZnH8C13NO4
_symmetry_space_group_name_H-M   'P 1'
_cell_length_a   10.88600000
_cell_length_b   10.91900000
_cell_length_c   14.09100000
_cell_angle_alpha   89.29400000
_cell_angle_beta   89.08100000
_cell_angle_gamma   79.69100000
_symmetry_Int_Tables_number   1
_chemical_formula_structural   ZnH8C13NO4
_chemical_formula_sum   'Zn4 H32 C52 N4 O16'
_cell_volume   1647.58963490
_cell_formula_units_Z   4
loop_
 _symmetry_equiv_pos_site_id
 _symmetry_equiv_pos_as_xyz
  1  'x, y, z'
loop_
 _atom_site_type_symbol
 _atom_site_label
 _atom_site_symmetry_multiplicity
 _atom_site_fract_x
 _atom_site_fract_y
 _atom_site_fract_z
 _atom_site_occupancy
  Zn  Zn0  1  0.27228000  0.16080000  0.40877000  1
  Zn  Zn1  1  0.27652000  0.16409000  0.19926000  1
  Zn  Zn2  1  0.72348000  0.83591000  0.80074000  1
  Zn  Zn3  1  0.72772000  0.83920000  0.59123000  1
  H  H4  1  0.07940000  0.19300000  0.73390000  1
  H  H5  1  0.08830000  0.19170000  0.57130000  1
  H  H6  1  0.11440000  0.87650000  0.55260000  1
  H  H7  1  0.11660000  0.29660000  0.88090000  1
  H  H8  1  0.12200000  0.79650000  0.83220000  1
  H  H9  1  0.14170000  0.30930000  0.04270000  1
  H  H10  1  0.17590000  0.58340000  0.17820000  1
  H  H11  1  0.20600000  0.78710000  0.17040000  1
  H  H12  1  0.33090000  0.87390000  0.54970000  1
  H  H13  1  0.33660000  0.81070000  0.83680000  1
  H  H14  1  0.37030000  0.74520000  0.42730000  1
  H  H15  1  0.37200000  0.52530000  0.42010000  1
  H  H16  1  0.40760000  0.02200000  0.03690000  1
  H  H17  1  0.42050000  0.02780000  0.87410000  1
  H  H18  1  0.45230000  0.13760000  0.56630000  1
  H  H19  1  0.45730000  0.14270000  0.73130000  1
  H  H20  1  0.54270000  0.85730000  0.26870000  1
  H  H21  1  0.54770000  0.86240000  0.43370000  1
  H  H22  1  0.57950000  0.97220000  0.12590000  1
  H  H23  1  0.59240000  0.97800000  0.96310000  1
  H  H24  1  0.62800000  0.47470000  0.57990000  1
  H  H25  1  0.62970000  0.25480000  0.57270000  1
  H  H26  1  0.66340000  0.18930000  0.16320000  1
  H  H27  1  0.66910000  0.12610000  0.45030000  1
  H  H28  1  0.79400000  0.21290000  0.82960000  1
  H  H29  1  0.82410000  0.41660000  0.82180000  1
  H  H30  1  0.85830000  0.69070000  0.95730000  1
  H  H31  1  0.87800000  0.20350000  0.16780000  1
  H  H32  1  0.88340000  0.70340000  0.11910000  1
  H  H33  1  0.88560000  0.12350000  0.44740000  1
  H  H34  1  0.91170000  0.80830000  0.42870000  1
  H  H35  1  0.92060000  0.80700000  0.26610000  1
  C  C36  1  0.03820000  0.17070000  0.30830000  1
  C  C37  1  0.09840000  0.83360000  0.69210000  1
  C  C38  1  0.15750000  0.18260000  0.70130000  1
  C  C39  1  0.16030000  0.85940000  0.60941000  1
  C  C40  1  0.16410000  0.81440000  0.77550000  1
  C  C41  1  0.16430000  0.18140000  0.60510000  1
  C  C42  1  0.18430000  0.24460000  0.91120000  1
  C  C43  1  0.19480000  0.24640000  0.00790000  1
  C  C44  1  0.21810000  0.61420000  0.22870000  1
  C  C45  1  0.23080000  0.73830000  0.22540000  1
  C  C46  1  0.25700000  0.39970000  0.29800000  1
  C  C47  1  0.26060000  0.53750000  0.29690000  1
  C  C48  1  0.27230000  0.16740000  0.75180000  1
  C  C49  1  0.27300000  0.16660000  0.85770000  1
  C  C50  1  0.27800000  0.79040000  0.29940000  1
  C  C51  1  0.28870000  0.86090000  0.60750000  1
  C  C52  1  0.29000000  0.92310000  0.30020000  1
  C  C53  1  0.29260000  0.82080000  0.77870000  1
  C  C54  1  0.33030000  0.58100000  0.37380000  1
  C  C55  1  0.33280000  0.71100000  0.37590000  1
  C  C56  1  0.35190000  0.08470000  0.00420000  1
  C  C57  1  0.35280000  0.84250000  0.69310000  1
  C  C58  1  0.35800000  0.08440000  0.90670000  1
  C  C59  1  0.37600000  0.15070000  0.60160000  1
  C  C60  1  0.37940000  0.15230000  0.70020000  1
  C  C61  1  0.48770000  0.84730000  0.69290000  1
  C  C62  1  0.51230000  0.15270000  0.30710000  1
  C  C63  1  0.62060000  0.84770000  0.29980000  1
  C  C64  1  0.62400000  0.84930000  0.39840000  1
  C  C65  1  0.64200000  0.91560000  0.09330000  1
  C  C66  1  0.64720000  0.15750000  0.30690000  1
  C  C67  1  0.64810000  0.91530000  0.99580000  1
  C  C68  1  0.66720000  0.28900000  0.62410000  1
  C  C69  1  0.66970000  0.41900000  0.62620000  1
  C  C70  1  0.70740000  0.17920000  0.22130000  1
  C  C71  1  0.71000000  0.07690000  0.69980000  1
  C  C72  1  0.71130000  0.13910000  0.39250000  1
  C  C73  1  0.72200000  0.20960000  0.70060000  1
  C  C74  1  0.72700000  0.83340000  0.14230000  1
  C  C75  1  0.72770000  0.83260000  0.24820000  1
  C  C76  1  0.73940000  0.46250000  0.70310000  1
  C  C77  1  0.74300000  0.60030000  0.70200000  1
  C  C78  1  0.76920000  0.26170000  0.77460000  1
  C  C79  1  0.78190000  0.38580000  0.77130000  1
  C  C80  1  0.80520000  0.75360000  0.99210000  1
  C  C81  1  0.81570000  0.75540000  0.08880000  1
  C  C82  1  0.83570000  0.81860000  0.39490000  1
  C  C83  1  0.83590000  0.18560000  0.22450000  1
  C  C84  1  0.83970000  0.14060000  0.39059000  1
  C  C85  1  0.84250000  0.81740000  0.29870000  1
  C  C86  1  0.90160000  0.16640000  0.30790000  1
  C  C87  1  0.96180000  0.82930000  0.69170000  1
  N  N88  1  0.26940000  0.16700000  0.55570000  1
  N  N89  1  0.27640000  0.16340000  0.05473000  1
  N  N90  1  0.72360000  0.83660000  0.94527000  1
  N  N91  1  0.73060000  0.83300000  0.44430000  1
  O  O92  1  0.08687000  0.17170000  0.39012000  1
  O  O93  1  0.09230000  0.17520000  0.22982000  1
  O  O94  1  0.25480000  0.34600000  0.37517000  1
  O  O95  1  0.25720000  0.35002000  0.21865000  1
  O  O96  1  0.29330000  0.97500000  0.37888000  1
  O  O97  1  0.29490000  0.97790000  0.22249000  1
  O  O98  1  0.45530000  0.14770000  0.38699000  1
  O  O99  1  0.45900000  0.15320000  0.22904000  1
  O  O100  1  0.54100000  0.84680000  0.77096000  1
  O  O101  1  0.54470000  0.85230000  0.61301000  1
  O  O102  1  0.70510000  0.02210000  0.77751000  1
  O  O103  1  0.70670000  0.02500000  0.62112000  1
  O  O104  1  0.74280000  0.64998000  0.78135000  1
  O  O105  1  0.74520000  0.65400000  0.62483000  1
  O  O106  1  0.90770000  0.82480000  0.77018000  1
  O  O107  1  0.91313000  0.82830000  0.60988000  1
