# generated using pymatgen
data_Mn3H9C24N3O13
_symmetry_space_group_name_H-M   'P 1'
_cell_length_a   22.47040000
_cell_length_b   22.47040000
_cell_length_c   22.47040000
_cell_angle_alpha   90.00000000
_cell_angle_beta   90.00000000
_cell_angle_gamma   90.00000000
_symmetry_Int_Tables_number   1
_chemical_formula_structural   Mn3H9C24N3O13
_chemical_formula_sum   'Mn24 H72 C192 N24 O104'
_cell_volume   11345.72911487
_cell_formula_units_Z   8
loop_
 _symmetry_equiv_pos_site_id
 _symmetry_equiv_pos_as_xyz
  1  'x, y, z'
loop_
 _atom_site_type_symbol
 _atom_site_label
 _atom_site_symmetry_multiplicity
 _atom_site_fract_x
 _atom_site_fract_y
 _atom_site_fract_z
 _atom_site_occupancy
  Mn  Mn0  1  0.17635000  0.31040000  0.24086000  1
  Mn  Mn1  1  0.17635000  0.68960000  0.75914000  1
  Mn  Mn2  1  0.18960000  0.32365000  0.74086000  1
  Mn  Mn3  1  0.18960000  0.67635000  0.25914000  1
  Mn  Mn4  1  0.24086000  0.17635000  0.31040000  1
  Mn  Mn5  1  0.24086000  0.82365000  0.68960000  1
  Mn  Mn6  1  0.25914000  0.18960000  0.67635000  1
  Mn  Mn7  1  0.25914000  0.81040000  0.32365000  1
  Mn  Mn8  1  0.31040000  0.24086000  0.17635000  1
  Mn  Mn9  1  0.31040000  0.75914000  0.82365000  1
  Mn  Mn10  1  0.32365000  0.25914000  0.81040000  1
  Mn  Mn11  1  0.32365000  0.74086000  0.18960000  1
  Mn  Mn12  1  0.67635000  0.25914000  0.18960000  1
  Mn  Mn13  1  0.67635000  0.74086000  0.81040000  1
  Mn  Mn14  1  0.68960000  0.24086000  0.82365000  1
  Mn  Mn15  1  0.68960000  0.75914000  0.17635000  1
  Mn  Mn16  1  0.74086000  0.18960000  0.32365000  1
  Mn  Mn17  1  0.74086000  0.81040000  0.67635000  1
  Mn  Mn18  1  0.75914000  0.17635000  0.68960000  1
  Mn  Mn19  1  0.75914000  0.82365000  0.31040000  1
  Mn  Mn20  1  0.81040000  0.32365000  0.25914000  1
  Mn  Mn21  1  0.81040000  0.67635000  0.74086000  1
  Mn  Mn22  1  0.82365000  0.31040000  0.75914000  1
  Mn  Mn23  1  0.82365000  0.68960000  0.24086000  1
  H  H24  1  0.00710000  0.24070000  0.71880000  1
  H  H25  1  0.00710000  0.75930000  0.28120000  1
  H  H26  1  0.07410000  0.08350000  0.28160000  1
  H  H27  1  0.07410000  0.91650000  0.71840000  1
  H  H28  1  0.08350000  0.28160000  0.07410000  1
  H  H29  1  0.08350000  0.71840000  0.92590000  1
  H  H30  1  0.09150000  0.28880000  0.89610000  1
  H  H31  1  0.09150000  0.71120000  0.10390000  1
  H  H32  1  0.10390000  0.09150000  0.71120000  1
  H  H33  1  0.10390000  0.90850000  0.28880000  1
  H  H34  1  0.21120000  0.40850000  0.39610000  1
  H  H35  1  0.21120000  0.59150000  0.60390000  1
  H  H36  1  0.21840000  0.41650000  0.57410000  1
  H  H37  1  0.21840000  0.58350000  0.42590000  1
  H  H38  1  0.21880000  0.25930000  0.49290000  1
  H  H39  1  0.21880000  0.74070000  0.50710000  1
  H  H40  1  0.24070000  0.28120000  0.99290000  1
  H  H41  1  0.24070000  0.71880000  0.00710000  1
  H  H42  1  0.25930000  0.49290000  0.21880000  1
  H  H43  1  0.25930000  0.50710000  0.78120000  1
  H  H44  1  0.28120000  0.00710000  0.75930000  1
  H  H45  1  0.28120000  0.99290000  0.24070000  1
  H  H46  1  0.28160000  0.07410000  0.08350000  1
  H  H47  1  0.28160000  0.92590000  0.91650000  1
  H  H48  1  0.28880000  0.10390000  0.90850000  1
  H  H49  1  0.28880000  0.89610000  0.09150000  1
  H  H50  1  0.39610000  0.21120000  0.40850000  1
  H  H51  1  0.39610000  0.78880000  0.59150000  1
  H  H52  1  0.40850000  0.39610000  0.21120000  1
  H  H53  1  0.40850000  0.60390000  0.78880000  1
  H  H54  1  0.41650000  0.42590000  0.78160000  1
  H  H55  1  0.41650000  0.57410000  0.21840000  1
  H  H56  1  0.42590000  0.21840000  0.58350000  1
  H  H57  1  0.42590000  0.78160000  0.41650000  1
  H  H58  1  0.49290000  0.21880000  0.25930000  1
  H  H59  1  0.49290000  0.78120000  0.74070000  1
  H  H60  1  0.50710000  0.21880000  0.74070000  1
  H  H61  1  0.50710000  0.78120000  0.25930000  1
  H  H62  1  0.57410000  0.21840000  0.41650000  1
  H  H63  1  0.57410000  0.78160000  0.58350000  1
  H  H64  1  0.58350000  0.42590000  0.21840000  1
  H  H65  1  0.58350000  0.57410000  0.78160000  1
  H  H66  1  0.59150000  0.39610000  0.78880000  1
  H  H67  1  0.59150000  0.60390000  0.21120000  1
  H  H68  1  0.60390000  0.21120000  0.59150000  1
  H  H69  1  0.60390000  0.78880000  0.40850000  1
  H  H70  1  0.71120000  0.10390000  0.09150000  1
  H  H71  1  0.71120000  0.89610000  0.90850000  1
  H  H72  1  0.71840000  0.07410000  0.91650000  1
  H  H73  1  0.71840000  0.92590000  0.08350000  1
  H  H74  1  0.71880000  0.00710000  0.24070000  1
  H  H75  1  0.71880000  0.99290000  0.75930000  1
  H  H76  1  0.74070000  0.49290000  0.78120000  1
  H  H77  1  0.74070000  0.50710000  0.21880000  1
  H  H78  1  0.75930000  0.28120000  0.00710000  1
  H  H79  1  0.75930000  0.71880000  0.99290000  1
  H  H80  1  0.78120000  0.25930000  0.50710000  1
  H  H81  1  0.78120000  0.74070000  0.49290000  1
  H  H82  1  0.78160000  0.41650000  0.42590000  1
  H  H83  1  0.78160000  0.58350000  0.57410000  1
  H  H84  1  0.78880000  0.40850000  0.60390000  1
  H  H85  1  0.78880000  0.59150000  0.39610000  1
  H  H86  1  0.89610000  0.09150000  0.28880000  1
  H  H87  1  0.89610000  0.90850000  0.71120000  1
  H  H88  1  0.90850000  0.28880000  0.10390000  1
  H  H89  1  0.90850000  0.71120000  0.89610000  1
  H  H90  1  0.91650000  0.28160000  0.92590000  1
  H  H91  1  0.91650000  0.71840000  0.07410000  1
  H  H92  1  0.92590000  0.08350000  0.71840000  1
  H  H93  1  0.92590000  0.91650000  0.28160000  1
  H  H94  1  0.99290000  0.24070000  0.28120000  1
  H  H95  1  0.99290000  0.75930000  0.71880000  1
  C  C96  1  0.00932000  0.19937000  0.71709000  1
  C  C97  1  0.00932000  0.80063000  0.28291000  1
  C  C98  1  0.01496000  0.07702000  0.71620000  1
  C  C99  1  0.01496000  0.92298000  0.28380000  1
  C  C100  1  0.03929000  0.10583000  0.28210000  1
  C  C101  1  0.03929000  0.89417000  0.71790000  1
  C  C102  1  0.04265000  0.16608000  0.28110000  1
  C  C103  1  0.04265000  0.83392000  0.71890000  1
  C  C104  1  0.06432000  0.17226000  0.71278000  1
  C  C105  1  0.06432000  0.82774000  0.28722000  1
  C  C106  1  0.06722000  0.11052000  0.71310000  1
  C  C107  1  0.06722000  0.88948000  0.28690000  1
  C  C108  1  0.07702000  0.28380000  0.98504000  1
  C  C109  1  0.07702000  0.71620000  0.01496000  1
  C  C110  1  0.10461000  0.19578000  0.27895000  1
  C  C111  1  0.10461000  0.80422000  0.72105000  1
  C  C112  1  0.10583000  0.28210000  0.03929000  1
  C  C113  1  0.10583000  0.71790000  0.96071000  1
  C  C114  1  0.11052000  0.28690000  0.93278000  1
  C  C115  1  0.11052000  0.71310000  0.06722000  1
  C  C116  1  0.12170000  0.20605000  0.70910000  1
  C  C117  1  0.12170000  0.79395000  0.29090000  1
  C  C118  1  0.16608000  0.28110000  0.04265000  1
  C  C119  1  0.16608000  0.71890000  0.95735000  1
  C  C120  1  0.17226000  0.28722000  0.93568000  1
  C  C121  1  0.17226000  0.71278000  0.06432000  1
  C  C122  1  0.19578000  0.27895000  0.10461000  1
  C  C123  1  0.19578000  0.72105000  0.89539000  1
  C  C124  1  0.19937000  0.28291000  0.99068000  1
  C  C125  1  0.19937000  0.71709000  0.00932000  1
  C  C126  1  0.20605000  0.29090000  0.87830000  1
  C  C127  1  0.20605000  0.70910000  0.12170000  1
  C  C128  1  0.20910000  0.29395000  0.37830000  1
  C  C129  1  0.20910000  0.70605000  0.62170000  1
  C  C130  1  0.21278000  0.32774000  0.43568000  1
  C  C131  1  0.21278000  0.67226000  0.56432000  1
  C  C132  1  0.21310000  0.38948000  0.43278000  1
  C  C133  1  0.21310000  0.61052000  0.56722000  1
  C  C134  1  0.21620000  0.42298000  0.48504000  1
  C  C135  1  0.21620000  0.57702000  0.51496000  1
  C  C136  1  0.21709000  0.30063000  0.49068000  1
  C  C137  1  0.21709000  0.69937000  0.50932000  1
  C  C138  1  0.21790000  0.39417000  0.53929000  1
  C  C139  1  0.21790000  0.60583000  0.46071000  1
  C  C140  1  0.21890000  0.33392000  0.54265000  1
  C  C141  1  0.21890000  0.66608000  0.45735000  1
  C  C142  1  0.22105000  0.30422000  0.60461000  1
  C  C143  1  0.22105000  0.69578000  0.39539000  1
  C  C144  1  0.27895000  0.10461000  0.19578000  1
  C  C145  1  0.27895000  0.89539000  0.80422000  1
  C  C146  1  0.28110000  0.04265000  0.16608000  1
  C  C147  1  0.28110000  0.95735000  0.83392000  1
  C  C148  1  0.28210000  0.03929000  0.10583000  1
  C  C149  1  0.28210000  0.96071000  0.89417000  1
  C  C150  1  0.28291000  0.00932000  0.80063000  1
  C  C151  1  0.28291000  0.99068000  0.19937000  1
  C  C152  1  0.28380000  0.01496000  0.92298000  1
  C  C153  1  0.28380000  0.98504000  0.07702000  1
  C  C154  1  0.28690000  0.06722000  0.88948000  1
  C  C155  1  0.28690000  0.93278000  0.11052000  1
  C  C156  1  0.28722000  0.06432000  0.82774000  1
  C  C157  1  0.28722000  0.93568000  0.17226000  1
  C  C158  1  0.29090000  0.12170000  0.79395000  1
  C  C159  1  0.29090000  0.87830000  0.20605000  1
  C  C160  1  0.29395000  0.37830000  0.20910000  1
  C  C161  1  0.29395000  0.62170000  0.79090000  1
  C  C162  1  0.30063000  0.49068000  0.21709000  1
  C  C163  1  0.30063000  0.50932000  0.78291000  1
  C  C164  1  0.30422000  0.39539000  0.77895000  1
  C  C165  1  0.30422000  0.60461000  0.22105000  1
  C  C166  1  0.32774000  0.43568000  0.21278000  1
  C  C167  1  0.32774000  0.56432000  0.78722000  1
  C  C168  1  0.33392000  0.45735000  0.78110000  1
  C  C169  1  0.33392000  0.54265000  0.21890000  1
  C  C170  1  0.37830000  0.20910000  0.29395000  1
  C  C171  1  0.37830000  0.79090000  0.70605000  1
  C  C172  1  0.38948000  0.43278000  0.21310000  1
  C  C173  1  0.38948000  0.56722000  0.78690000  1
  C  C174  1  0.39417000  0.46071000  0.78210000  1
  C  C175  1  0.39417000  0.53929000  0.21790000  1
  C  C176  1  0.39539000  0.22105000  0.69578000  1
  C  C177  1  0.39539000  0.77895000  0.30422000  1
  C  C178  1  0.42298000  0.48504000  0.21620000  1
  C  C179  1  0.42298000  0.51496000  0.78380000  1
  C  C180  1  0.43278000  0.21310000  0.38948000  1
  C  C181  1  0.43278000  0.78690000  0.61052000  1
  C  C182  1  0.43568000  0.21278000  0.32774000  1
  C  C183  1  0.43568000  0.78722000  0.67226000  1
  C  C184  1  0.45735000  0.21890000  0.66608000  1
  C  C185  1  0.45735000  0.78110000  0.33392000  1
  C  C186  1  0.46071000  0.21790000  0.60583000  1
  C  C187  1  0.46071000  0.78210000  0.39417000  1
  C  C188  1  0.48504000  0.21620000  0.42298000  1
  C  C189  1  0.48504000  0.78380000  0.57702000  1
  C  C190  1  0.49068000  0.21709000  0.30063000  1
  C  C191  1  0.49068000  0.78291000  0.69937000  1
  C  C192  1  0.50932000  0.21709000  0.69937000  1
  C  C193  1  0.50932000  0.78291000  0.30063000  1
  C  C194  1  0.51496000  0.21620000  0.57702000  1
  C  C195  1  0.51496000  0.78380000  0.42298000  1
  C  C196  1  0.53929000  0.21790000  0.39417000  1
  C  C197  1  0.53929000  0.78210000  0.60583000  1
  C  C198  1  0.54265000  0.21890000  0.33392000  1
  C  C199  1  0.54265000  0.78110000  0.66608000  1
  C  C200  1  0.56432000  0.21278000  0.67226000  1
  C  C201  1  0.56432000  0.78722000  0.32774000  1
  C  C202  1  0.56722000  0.21310000  0.61052000  1
  C  C203  1  0.56722000  0.78690000  0.38948000  1
  C  C204  1  0.57702000  0.48504000  0.78380000  1
  C  C205  1  0.57702000  0.51496000  0.21620000  1
  C  C206  1  0.60461000  0.22105000  0.30422000  1
  C  C207  1  0.60461000  0.77895000  0.69578000  1
  C  C208  1  0.60583000  0.46071000  0.21790000  1
  C  C209  1  0.60583000  0.53929000  0.78210000  1
  C  C210  1  0.61052000  0.43278000  0.78690000  1
  C  C211  1  0.61052000  0.56722000  0.21310000  1
  C  C212  1  0.62170000  0.20910000  0.70605000  1
  C  C213  1  0.62170000  0.79090000  0.29395000  1
  C  C214  1  0.66608000  0.45735000  0.21890000  1
  C  C215  1  0.66608000  0.54265000  0.78110000  1
  C  C216  1  0.67226000  0.43568000  0.78722000  1
  C  C217  1  0.67226000  0.56432000  0.21278000  1
  C  C218  1  0.69578000  0.39539000  0.22105000  1
  C  C219  1  0.69578000  0.60461000  0.77895000  1
  C  C220  1  0.69937000  0.49068000  0.78291000  1
  C  C221  1  0.69937000  0.50932000  0.21709000  1
  C  C222  1  0.70605000  0.37830000  0.79090000  1
  C  C223  1  0.70605000  0.62170000  0.20910000  1
  C  C224  1  0.70910000  0.12170000  0.20605000  1
  C  C225  1  0.70910000  0.87830000  0.79395000  1
  C  C226  1  0.71278000  0.06432000  0.17226000  1
  C  C227  1  0.71278000  0.93568000  0.82774000  1
  C  C228  1  0.71310000  0.06722000  0.11052000  1
  C  C229  1  0.71310000  0.93278000  0.88948000  1
  C  C230  1  0.71620000  0.01496000  0.07702000  1
  C  C231  1  0.71620000  0.98504000  0.92298000  1
  C  C232  1  0.71709000  0.00932000  0.19937000  1
  C  C233  1  0.71709000  0.99068000  0.80063000  1
  C  C234  1  0.71790000  0.03929000  0.89417000  1
  C  C235  1  0.71790000  0.96071000  0.10583000  1
  C  C236  1  0.71890000  0.04265000  0.83392000  1
  C  C237  1  0.71890000  0.95735000  0.16608000  1
  C  C238  1  0.72105000  0.10461000  0.80422000  1
  C  C239  1  0.72105000  0.89539000  0.19578000  1
  C  C240  1  0.77895000  0.30422000  0.39539000  1
  C  C241  1  0.77895000  0.69578000  0.60461000  1
  C  C242  1  0.78110000  0.33392000  0.45735000  1
  C  C243  1  0.78110000  0.66608000  0.54265000  1
  C  C244  1  0.78210000  0.39417000  0.46071000  1
  C  C245  1  0.78210000  0.60583000  0.53929000  1
  C  C246  1  0.78291000  0.30063000  0.50932000  1
  C  C247  1  0.78291000  0.69937000  0.49068000  1
  C  C248  1  0.78380000  0.42298000  0.51496000  1
  C  C249  1  0.78380000  0.57702000  0.48504000  1
  C  C250  1  0.78690000  0.38948000  0.56722000  1
  C  C251  1  0.78690000  0.61052000  0.43278000  1
  C  C252  1  0.78722000  0.32774000  0.56432000  1
  C  C253  1  0.78722000  0.67226000  0.43568000  1
  C  C254  1  0.79090000  0.29395000  0.62170000  1
  C  C255  1  0.79090000  0.70605000  0.37830000  1
  C  C256  1  0.79395000  0.29090000  0.12170000  1
  C  C257  1  0.79395000  0.70910000  0.87830000  1
  C  C258  1  0.80063000  0.28291000  0.00932000  1
  C  C259  1  0.80063000  0.71709000  0.99068000  1
  C  C260  1  0.80422000  0.27895000  0.89539000  1
  C  C261  1  0.80422000  0.72105000  0.10461000  1
  C  C262  1  0.82774000  0.28722000  0.06432000  1
  C  C263  1  0.82774000  0.71278000  0.93568000  1
  C  C264  1  0.83392000  0.28110000  0.95735000  1
  C  C265  1  0.83392000  0.71890000  0.04265000  1
  C  C266  1  0.87830000  0.20605000  0.29090000  1
  C  C267  1  0.87830000  0.79395000  0.70910000  1
  C  C268  1  0.88948000  0.28690000  0.06722000  1
  C  C269  1  0.88948000  0.71310000  0.93278000  1
  C  C270  1  0.89417000  0.28210000  0.96071000  1
  C  C271  1  0.89417000  0.71790000  0.03929000  1
  C  C272  1  0.89539000  0.19578000  0.72105000  1
  C  C273  1  0.89539000  0.80422000  0.27895000  1
  C  C274  1  0.92298000  0.28380000  0.01496000  1
  C  C275  1  0.92298000  0.71620000  0.98504000  1
  C  C276  1  0.93278000  0.11052000  0.28690000  1
  C  C277  1  0.93278000  0.88948000  0.71310000  1
  C  C278  1  0.93568000  0.17226000  0.28722000  1
  C  C279  1  0.93568000  0.82774000  0.71278000  1
  C  C280  1  0.95735000  0.16608000  0.71890000  1
  C  C281  1  0.95735000  0.83392000  0.28110000  1
  C  C282  1  0.96071000  0.10583000  0.71790000  1
  C  C283  1  0.96071000  0.89417000  0.28210000  1
  C  C284  1  0.98504000  0.07702000  0.28380000  1
  C  C285  1  0.98504000  0.92298000  0.71620000  1
  C  C286  1  0.99068000  0.19937000  0.28291000  1
  C  C287  1  0.99068000  0.80063000  0.71709000  1
  N  N288  1  0.01373000  0.28290000  0.97732000  1
  N  N289  1  0.01373000  0.71710000  0.02268000  1
  N  N290  1  0.02268000  0.01373000  0.71710000  1
  N  N291  1  0.02268000  0.98627000  0.28290000  1
  N  N292  1  0.21710000  0.48627000  0.47732000  1
  N  N293  1  0.21710000  0.51373000  0.52268000  1
  N  N294  1  0.28290000  0.02268000  0.98627000  1
  N  N295  1  0.28290000  0.97732000  0.01373000  1
  N  N296  1  0.47732000  0.21710000  0.48627000  1
  N  N297  1  0.47732000  0.78290000  0.51373000  1
  N  N298  1  0.48627000  0.47732000  0.21710000  1
  N  N299  1  0.48627000  0.52268000  0.78290000  1
  N  N300  1  0.51373000  0.47732000  0.78290000  1
  N  N301  1  0.51373000  0.52268000  0.21710000  1
  N  N302  1  0.52268000  0.21710000  0.51373000  1
  N  N303  1  0.52268000  0.78290000  0.48627000  1
  N  N304  1  0.71710000  0.02268000  0.01373000  1
  N  N305  1  0.71710000  0.97732000  0.98627000  1
  N  N306  1  0.78290000  0.48627000  0.52268000  1
  N  N307  1  0.78290000  0.51373000  0.47732000  1
  N  N308  1  0.97732000  0.01373000  0.28290000  1
  N  N309  1  0.97732000  0.98627000  0.71710000  1
  N  N310  1  0.98627000  0.28290000  0.02268000  1
  N  N311  1  0.98627000  0.71710000  0.97732000  1
  O  O312  1  0.10513000  0.24985000  0.26695000  1
  O  O313  1  0.10513000  0.75015000  0.73305000  1
  O  O314  1  0.11942000  0.26109000  0.71787000  1
  O  O315  1  0.11942000  0.73891000  0.28213000  1
  O  O316  1  0.14726000  0.16200000  0.28884000  1
  O  O317  1  0.14726000  0.83800000  0.71116000  1
  O  O318  1  0.16200000  0.28884000  0.14726000  1
  O  O319  1  0.16200000  0.71116000  0.85274000  1
  O  O320  1  0.16809000  0.17509000  0.69923000  1
  O  O321  1  0.16809000  0.82491000  0.30077000  1
  O  O322  1  0.17509000  0.30077000  0.83191000  1
  O  O323  1  0.17509000  0.69923000  0.16809000  1
  O  O324  1  0.19923000  0.32491000  0.33191000  1
  O  O325  1  0.19923000  0.67509000  0.66809000  1
  O  O326  1  0.21116000  0.33800000  0.64726000  1
  O  O327  1  0.21116000  0.66200000  0.35274000  1
  O  O328  1  0.21787000  0.23891000  0.38058000  1
  O  O329  1  0.21787000  0.76109000  0.61942000  1
  O  O330  1  0.23305000  0.25015000  0.60513000  1
  O  O331  1  0.23305000  0.74985000  0.39487000  1
  O  O332  1  0.23817000  0.23817000  0.23817000  1
  O  O333  1  0.23817000  0.76183000  0.76183000  1
  O  O334  1  0.23891000  0.38058000  0.21787000  1
  O  O335  1  0.23891000  0.61942000  0.78213000  1
  O  O336  1  0.24985000  0.26695000  0.10513000  1
  O  O337  1  0.24985000  0.73305000  0.89487000  1
  O  O338  1  0.25015000  0.39487000  0.76695000  1
  O  O339  1  0.25015000  0.60513000  0.23305000  1
  O  O340  1  0.26109000  0.28213000  0.88058000  1
  O  O341  1  0.26109000  0.71787000  0.11942000  1
  O  O342  1  0.26183000  0.26183000  0.73817000  1
  O  O343  1  0.26183000  0.73817000  0.26183000  1
  O  O344  1  0.26695000  0.10513000  0.24985000  1
  O  O345  1  0.26695000  0.89487000  0.75015000  1
  O  O346  1  0.28213000  0.11942000  0.73891000  1
  O  O347  1  0.28213000  0.88058000  0.26109000  1
  O  O348  1  0.28884000  0.14726000  0.16200000  1
  O  O349  1  0.28884000  0.85274000  0.83800000  1
  O  O350  1  0.30077000  0.16809000  0.82491000  1
  O  O351  1  0.30077000  0.83191000  0.17509000  1
  O  O352  1  0.32491000  0.33191000  0.19923000  1
  O  O353  1  0.32491000  0.66809000  0.80077000  1
  O  O354  1  0.33191000  0.19923000  0.32491000  1
  O  O355  1  0.33191000  0.80077000  0.67509000  1
  O  O356  1  0.33800000  0.35274000  0.78884000  1
  O  O357  1  0.33800000  0.64726000  0.21116000  1
  O  O358  1  0.35274000  0.21116000  0.66200000  1
  O  O359  1  0.35274000  0.78884000  0.33800000  1
  O  O360  1  0.38058000  0.21787000  0.23891000  1
  O  O361  1  0.38058000  0.78213000  0.76109000  1
  O  O362  1  0.39487000  0.23305000  0.74985000  1
  O  O363  1  0.39487000  0.76695000  0.25015000  1
  O  O364  1  0.60513000  0.23305000  0.25015000  1
  O  O365  1  0.60513000  0.76695000  0.74985000  1
  O  O366  1  0.61942000  0.21787000  0.76109000  1
  O  O367  1  0.61942000  0.78213000  0.23891000  1
  O  O368  1  0.64726000  0.21116000  0.33800000  1
  O  O369  1  0.64726000  0.78884000  0.66200000  1
  O  O370  1  0.66200000  0.35274000  0.21116000  1
  O  O371  1  0.66200000  0.64726000  0.78884000  1
  O  O372  1  0.66809000  0.19923000  0.67509000  1
  O  O373  1  0.66809000  0.80077000  0.32491000  1
  O  O374  1  0.67509000  0.33191000  0.80077000  1
  O  O375  1  0.67509000  0.66809000  0.19923000  1
  O  O376  1  0.69923000  0.16809000  0.17509000  1
  O  O377  1  0.69923000  0.83191000  0.82491000  1
  O  O378  1  0.71116000  0.14726000  0.83800000  1
  O  O379  1  0.71116000  0.85274000  0.16200000  1
  O  O380  1  0.71787000  0.11942000  0.26109000  1
  O  O381  1  0.71787000  0.88058000  0.73891000  1
  O  O382  1  0.73305000  0.10513000  0.75015000  1
  O  O383  1  0.73305000  0.89487000  0.24985000  1
  O  O384  1  0.73817000  0.26183000  0.26183000  1
  O  O385  1  0.73817000  0.73817000  0.73817000  1
  O  O386  1  0.73891000  0.28213000  0.11942000  1
  O  O387  1  0.73891000  0.71787000  0.88058000  1
  O  O388  1  0.74985000  0.39487000  0.23305000  1
  O  O389  1  0.74985000  0.60513000  0.76695000  1
  O  O390  1  0.75015000  0.26695000  0.89487000  1
  O  O391  1  0.75015000  0.73305000  0.10513000  1
  O  O392  1  0.76109000  0.38058000  0.78213000  1
  O  O393  1  0.76109000  0.61942000  0.21787000  1
  O  O394  1  0.76183000  0.23817000  0.76183000  1
  O  O395  1  0.76183000  0.76183000  0.23817000  1
  O  O396  1  0.76695000  0.25015000  0.39487000  1
  O  O397  1  0.76695000  0.74985000  0.60513000  1
  O  O398  1  0.78213000  0.23891000  0.61942000  1
  O  O399  1  0.78213000  0.76109000  0.38058000  1
  O  O400  1  0.78884000  0.33800000  0.35274000  1
  O  O401  1  0.78884000  0.66200000  0.64726000  1
  O  O402  1  0.80077000  0.32491000  0.66809000  1
  O  O403  1  0.80077000  0.67509000  0.33191000  1
  O  O404  1  0.82491000  0.30077000  0.16809000  1
  O  O405  1  0.82491000  0.69923000  0.83191000  1
  O  O406  1  0.83191000  0.17509000  0.30077000  1
  O  O407  1  0.83191000  0.82491000  0.69923000  1
  O  O408  1  0.83800000  0.28884000  0.85274000  1
  O  O409  1  0.83800000  0.71116000  0.14726000  1
  O  O410  1  0.85274000  0.16200000  0.71116000  1
  O  O411  1  0.85274000  0.83800000  0.28884000  1
  O  O412  1  0.88058000  0.26109000  0.28213000  1
  O  O413  1  0.88058000  0.73891000  0.71787000  1
  O  O414  1  0.89487000  0.24985000  0.73305000  1
  O  O415  1  0.89487000  0.75015000  0.26695000  1
