# generated using pymatgen
data_Sm2Cd3H12(C3O2)12
_symmetry_space_group_name_H-M   'P 1'
_cell_length_a   19.48760000
_cell_length_b   19.48760000
_cell_length_c   26.37700000
_cell_angle_alpha   90.00000000
_cell_angle_beta   90.00000000
_cell_angle_gamma   90.00000000
_symmetry_Int_Tables_number   1
_chemical_formula_structural   Sm2Cd3H12(C3O2)12
_chemical_formula_sum   'Sm8 Cd12 H48 C144 O96'
_cell_volume   10017.10238853
_cell_formula_units_Z   4
loop_
 _symmetry_equiv_pos_site_id
 _symmetry_equiv_pos_as_xyz
  1  'x, y, z'
loop_
 _atom_site_type_symbol
 _atom_site_label
 _atom_site_symmetry_multiplicity
 _atom_site_fract_x
 _atom_site_fract_y
 _atom_site_fract_z
 _atom_site_occupancy
  Sm  Sm0  1  0.05899000  0.05899000  0.30287000  1
  Sm  Sm1  1  0.05899000  0.44101000  0.80287000  1
  Sm  Sm2  1  0.44101000  0.05899000  0.80287000  1
  Sm  Sm3  1  0.44101000  0.44101000  0.30287000  1
  Sm  Sm4  1  0.55899000  0.55899000  0.69713000  1
  Sm  Sm5  1  0.55899000  0.94101000  0.19713000  1
  Sm  Sm6  1  0.94101000  0.55899000  0.19713000  1
  Sm  Sm7  1  0.94101000  0.94101000  0.69713000  1
  Cd  Cd8  1  0.02990000  0.02990000  0.80393000  1
  Cd  Cd9  1  0.02990000  0.47010000  0.30393000  1
  Cd  Cd10  1  0.25000000  0.75000000  0.00000000  1
  Cd  Cd11  1  0.25000000  0.75000000  0.50000000  1
  Cd  Cd12  1  0.47010000  0.02990000  0.30393000  1
  Cd  Cd13  1  0.47010000  0.47010000  0.80393000  1
  Cd  Cd14  1  0.52990000  0.52990000  0.19607000  1
  Cd  Cd15  1  0.52990000  0.97010000  0.69607000  1
  Cd  Cd16  1  0.75000000  0.25000000  0.00000000  1
  Cd  Cd17  1  0.75000000  0.25000000  0.50000000  1
  Cd  Cd18  1  0.97010000  0.52990000  0.69607000  1
  Cd  Cd19  1  0.97010000  0.97010000  0.19607000  1
  H  H20  1  0.01270000  0.24880000  0.73080000  1
  H  H21  1  0.01270000  0.25120000  0.23080000  1
  H  H22  1  0.09000000  0.66710000  0.38490000  1
  H  H23  1  0.09000000  0.83290000  0.88490000  1
  H  H24  1  0.09550000  0.62960000  0.86430000  1
  H  H25  1  0.09550000  0.87040000  0.36430000  1
  H  H26  1  0.12960000  0.59550000  0.13570000  1
  H  H27  1  0.12960000  0.90450000  0.63570000  1
  H  H28  1  0.16710000  0.59000000  0.61510000  1
  H  H29  1  0.16710000  0.91000000  0.11510000  1
  H  H30  1  0.24880000  0.01270000  0.73080000  1
  H  H31  1  0.24880000  0.48730000  0.23080000  1
  H  H32  1  0.25120000  0.01270000  0.23080000  1
  H  H33  1  0.25120000  0.48730000  0.73080000  1
  H  H34  1  0.33290000  0.59000000  0.11510000  1
  H  H35  1  0.33290000  0.91000000  0.61510000  1
  H  H36  1  0.37040000  0.59550000  0.63570000  1
  H  H37  1  0.37040000  0.90450000  0.13570000  1
  H  H38  1  0.40450000  0.62960000  0.36430000  1
  H  H39  1  0.40450000  0.87040000  0.86430000  1
  H  H40  1  0.41000000  0.66710000  0.88490000  1
  H  H41  1  0.41000000  0.83290000  0.38490000  1
  H  H42  1  0.48730000  0.24880000  0.23080000  1
  H  H43  1  0.48730000  0.25120000  0.73080000  1
  H  H44  1  0.51270000  0.74880000  0.26920000  1
  H  H45  1  0.51270000  0.75120000  0.76920000  1
  H  H46  1  0.59000000  0.16710000  0.61510000  1
  H  H47  1  0.59000000  0.33290000  0.11510000  1
  H  H48  1  0.59550000  0.12960000  0.13570000  1
  H  H49  1  0.59550000  0.37040000  0.63570000  1
  H  H50  1  0.62960000  0.09550000  0.86430000  1
  H  H51  1  0.62960000  0.40450000  0.36430000  1
  H  H52  1  0.66710000  0.09000000  0.38490000  1
  H  H53  1  0.66710000  0.41000000  0.88490000  1
  H  H54  1  0.74880000  0.51270000  0.26920000  1
  H  H55  1  0.74880000  0.98730000  0.76920000  1
  H  H56  1  0.75120000  0.51270000  0.76920000  1
  H  H57  1  0.75120000  0.98730000  0.26920000  1
  H  H58  1  0.83290000  0.09000000  0.88490000  1
  H  H59  1  0.83290000  0.41000000  0.38490000  1
  H  H60  1  0.87040000  0.09550000  0.36430000  1
  H  H61  1  0.87040000  0.40450000  0.86430000  1
  H  H62  1  0.90450000  0.12960000  0.63570000  1
  H  H63  1  0.90450000  0.37040000  0.13570000  1
  H  H64  1  0.91000000  0.16710000  0.11510000  1
  H  H65  1  0.91000000  0.33290000  0.61510000  1
  H  H66  1  0.98730000  0.74880000  0.76920000  1
  H  H67  1  0.98730000  0.75120000  0.26920000  1
  C  C68  1  0.01550000  0.74410000  0.79740000  1
  C  C69  1  0.01550000  0.75590000  0.29740000  1
  C  C70  1  0.01640000  0.62860000  0.30640000  1
  C  C71  1  0.01640000  0.87140000  0.80640000  1
  C  C72  1  0.01950000  0.61820000  0.78030000  1
  C  C73  1  0.01950000  0.88180000  0.28030000  1
  C  C74  1  0.03470000  0.69910000  0.32460000  1
  C  C75  1  0.03470000  0.80090000  0.82460000  1
  C  C76  1  0.03800000  0.67970000  0.81190000  1
  C  C77  1  0.03800000  0.82030000  0.31190000  1
  C  C78  1  0.07680000  0.70580000  0.36680000  1
  C  C79  1  0.07680000  0.79420000  0.86680000  1
  C  C80  1  0.08010000  0.67270000  0.85440000  1
  C  C81  1  0.08010000  0.82730000  0.35440000  1
  C  C82  1  0.09880000  0.73040000  0.88160000  1
  C  C83  1  0.09880000  0.76960000  0.38160000  1
  C  C84  1  0.11820000  0.51950000  0.21970000  1
  C  C85  1  0.11820000  0.98050000  0.71970000  1
  C  C86  1  0.12860000  0.51640000  0.69360000  1
  C  C87  1  0.12860000  0.98360000  0.19360000  1
  C  C88  1  0.14760000  0.72500000  0.92550000  1
  C  C89  1  0.14760000  0.77500000  0.42550000  1
  C  C90  1  0.17270000  0.58010000  0.14560000  1
  C  C91  1  0.17270000  0.91990000  0.64560000  1
  C  C92  1  0.17970000  0.53800000  0.18810000  1
  C  C93  1  0.17970000  0.96200000  0.68810000  1
  C  C94  1  0.19910000  0.53470000  0.67540000  1
  C  C95  1  0.19910000  0.96530000  0.17540000  1
  C  C96  1  0.20580000  0.57680000  0.63320000  1
  C  C97  1  0.20580000  0.92320000  0.13320000  1
  C  C98  1  0.22500000  0.64760000  0.07450000  1
  C  C99  1  0.22500000  0.85240000  0.57450000  1
  C  C100  1  0.23040000  0.59880000  0.11840000  1
  C  C101  1  0.23040000  0.90120000  0.61840000  1
  C  C102  1  0.24410000  0.51550000  0.20260000  1
  C  C103  1  0.24410000  0.98450000  0.70260000  1
  C  C104  1  0.25590000  0.51550000  0.70260000  1
  C  C105  1  0.25590000  0.98450000  0.20260000  1
  C  C106  1  0.26960000  0.59880000  0.61840000  1
  C  C107  1  0.26960000  0.90120000  0.11840000  1
  C  C108  1  0.27500000  0.64760000  0.57450000  1
  C  C109  1  0.27500000  0.85240000  0.07450000  1
  C  C110  1  0.29420000  0.57680000  0.13320000  1
  C  C111  1  0.29420000  0.92320000  0.63320000  1
  C  C112  1  0.30090000  0.53470000  0.17540000  1
  C  C113  1  0.30090000  0.96530000  0.67540000  1
  C  C114  1  0.32030000  0.53800000  0.68810000  1
  C  C115  1  0.32030000  0.96200000  0.18810000  1
  C  C116  1  0.32730000  0.58010000  0.64560000  1
  C  C117  1  0.32730000  0.91990000  0.14560000  1
  C  C118  1  0.35240000  0.72500000  0.42550000  1
  C  C119  1  0.35240000  0.77500000  0.92550000  1
  C  C120  1  0.37140000  0.51640000  0.19360000  1
  C  C121  1  0.37140000  0.98360000  0.69360000  1
  C  C122  1  0.38180000  0.51950000  0.71970000  1
  C  C123  1  0.38180000  0.98050000  0.21970000  1
  C  C124  1  0.40120000  0.73040000  0.38160000  1
  C  C125  1  0.40120000  0.76960000  0.88160000  1
  C  C126  1  0.41990000  0.67270000  0.35440000  1
  C  C127  1  0.41990000  0.82730000  0.85440000  1
  C  C128  1  0.42320000  0.70580000  0.86680000  1
  C  C129  1  0.42320000  0.79420000  0.36680000  1
  C  C130  1  0.46200000  0.67970000  0.31190000  1
  C  C131  1  0.46200000  0.82030000  0.81190000  1
  C  C132  1  0.46530000  0.69910000  0.82460000  1
  C  C133  1  0.46530000  0.80090000  0.32460000  1
  C  C134  1  0.48050000  0.61820000  0.28030000  1
  C  C135  1  0.48050000  0.88180000  0.78030000  1
  C  C136  1  0.48360000  0.62860000  0.80640000  1
  C  C137  1  0.48360000  0.87140000  0.30640000  1
  C  C138  1  0.48450000  0.74410000  0.29740000  1
  C  C139  1  0.48450000  0.75590000  0.79740000  1
  C  C140  1  0.51550000  0.24410000  0.20260000  1
  C  C141  1  0.51550000  0.25590000  0.70260000  1
  C  C142  1  0.51640000  0.12860000  0.69360000  1
  C  C143  1  0.51640000  0.37140000  0.19360000  1
  C  C144  1  0.51950000  0.11820000  0.21970000  1
  C  C145  1  0.51950000  0.38180000  0.71970000  1
  C  C146  1  0.53470000  0.19910000  0.67540000  1
  C  C147  1  0.53470000  0.30090000  0.17540000  1
  C  C148  1  0.53800000  0.17970000  0.18810000  1
  C  C149  1  0.53800000  0.32030000  0.68810000  1
  C  C150  1  0.57680000  0.20580000  0.63320000  1
  C  C151  1  0.57680000  0.29420000  0.13320000  1
  C  C152  1  0.58010000  0.17270000  0.14560000  1
  C  C153  1  0.58010000  0.32730000  0.64560000  1
  C  C154  1  0.59880000  0.23040000  0.11840000  1
  C  C155  1  0.59880000  0.26960000  0.61840000  1
  C  C156  1  0.61820000  0.01950000  0.78030000  1
  C  C157  1  0.61820000  0.48050000  0.28030000  1
  C  C158  1  0.62860000  0.01640000  0.30640000  1
  C  C159  1  0.62860000  0.48360000  0.80640000  1
  C  C160  1  0.64760000  0.22500000  0.07450000  1
  C  C161  1  0.64760000  0.27500000  0.57450000  1
  C  C162  1  0.67270000  0.08010000  0.85440000  1
  C  C163  1  0.67270000  0.41990000  0.35440000  1
  C  C164  1  0.67970000  0.03800000  0.81190000  1
  C  C165  1  0.67970000  0.46200000  0.31190000  1
  C  C166  1  0.69910000  0.03470000  0.32460000  1
  C  C167  1  0.69910000  0.46530000  0.82460000  1
  C  C168  1  0.70580000  0.07680000  0.36680000  1
  C  C169  1  0.70580000  0.42320000  0.86680000  1
  C  C170  1  0.72500000  0.14760000  0.92550000  1
  C  C171  1  0.72500000  0.35240000  0.42550000  1
  C  C172  1  0.73040000  0.09880000  0.88160000  1
  C  C173  1  0.73040000  0.40120000  0.38160000  1
  C  C174  1  0.74410000  0.01550000  0.79740000  1
  C  C175  1  0.74410000  0.48450000  0.29740000  1
  C  C176  1  0.75590000  0.01550000  0.29740000  1
  C  C177  1  0.75590000  0.48450000  0.79740000  1
  C  C178  1  0.76960000  0.09880000  0.38160000  1
  C  C179  1  0.76960000  0.40120000  0.88160000  1
  C  C180  1  0.77500000  0.14760000  0.42550000  1
  C  C181  1  0.77500000  0.35240000  0.92550000  1
  C  C182  1  0.79420000  0.07680000  0.86680000  1
  C  C183  1  0.79420000  0.42320000  0.36680000  1
  C  C184  1  0.80090000  0.03470000  0.82460000  1
  C  C185  1  0.80090000  0.46530000  0.32460000  1
  C  C186  1  0.82030000  0.03800000  0.31190000  1
  C  C187  1  0.82030000  0.46200000  0.81190000  1
  C  C188  1  0.82730000  0.08010000  0.35440000  1
  C  C189  1  0.82730000  0.41990000  0.85440000  1
  C  C190  1  0.85240000  0.22500000  0.57450000  1
  C  C191  1  0.85240000  0.27500000  0.07450000  1
  C  C192  1  0.87140000  0.01640000  0.80640000  1
  C  C193  1  0.87140000  0.48360000  0.30640000  1
  C  C194  1  0.88180000  0.01950000  0.28030000  1
  C  C195  1  0.88180000  0.48050000  0.78030000  1
  C  C196  1  0.90120000  0.23040000  0.61840000  1
  C  C197  1  0.90120000  0.26960000  0.11840000  1
  C  C198  1  0.91990000  0.17270000  0.64560000  1
  C  C199  1  0.91990000  0.32730000  0.14560000  1
  C  C200  1  0.92320000  0.20580000  0.13320000  1
  C  C201  1  0.92320000  0.29420000  0.63320000  1
  C  C202  1  0.96200000  0.17970000  0.68810000  1
  C  C203  1  0.96200000  0.32030000  0.18810000  1
  C  C204  1  0.96530000  0.19910000  0.17540000  1
  C  C205  1  0.96530000  0.30090000  0.67540000  1
  C  C206  1  0.98050000  0.11820000  0.71970000  1
  C  C207  1  0.98050000  0.38180000  0.21970000  1
  C  C208  1  0.98360000  0.12860000  0.19360000  1
  C  C209  1  0.98360000  0.37140000  0.69360000  1
  C  C210  1  0.98450000  0.24410000  0.70260000  1
  C  C211  1  0.98450000  0.25590000  0.20260000  1
  O  O212  1  0.01320000  0.12640000  0.75980000  1
  O  O213  1  0.01320000  0.37360000  0.25980000  1
  O  O214  1  0.02090000  0.12330000  0.23250000  1
  O  O215  1  0.02090000  0.37670000  0.73250000  1
  O  O216  1  0.03770000  0.57870000  0.33020000  1
  O  O217  1  0.03770000  0.92130000  0.83020000  1
  O  O218  1  0.03970000  0.56230000  0.79400000  1
  O  O219  1  0.03970000  0.93770000  0.29400000  1
  O  O220  1  0.06230000  0.53970000  0.20600000  1
  O  O221  1  0.06230000  0.96030000  0.70600000  1
  O  O222  1  0.07870000  0.53770000  0.66980000  1
  O  O223  1  0.07870000  0.96230000  0.16980000  1
  O  O224  1  0.12330000  0.02090000  0.23250000  1
  O  O225  1  0.12330000  0.47910000  0.73250000  1
  O  O226  1  0.12640000  0.01320000  0.75980000  1
  O  O227  1  0.12640000  0.48680000  0.25980000  1
  O  O228  1  0.16350000  0.72140000  0.44890000  1
  O  O229  1  0.16350000  0.77860000  0.94890000  1
  O  O230  1  0.16770000  0.67280000  0.06390000  1
  O  O231  1  0.16770000  0.82720000  0.56390000  1
  O  O232  1  0.17280000  0.66770000  0.93610000  1
  O  O233  1  0.17280000  0.83230000  0.43610000  1
  O  O234  1  0.22140000  0.66350000  0.55110000  1
  O  O235  1  0.22140000  0.83650000  0.05110000  1
  O  O236  1  0.27860000  0.66350000  0.05110000  1
  O  O237  1  0.27860000  0.83650000  0.55110000  1
  O  O238  1  0.32720000  0.66770000  0.43610000  1
  O  O239  1  0.32720000  0.83230000  0.93610000  1
  O  O240  1  0.33230000  0.67280000  0.56390000  1
  O  O241  1  0.33230000  0.82720000  0.06390000  1
  O  O242  1  0.33650000  0.72140000  0.94890000  1
  O  O243  1  0.33650000  0.77860000  0.44890000  1
  O  O244  1  0.37360000  0.01320000  0.25980000  1
  O  O245  1  0.37360000  0.48680000  0.75980000  1
  O  O246  1  0.37670000  0.02090000  0.73250000  1
  O  O247  1  0.37670000  0.47910000  0.23250000  1
  O  O248  1  0.42130000  0.53770000  0.16980000  1
  O  O249  1  0.42130000  0.96230000  0.66980000  1
  O  O250  1  0.43770000  0.53970000  0.70600000  1
  O  O251  1  0.43770000  0.96030000  0.20600000  1
  O  O252  1  0.46030000  0.56230000  0.29400000  1
  O  O253  1  0.46030000  0.93770000  0.79400000  1
  O  O254  1  0.46230000  0.57870000  0.83020000  1
  O  O255  1  0.46230000  0.92130000  0.33020000  1
  O  O256  1  0.47910000  0.12330000  0.73250000  1
  O  O257  1  0.47910000  0.37670000  0.23250000  1
  O  O258  1  0.48680000  0.12640000  0.25980000  1
  O  O259  1  0.48680000  0.37360000  0.75980000  1
  O  O260  1  0.51320000  0.62640000  0.24020000  1
  O  O261  1  0.51320000  0.87360000  0.74020000  1
  O  O262  1  0.52090000  0.62330000  0.76750000  1
  O  O263  1  0.52090000  0.87670000  0.26750000  1
  O  O264  1  0.53770000  0.07870000  0.66980000  1
  O  O265  1  0.53770000  0.42130000  0.16980000  1
  O  O266  1  0.53970000  0.06230000  0.20600000  1
  O  O267  1  0.53970000  0.43770000  0.70600000  1
  O  O268  1  0.56230000  0.03970000  0.79400000  1
  O  O269  1  0.56230000  0.46030000  0.29400000  1
  O  O270  1  0.57870000  0.03770000  0.33020000  1
  O  O271  1  0.57870000  0.46230000  0.83020000  1
  O  O272  1  0.62330000  0.52090000  0.76750000  1
  O  O273  1  0.62330000  0.97910000  0.26750000  1
  O  O274  1  0.62640000  0.51320000  0.24020000  1
  O  O275  1  0.62640000  0.98680000  0.74020000  1
  O  O276  1  0.66350000  0.22140000  0.55110000  1
  O  O277  1  0.66350000  0.27860000  0.05110000  1
  O  O278  1  0.66770000  0.17280000  0.93610000  1
  O  O279  1  0.66770000  0.32720000  0.43610000  1
  O  O280  1  0.67280000  0.16770000  0.06390000  1
  O  O281  1  0.67280000  0.33230000  0.56390000  1
  O  O282  1  0.72140000  0.16350000  0.44890000  1
  O  O283  1  0.72140000  0.33650000  0.94890000  1
  O  O284  1  0.77860000  0.16350000  0.94890000  1
  O  O285  1  0.77860000  0.33650000  0.44890000  1
  O  O286  1  0.82720000  0.16770000  0.56390000  1
  O  O287  1  0.82720000  0.33230000  0.06390000  1
  O  O288  1  0.83230000  0.17280000  0.43610000  1
  O  O289  1  0.83230000  0.32720000  0.93610000  1
  O  O290  1  0.83650000  0.22140000  0.05110000  1
  O  O291  1  0.83650000  0.27860000  0.55110000  1
  O  O292  1  0.87360000  0.51320000  0.74020000  1
  O  O293  1  0.87360000  0.98680000  0.24020000  1
  O  O294  1  0.87670000  0.52090000  0.26750000  1
  O  O295  1  0.87670000  0.97910000  0.76750000  1
  O  O296  1  0.92130000  0.03770000  0.83020000  1
  O  O297  1  0.92130000  0.46230000  0.33020000  1
  O  O298  1  0.93770000  0.03970000  0.29400000  1
  O  O299  1  0.93770000  0.46030000  0.79400000  1
  O  O300  1  0.96030000  0.06230000  0.70600000  1
  O  O301  1  0.96030000  0.43770000  0.20600000  1
  O  O302  1  0.96230000  0.07870000  0.16980000  1
  O  O303  1  0.96230000  0.42130000  0.66980000  1
  O  O304  1  0.97910000  0.62330000  0.26750000  1
  O  O305  1  0.97910000  0.87670000  0.76750000  1
  O  O306  1  0.98680000  0.62640000  0.74020000  1
  O  O307  1  0.98680000  0.87360000  0.24020000  1
