# generated using pymatgen
data_Zn4H36C48O19
_symmetry_space_group_name_H-M   'P 1'
_cell_length_a   17.10310000
_cell_length_b   17.10310000
_cell_length_c   17.10310000
_cell_angle_alpha   87.66670000
_cell_angle_beta   87.66670000
_cell_angle_gamma   87.66670000
_symmetry_Int_Tables_number   1
_chemical_formula_structural   Zn4H36C48O19
_chemical_formula_sum   'Zn8 H72 C96 O38'
_cell_volume   4990.81523832
_cell_formula_units_Z   2
loop_
 _symmetry_equiv_pos_site_id
 _symmetry_equiv_pos_as_xyz
  1  'x, y, z'
loop_
 _atom_site_type_symbol
 _atom_site_label
 _atom_site_symmetry_multiplicity
 _atom_site_fract_x
 _atom_site_fract_y
 _atom_site_fract_z
 _atom_site_occupancy
  Zn  Zn0  1  0.75374000  0.88428000  0.88425000  1
  Zn  Zn1  1  0.88428000  0.88425000  0.75374000  1
  Zn  Zn2  1  0.88425000  0.75374000  0.88428000  1
  Zn  Zn3  1  0.75347000  0.75347000  0.75347000  1
  Zn  Zn4  1  0.24653000  0.24653000  0.24653000  1
  Zn  Zn5  1  0.11575000  0.24626000  0.11572000  1
  Zn  Zn6  1  0.11572000  0.11575000  0.24626000  1
  Zn  Zn7  1  0.24626000  0.11572000  0.11575000  1
  H  H8  1  0.57230000  0.99930000  0.05090000  1
  H  H9  1  0.01430000  0.99010000  0.34280000  1
  H  H10  1  0.65720000  0.98570000  0.00990000  1
  H  H11  1  0.05990000  0.98390000  0.60300000  1
  H  H12  1  0.20170000  0.97220000  0.66030000  1
  H  H13  1  0.28140000  0.96300000  0.60870000  1
  H  H14  1  0.00070000  0.94910000  0.42770000  1
  H  H15  1  0.39700000  0.94010000  0.01610000  1
  H  H16  1  0.75160000  0.92380000  0.25810000  1
  H  H17  1  0.74950000  0.91620000  0.12260000  1
  H  H18  1  0.50330000  0.91400000  0.90860000  1
  H  H19  1  0.91400000  0.90860000  0.50330000  1
  H  H20  1  0.22040000  0.89430000  0.61300000  1
  H  H21  1  0.13420000  0.88410000  0.71780000  1
  H  H22  1  0.08380000  0.87740000  0.25050000  1
  H  H23  1  0.28220000  0.86580000  0.11590000  1
  H  H24  1  0.33970000  0.79830000  0.02780000  1
  H  H25  1  0.38700000  0.77960000  0.10570000  1
  H  H26  1  0.72900000  0.77020000  0.52160000  1
  H  H27  1  0.73170000  0.76210000  0.38630000  1
  H  H28  1  0.25810000  0.75160000  0.92380000  1
  H  H29  1  0.12260000  0.74950000  0.91620000  1
  H  H30  1  0.07620000  0.74190000  0.24840000  1
  H  H31  1  0.38630000  0.73170000  0.76210000  1
  H  H32  1  0.52160000  0.72900000  0.77020000  1
  H  H33  1  0.39130000  0.71860000  0.03700000  1
  H  H34  1  0.88410000  0.71780000  0.13420000  1
  H  H35  1  0.97220000  0.66030000  0.20170000  1
  H  H36  1  0.00990000  0.65720000  0.98570000  1
  H  H37  1  0.23790000  0.61370000  0.26830000  1
  H  H38  1  0.89430000  0.61300000  0.22040000  1
  H  H39  1  0.96300000  0.60870000  0.28140000  1
  H  H40  1  0.98390000  0.60300000  0.05990000  1
  H  H41  1  0.05090000  0.57230000  0.99930000  1
  H  H42  1  0.77020000  0.52160000  0.72900000  1
  H  H43  1  0.90860000  0.50330000  0.91400000  1
  H  H44  1  0.09140000  0.49670000  0.08600000  1
  H  H45  1  0.22980000  0.47840000  0.27100000  1
  H  H46  1  0.94910000  0.42770000  0.00070000  1
  H  H47  1  0.01610000  0.39700000  0.94010000  1
  H  H48  1  0.03700000  0.39130000  0.71860000  1
  H  H49  1  0.10570000  0.38700000  0.77960000  1
  H  H50  1  0.76210000  0.38630000  0.73170000  1
  H  H51  1  0.99010000  0.34280000  0.01430000  1
  H  H52  1  0.02780000  0.33970000  0.79830000  1
  H  H53  1  0.11590000  0.28220000  0.86580000  1
  H  H54  1  0.60870000  0.28140000  0.96300000  1
  H  H55  1  0.47840000  0.27100000  0.22980000  1
  H  H56  1  0.61370000  0.26830000  0.23790000  1
  H  H57  1  0.92380000  0.25810000  0.75160000  1
  H  H58  1  0.87740000  0.25050000  0.08380000  1
  H  H59  1  0.74190000  0.24840000  0.07620000  1
  H  H60  1  0.26830000  0.23790000  0.61370000  1
  H  H61  1  0.27100000  0.22980000  0.47840000  1
  H  H62  1  0.61300000  0.22040000  0.89430000  1
  H  H63  1  0.66030000  0.20170000  0.97220000  1
  H  H64  1  0.71780000  0.13420000  0.88410000  1
  H  H65  1  0.91620000  0.12260000  0.74950000  1
  H  H66  1  0.86580000  0.11590000  0.28220000  1
  H  H67  1  0.77960000  0.10570000  0.38700000  1
  H  H68  1  0.08600000  0.09140000  0.49670000  1
  H  H69  1  0.49670000  0.08600000  0.09140000  1
  H  H70  1  0.25050000  0.08380000  0.87740000  1
  H  H71  1  0.24840000  0.07620000  0.74190000  1
  H  H72  1  0.60300000  0.05990000  0.98390000  1
  H  H73  1  0.99930000  0.05090000  0.57230000  1
  H  H74  1  0.71860000  0.03700000  0.39130000  1
  H  H75  1  0.79830000  0.02780000  0.33970000  1
  H  H76  1  0.94010000  0.01610000  0.39700000  1
  H  H77  1  0.34280000  0.01430000  0.99010000  1
  H  H78  1  0.98570000  0.00990000  0.65720000  1
  H  H79  1  0.42770000  0.00070000  0.94910000  1
  C  C80  1  0.38200000  0.97400000  0.97200000  1
  C  C81  1  0.97400000  0.97200000  0.38200000  1
  C  C82  1  0.18920000  0.97160000  0.18050000  1
  C  C83  1  0.24330000  0.93520000  0.64250000  1
  C  C84  1  0.18310000  0.88480000  0.18100000  1
  C  C85  1  0.77990000  0.88240000  0.23280000  1
  C  C86  1  0.87660000  0.87890000  0.47920000  1
  C  C87  1  0.77840000  0.87780000  0.15250000  1
  C  C88  1  0.39880000  0.87720000  0.87560000  1
  C  C89  1  0.47920000  0.87660000  0.87890000  1
  C  C90  1  0.87720000  0.87560000  0.39880000  1
  C  C91  1  0.23990000  0.85950000  0.76540000  1
  C  C92  1  0.15910000  0.85780000  0.76060000  1
  C  C93  1  0.12220000  0.84750000  0.22160000  1
  C  C94  1  0.82050000  0.84290000  0.61240000  1
  C  C95  1  0.23940000  0.84090000  0.14220000  1
  C  C96  1  0.82140000  0.83920000  0.52490000  1
  C  C97  1  0.82220000  0.83220000  0.36370000  1
  C  C98  1  0.82180000  0.82740000  0.27650000  1
  C  C99  1  0.36370000  0.82220000  0.83220000  1
  C  C100  1  0.27650000  0.82180000  0.82740000  1
  C  C101  1  0.52490000  0.82140000  0.83920000  1
  C  C102  1  0.61240000  0.82050000  0.84290000  1
  C  C103  1  0.02840000  0.81950000  0.81080000  1
  C  C104  1  0.11520000  0.81900000  0.81690000  1
  C  C105  1  0.81900000  0.81690000  0.11520000  1
  C  C106  1  0.81950000  0.81080000  0.02840000  1
  C  C107  1  0.76750000  0.79690000  0.49030000  1
  C  C108  1  0.76860000  0.79280000  0.40990000  1
  C  C109  1  0.23280000  0.77990000  0.88240000  1
  C  C110  1  0.15250000  0.77840000  0.87780000  1
  C  C111  1  0.40990000  0.76860000  0.79280000  1
  C  C112  1  0.49030000  0.76750000  0.79690000  1
  C  C113  1  0.11760000  0.76720000  0.22010000  1
  C  C114  1  0.85950000  0.76540000  0.23990000  1
  C  C115  1  0.85780000  0.76060000  0.15910000  1
  C  C116  1  0.23460000  0.76010000  0.14050000  1
  C  C117  1  0.35750000  0.75670000  0.06480000  1
  C  C118  1  0.17260000  0.72350000  0.17820000  1
  C  C119  1  0.93520000  0.64250000  0.24330000  1
  C  C120  1  0.16780000  0.63630000  0.17780000  1
  C  C121  1  0.02800000  0.61800000  0.02600000  1
  C  C122  1  0.84290000  0.61240000  0.82050000  1
  C  C123  1  0.12440000  0.60120000  0.12280000  1
  C  C124  1  0.20720000  0.59010000  0.23140000  1
  C  C125  1  0.83920000  0.52490000  0.82140000  1
  C  C126  1  0.12110000  0.52080000  0.12340000  1
  C  C127  1  0.20310000  0.50970000  0.23250000  1
  C  C128  1  0.79690000  0.49030000  0.76750000  1
  C  C129  1  0.87890000  0.47920000  0.87660000  1
  C  C130  1  0.16080000  0.47510000  0.17860000  1
  C  C131  1  0.79280000  0.40990000  0.76860000  1
  C  C132  1  0.87560000  0.39880000  0.87720000  1
  C  C133  1  0.15710000  0.38760000  0.17950000  1
  C  C134  1  0.97200000  0.38200000  0.97400000  1
  C  C135  1  0.83220000  0.36370000  0.82220000  1
  C  C136  1  0.06480000  0.35750000  0.75670000  1
  C  C137  1  0.82740000  0.27650000  0.82180000  1
  C  C138  1  0.64250000  0.24330000  0.93520000  1
  C  C139  1  0.76540000  0.23990000  0.85950000  1
  C  C140  1  0.14220000  0.23940000  0.84090000  1
  C  C141  1  0.14050000  0.23460000  0.76010000  1
  C  C142  1  0.88240000  0.23280000  0.77990000  1
  C  C143  1  0.50970000  0.23250000  0.20310000  1
  C  C144  1  0.59010000  0.23140000  0.20720000  1
  C  C145  1  0.84750000  0.22160000  0.12220000  1
  C  C146  1  0.76720000  0.22010000  0.11760000  1
  C  C147  1  0.23140000  0.20720000  0.59010000  1
  C  C148  1  0.23250000  0.20310000  0.50970000  1
  C  C149  1  0.18050000  0.18920000  0.97160000  1
  C  C150  1  0.18100000  0.18310000  0.88480000  1
  C  C151  1  0.88480000  0.18100000  0.18310000  1
  C  C152  1  0.97160000  0.18050000  0.18920000  1
  C  C153  1  0.38760000  0.17950000  0.15710000  1
  C  C154  1  0.47510000  0.17860000  0.16080000  1
  C  C155  1  0.72350000  0.17820000  0.17260000  1
  C  C156  1  0.63630000  0.17780000  0.16780000  1
  C  C157  1  0.17820000  0.17260000  0.72350000  1
  C  C158  1  0.17780000  0.16780000  0.63630000  1
  C  C159  1  0.17860000  0.16080000  0.47510000  1
  C  C160  1  0.76060000  0.15910000  0.85780000  1
  C  C161  1  0.17950000  0.15710000  0.38760000  1
  C  C162  1  0.87780000  0.15250000  0.77840000  1
  C  C163  1  0.84090000  0.14220000  0.23940000  1
  C  C164  1  0.76010000  0.14050000  0.23460000  1
  C  C165  1  0.12280000  0.12440000  0.60120000  1
  C  C166  1  0.52080000  0.12340000  0.12110000  1
  C  C167  1  0.60120000  0.12280000  0.12440000  1
  C  C168  1  0.22160000  0.12220000  0.84750000  1
  C  C169  1  0.12340000  0.12110000  0.52080000  1
  C  C170  1  0.22010000  0.11760000  0.76720000  1
  C  C171  1  0.81690000  0.11520000  0.81900000  1
  C  C172  1  0.75670000  0.06480000  0.35750000  1
  C  C173  1  0.81080000  0.02840000  0.81950000  1
  C  C174  1  0.02600000  0.02800000  0.61800000  1
  C  C175  1  0.61800000  0.02600000  0.02800000  1
  O  O176  1  0.85110000  0.99640000  0.76680000  1
  O  O177  1  0.76510000  0.99470000  0.86860000  1
  O  O178  1  0.34800000  0.92900000  0.91300000  1
  O  O179  1  0.92900000  0.91300000  0.34800000  1
  O  O180  1  0.28220000  0.89930000  0.71030000  1
  O  O181  1  0.87190000  0.88100000  0.64110000  1
  O  O182  1  0.64110000  0.87190000  0.88100000  1
  O  O183  1  0.99470000  0.86860000  0.76510000  1
  O  O184  1  0.76680000  0.85110000  0.99640000  1
  O  O185  1  0.81810000  0.81810000  0.81810000  1
  O  O186  1  0.76930000  0.81060000  0.65210000  1
  O  O187  1  0.65210000  0.76930000  0.81060000  1
  O  O188  1  0.99640000  0.76680000  0.85110000  1
  O  O189  1  0.86860000  0.76510000  0.99470000  1
  O  O190  1  0.28970000  0.71780000  0.10070000  1
  O  O191  1  0.89930000  0.71030000  0.28220000  1
  O  O192  1  0.81060000  0.65210000  0.76930000  1
  O  O193  1  0.08700000  0.65200000  0.07100000  1
  O  O194  1  0.88100000  0.64110000  0.87190000  1
  O  O195  1  0.11900000  0.35890000  0.12810000  1
  O  O196  1  0.91300000  0.34800000  0.92900000  1
  O  O197  1  0.18940000  0.34790000  0.23070000  1
  O  O198  1  0.10070000  0.28970000  0.71780000  1
  O  O199  1  0.71030000  0.28220000  0.89930000  1
  O  O200  1  0.13140000  0.23490000  0.00530000  1
  O  O201  1  0.00360000  0.23320000  0.14890000  1
  O  O202  1  0.34790000  0.23070000  0.18940000  1
  O  O203  1  0.23070000  0.18940000  0.34790000  1
  O  O204  1  0.18190000  0.18190000  0.18190000  1
  O  O205  1  0.23320000  0.14890000  0.00360000  1
  O  O206  1  0.00530000  0.13140000  0.23490000  1
  O  O207  1  0.35890000  0.12810000  0.11900000  1
  O  O208  1  0.12810000  0.11900000  0.35890000  1
  O  O209  1  0.71780000  0.10070000  0.28970000  1
  O  O210  1  0.07100000  0.08700000  0.65200000  1
  O  O211  1  0.65200000  0.07100000  0.08700000  1
  O  O212  1  0.23490000  0.00530000  0.13140000  1
  O  O213  1  0.14890000  0.00360000  0.23320000  1
