# generated using pymatgen
data_TbH12(C4O)6
_symmetry_space_group_name_H-M   'P 1'
_cell_length_a   10.46800000
_cell_length_b   11.35600000
_cell_length_c   13.08900000
_cell_angle_alpha   107.53900000
_cell_angle_beta   90.08600000
_cell_angle_gamma   92.35600000
_symmetry_Int_Tables_number   1
_chemical_formula_structural   TbH12(C4O)6
_chemical_formula_sum   'Tb2 H24 C48 O12'
_cell_volume   1482.20517572
_cell_formula_units_Z   2
loop_
 _symmetry_equiv_pos_site_id
 _symmetry_equiv_pos_as_xyz
  1  'x, y, z'
loop_
 _atom_site_type_symbol
 _atom_site_label
 _atom_site_symmetry_multiplicity
 _atom_site_fract_x
 _atom_site_fract_y
 _atom_site_fract_z
 _atom_site_occupancy
  Tb  Tb0  1  0.48066000  0.45339000  0.33946000  1
  Tb  Tb1  1  0.51934000  0.54661000  0.66054000  1
  H  H2  1  0.06820000  0.84250000  0.79240000  1
  H  H3  1  0.08550000  0.10370000  0.57720000  1
  H  H4  1  0.09180000  0.90140000  0.58240000  1
  H  H5  1  0.14420000  0.14790000  0.25810000  1
  H  H6  1  0.19110000  0.68810000  0.69720000  1
  H  H7  1  0.23340000  0.29900000  0.40000000  1
  H  H8  1  0.26200000  0.20420000  0.54080000  1
  H  H9  1  0.27840000  0.80540000  0.55960000  1
  H  H10  1  0.30630000  0.71320000  0.14430000  1
  H  H11  1  0.31450000  0.90040000  0.28480000  1
  H  H12  1  0.38750000  0.70780000  0.98010000  1
  H  H13  1  0.41040000  0.07160000  0.26430000  1
  H  H14  1  0.58960000  0.92840000  0.73570000  1
  H  H15  1  0.61250000  0.29220000  0.01990000  1
  H  H16  1  0.68550000  0.09960000  0.71520000  1
  H  H17  1  0.69370000  0.28680000  0.85570000  1
  H  H18  1  0.72160000  0.19460000  0.44040000  1
  H  H19  1  0.73800000  0.79580000  0.45920000  1
  H  H20  1  0.76660000  0.70100000  0.60000000  1
  H  H21  1  0.80890000  0.31190000  0.30280000  1
  H  H22  1  0.85580000  0.85210000  0.74190000  1
  H  H23  1  0.90820000  0.09860000  0.41760000  1
  H  H24  1  0.91450000  0.89630000  0.42280000  1
  H  H25  1  0.93180000  0.15750000  0.20760000  1
  C  C26  1  0.03300000  0.78160000  0.73340000  1
  C  C27  1  0.05360000  0.59210000  0.58790000  1
  C  C28  1  0.07680000  0.40280000  0.44120000  1
  C  C29  1  0.09560000  0.21300000  0.29630000  1
  C  C30  1  0.10580000  0.68890000  0.67740000  1
  C  C31  1  0.12950000  0.49620000  0.52810000  1
  C  C32  1  0.14830000  0.30310000  0.38110000  1
  C  C33  1  0.16210000  0.06340000  0.56440000  1
  C  C34  1  0.16580000  0.94190000  0.56860000  1
  C  C35  1  0.26710000  0.12310000  0.54230000  1
  C  C36  1  0.26710000  0.49130000  0.56060000  1
  C  C37  1  0.27630000  0.88450000  0.55270000  1
  C  C38  1  0.34270000  0.78460000  0.13360000  1
  C  C39  1  0.34900000  0.89800000  0.21880000  1
  C  C40  1  0.38580000  0.06420000  0.52110000  1
  C  C41  1  0.39140000  0.78220000  0.03520000  1
  C  C42  1  0.39140000  0.93980000  0.52560000  1
  C  C43  1  0.40320000  0.00070000  0.20570000  1
  C  C44  1  0.44770000  0.88990000  0.01420000  1
  C  C45  1  0.45200000  0.00550000  0.10170000  1
  C  C46  1  0.49160000  0.25440000  0.49360000  1
  C  C47  1  0.49380000  0.11990000  0.49330000  1
  C  C48  1  0.49890000  0.23330000  0.17040000  1
  C  C49  1  0.49930000  0.88460000  0.91320000  1
  C  C50  1  0.50070000  0.11540000  0.08680000  1
  C  C51  1  0.50110000  0.76670000  0.82960000  1
  C  C52  1  0.50620000  0.88010000  0.50670000  1
  C  C53  1  0.50840000  0.74560000  0.50640000  1
  C  C54  1  0.54800000  0.99450000  0.89830000  1
  C  C55  1  0.55230000  0.11010000  0.98580000  1
  C  C56  1  0.59680000  0.99930000  0.79430000  1
  C  C57  1  0.60860000  0.06020000  0.47440000  1
  C  C58  1  0.60860000  0.21780000  0.96480000  1
  C  C59  1  0.61420000  0.93580000  0.47890000  1
  C  C60  1  0.65100000  0.10200000  0.78120000  1
  C  C61  1  0.65730000  0.21540000  0.86640000  1
  C  C62  1  0.72370000  0.11550000  0.44730000  1
  C  C63  1  0.73290000  0.50870000  0.43940000  1
  C  C64  1  0.73290000  0.87690000  0.45770000  1
  C  C65  1  0.83420000  0.05810000  0.43140000  1
  C  C66  1  0.83790000  0.93660000  0.43560000  1
  C  C67  1  0.85170000  0.69690000  0.61890000  1
  C  C68  1  0.87050000  0.50380000  0.47190000  1
  C  C69  1  0.89420000  0.31110000  0.32260000  1
  C  C70  1  0.90440000  0.78700000  0.70370000  1
  C  C71  1  0.92320000  0.59720000  0.55880000  1
  C  C72  1  0.94640000  0.40790000  0.41210000  1
  C  C73  1  0.96700000  0.21840000  0.26660000  1
  O  O74  1  0.28850000  0.48310000  0.65200000  1
  O  O75  1  0.35700000  0.50520000  0.50180000  1
  O  O76  1  0.39110000  0.28140000  0.19520000  1
  O  O77  1  0.40180000  0.71720000  0.78280000  1
  O  O78  1  0.47260000  0.27560000  0.40750000  1
  O  O79  1  0.49310000  0.66700000  0.41580000  1
  O  O80  1  0.50690000  0.33300000  0.58420000  1
  O  O81  1  0.52740000  0.72440000  0.59250000  1
  O  O82  1  0.59820000  0.28280000  0.21720000  1
  O  O83  1  0.60890000  0.71860000  0.80480000  1
  O  O84  1  0.64300000  0.49480000  0.49820000  1
  O  O85  1  0.71150000  0.51690000  0.34800000  1
