# generated using pymatgen
data_LaH3W4C7NO15
_symmetry_space_group_name_H-M   'P 1'
_cell_length_a   20.49900000
_cell_length_b   23.55600000
_cell_length_c   29.82300000
_cell_angle_alpha   90.00000000
_cell_angle_beta   90.00000000
_cell_angle_gamma   90.00000000
_symmetry_Int_Tables_number   1
_chemical_formula_structural   LaH3W4C7NO15
_chemical_formula_sum   'La24 H72 W96 C168 N24 O360'
_cell_volume   14400.76454341
_cell_formula_units_Z   24
loop_
 _symmetry_equiv_pos_site_id
 _symmetry_equiv_pos_as_xyz
  1  'x, y, z'
loop_
 _atom_site_type_symbol
 _atom_site_label
 _atom_site_symmetry_multiplicity
 _atom_site_fract_x
 _atom_site_fract_y
 _atom_site_fract_z
 _atom_site_occupancy
  La  La0  1  0.00417000  0.26952000  0.85308000  1
  La  La1  1  0.00417000  0.76952000  0.64692000  1
  La  La2  1  0.09347000  0.47175000  0.31531000  1
  La  La3  1  0.09347000  0.97175000  0.18469000  1
  La  La4  1  0.12053000  0.19411000  0.05053000  1
  La  La5  1  0.12053000  0.69411000  0.44947000  1
  La  La6  1  0.37947000  0.19411000  0.55053000  1
  La  La7  1  0.37947000  0.69411000  0.94947000  1
  La  La8  1  0.40653000  0.47175000  0.81531000  1
  La  La9  1  0.40653000  0.97175000  0.68469000  1
  La  La10  1  0.49583000  0.26952000  0.35308000  1
  La  La11  1  0.49583000  0.76952000  0.14692000  1
  La  La12  1  0.50417000  0.23048000  0.85308000  1
  La  La13  1  0.50417000  0.73048000  0.64692000  1
  La  La14  1  0.59347000  0.02825000  0.31531000  1
  La  La15  1  0.59347000  0.52825000  0.18469000  1
  La  La16  1  0.62053000  0.30589000  0.05053000  1
  La  La17  1  0.62053000  0.80589000  0.44947000  1
  La  La18  1  0.87947000  0.30589000  0.55053000  1
  La  La19  1  0.87947000  0.80589000  0.94947000  1
  La  La20  1  0.90653000  0.02825000  0.81531000  1
  La  La21  1  0.90653000  0.52825000  0.68469000  1
  La  La22  1  0.99583000  0.23048000  0.35308000  1
  La  La23  1  0.99583000  0.73048000  0.14692000  1
  H  H24  1  0.10060000  0.48690000  0.81050000  1
  H  H25  1  0.10060000  0.98690000  0.68950000  1
  H  H26  1  0.10440000  0.15070000  0.73390000  1
  H  H27  1  0.10440000  0.65070000  0.76610000  1
  H  H28  1  0.13280000  0.00810000  0.59000000  1
  H  H29  1  0.13280000  0.50810000  0.91000000  1
  H  H30  1  0.13920000  0.25380000  0.47600000  1
  H  H31  1  0.13920000  0.75380000  0.02400000  1
  H  H32  1  0.14810000  0.07900000  0.68890000  1
  H  H33  1  0.14810000  0.57900000  0.81110000  1
  H  H34  1  0.15190000  0.42610000  0.87060000  1
  H  H35  1  0.15190000  0.92610000  0.62940000  1
  H  H36  1  0.17940000  0.29980000  0.41240000  1
  H  H37  1  0.17940000  0.79980000  0.08760000  1
  H  H38  1  0.21380000  0.28730000  0.89110000  1
  H  H39  1  0.21380000  0.78730000  0.60890000  1
  H  H40  1  0.21560000  0.07530000  0.58220000  1
  H  H41  1  0.21560000  0.57530000  0.91780000  1
  H  H42  1  0.28440000  0.07530000  0.08220000  1
  H  H43  1  0.28440000  0.57530000  0.41780000  1
  H  H44  1  0.28620000  0.28730000  0.39110000  1
  H  H45  1  0.28620000  0.78730000  0.10890000  1
  H  H46  1  0.32060000  0.29980000  0.91240000  1
  H  H47  1  0.32060000  0.79980000  0.58760000  1
  H  H48  1  0.34810000  0.42610000  0.37060000  1
  H  H49  1  0.34810000  0.92610000  0.12940000  1
  H  H50  1  0.35190000  0.07900000  0.18890000  1
  H  H51  1  0.35190000  0.57900000  0.31110000  1
  H  H52  1  0.36080000  0.25380000  0.97600000  1
  H  H53  1  0.36080000  0.75380000  0.52400000  1
  H  H54  1  0.36720000  0.00810000  0.09000000  1
  H  H55  1  0.36720000  0.50810000  0.41000000  1
  H  H56  1  0.39560000  0.15070000  0.23390000  1
  H  H57  1  0.39560000  0.65070000  0.26610000  1
  H  H58  1  0.39940000  0.48690000  0.31050000  1
  H  H59  1  0.39940000  0.98690000  0.18950000  1
  H  H60  1  0.60060000  0.01310000  0.81050000  1
  H  H61  1  0.60060000  0.51310000  0.68950000  1
  H  H62  1  0.60440000  0.34930000  0.73390000  1
  H  H63  1  0.60440000  0.84930000  0.76610000  1
  H  H64  1  0.63280000  0.49190000  0.59000000  1
  H  H65  1  0.63280000  0.99190000  0.91000000  1
  H  H66  1  0.63920000  0.24620000  0.47600000  1
  H  H67  1  0.63920000  0.74620000  0.02400000  1
  H  H68  1  0.64810000  0.42100000  0.68890000  1
  H  H69  1  0.64810000  0.92100000  0.81110000  1
  H  H70  1  0.65190000  0.07390000  0.87060000  1
  H  H71  1  0.65190000  0.57390000  0.62940000  1
  H  H72  1  0.67940000  0.20020000  0.41240000  1
  H  H73  1  0.67940000  0.70020000  0.08760000  1
  H  H74  1  0.71380000  0.21270000  0.89110000  1
  H  H75  1  0.71380000  0.71270000  0.60890000  1
  H  H76  1  0.71560000  0.42470000  0.58220000  1
  H  H77  1  0.71560000  0.92470000  0.91780000  1
  H  H78  1  0.78440000  0.42470000  0.08220000  1
  H  H79  1  0.78440000  0.92470000  0.41780000  1
  H  H80  1  0.78620000  0.21270000  0.39110000  1
  H  H81  1  0.78620000  0.71270000  0.10890000  1
  H  H82  1  0.82060000  0.20020000  0.91240000  1
  H  H83  1  0.82060000  0.70020000  0.58760000  1
  H  H84  1  0.84810000  0.07390000  0.37060000  1
  H  H85  1  0.84810000  0.57390000  0.12940000  1
  H  H86  1  0.85190000  0.42100000  0.18890000  1
  H  H87  1  0.85190000  0.92100000  0.31110000  1
  H  H88  1  0.86080000  0.24620000  0.97600000  1
  H  H89  1  0.86080000  0.74620000  0.52400000  1
  H  H90  1  0.86720000  0.49190000  0.09000000  1
  H  H91  1  0.86720000  0.99190000  0.41000000  1
  H  H92  1  0.89560000  0.34930000  0.23390000  1
  H  H93  1  0.89560000  0.84930000  0.26610000  1
  H  H94  1  0.89940000  0.01310000  0.31050000  1
  H  H95  1  0.89940000  0.51310000  0.18950000  1
  W  W96  1  0.06567000  0.47681000  0.09929000  1
  W  W97  1  0.06567000  0.97681000  0.40072000  1
  W  W98  1  0.09715000  0.00881000  0.86955000  1
  W  W99  1  0.09715000  0.50881000  0.63045000  1
  W  W100  1  0.12979000  0.09696000  0.36749000  1
  W  W101  1  0.12979000  0.59696000  0.13251000  1
  W  W102  1  0.15015000  0.40037000  0.19184000  1
  W  W103  1  0.15015000  0.90037000  0.30816000  1
  W  W104  1  0.15186000  0.05461000  0.47073000  1
  W  W105  1  0.15186000  0.55461000  0.02928000  1
  W  W106  1  0.16184000  0.37055000  0.59156000  1
  W  W107  1  0.16184000  0.87055000  0.90844000  1
  W  W108  1  0.17242000  0.07679000  0.95039000  1
  W  W109  1  0.17242000  0.57679000  0.54961000  1
  W  W110  1  0.18048000  0.36060000  0.07386000  1
  W  W111  1  0.18048000  0.86060000  0.42614000  1
  W  W112  1  0.19306000  0.41945000  0.70793000  1
  W  W113  1  0.19306000  0.91945000  0.79207000  1
  W  W114  1  0.19335000  0.11681000  0.84647000  1
  W  W115  1  0.19335000  0.61681000  0.65353000  1
  W  W116  1  0.20728000  0.02235000  0.27482000  1
  W  W117  1  0.20728000  0.52235000  0.22518000  1
  W  W118  1  0.22974000  0.43833000  0.50668000  1
  W  W119  1  0.22974000  0.93833000  0.99332000  1
  W  W120  1  0.27026000  0.43833000  0.00668000  1
  W  W121  1  0.27026000  0.93833000  0.49332000  1
  W  W122  1  0.29272000  0.02235000  0.77482000  1
  W  W123  1  0.29272000  0.52235000  0.72518000  1
  W  W124  1  0.30665000  0.11681000  0.34647000  1
  W  W125  1  0.30665000  0.61681000  0.15353000  1
  W  W126  1  0.30694000  0.41945000  0.20793000  1
  W  W127  1  0.30694000  0.91945000  0.29207000  1
  W  W128  1  0.31952000  0.36060000  0.57386000  1
  W  W129  1  0.31952000  0.86060000  0.92614000  1
  W  W130  1  0.32758000  0.07679000  0.45039000  1
  W  W131  1  0.32758000  0.57679000  0.04961000  1
  W  W132  1  0.33816000  0.37055000  0.09156000  1
  W  W133  1  0.33816000  0.87055000  0.40844000  1
  W  W134  1  0.34814000  0.05461000  0.97073000  1
  W  W135  1  0.34814000  0.55461000  0.52927000  1
  W  W136  1  0.34985000  0.40037000  0.69184000  1
  W  W137  1  0.34985000  0.90037000  0.80816000  1
  W  W138  1  0.37021000  0.09696000  0.86749000  1
  W  W139  1  0.37021000  0.59696000  0.63251000  1
  W  W140  1  0.40285000  0.00881000  0.36955000  1
  W  W141  1  0.40285000  0.50881000  0.13045000  1
  W  W142  1  0.43433000  0.47681000  0.59929000  1
  W  W143  1  0.43433000  0.97681000  0.90072000  1
  W  W144  1  0.56567000  0.02319000  0.09929000  1
  W  W145  1  0.56567000  0.52319000  0.40072000  1
  W  W146  1  0.59715000  0.49119000  0.86955000  1
  W  W147  1  0.59715000  0.99119000  0.63045000  1
  W  W148  1  0.62979000  0.40304000  0.36749000  1
  W  W149  1  0.62979000  0.90304000  0.13251000  1
  W  W150  1  0.65015000  0.09963000  0.19184000  1
  W  W151  1  0.65015000  0.59963000  0.30816000  1
  W  W152  1  0.65186000  0.44539000  0.47073000  1
  W  W153  1  0.65186000  0.94539000  0.02928000  1
  W  W154  1  0.66184000  0.12945000  0.59156000  1
  W  W155  1  0.66184000  0.62945000  0.90844000  1
  W  W156  1  0.67242000  0.42321000  0.95039000  1
  W  W157  1  0.67242000  0.92321000  0.54961000  1
  W  W158  1  0.68048000  0.13940000  0.07386000  1
  W  W159  1  0.68048000  0.63940000  0.42614000  1
  W  W160  1  0.69306000  0.08056000  0.70793000  1
  W  W161  1  0.69306000  0.58056000  0.79207000  1
  W  W162  1  0.69335000  0.38319000  0.84647000  1
  W  W163  1  0.69335000  0.88319000  0.65353000  1
  W  W164  1  0.70728000  0.47765000  0.27482000  1
  W  W165  1  0.70728000  0.97765000  0.22518000  1
  W  W166  1  0.72974000  0.06167000  0.50668000  1
  W  W167  1  0.72974000  0.56167000  0.99332000  1
  W  W168  1  0.77026000  0.06167000  0.00668000  1
  W  W169  1  0.77026000  0.56167000  0.49332000  1
  W  W170  1  0.79272000  0.47765000  0.77482000  1
  W  W171  1  0.79272000  0.97765000  0.72518000  1
  W  W172  1  0.80665000  0.38319000  0.34647000  1
  W  W173  1  0.80665000  0.88319000  0.15353000  1
  W  W174  1  0.80694000  0.08056000  0.20793000  1
  W  W175  1  0.80694000  0.58056000  0.29207000  1
  W  W176  1  0.81952000  0.13940000  0.57386000  1
  W  W177  1  0.81952000  0.63940000  0.92614000  1
  W  W178  1  0.82758000  0.42321000  0.45039000  1
  W  W179  1  0.82758000  0.92321000  0.04961000  1
  W  W180  1  0.83816000  0.12945000  0.09156000  1
  W  W181  1  0.83816000  0.62945000  0.40844000  1
  W  W182  1  0.84814000  0.44539000  0.97073000  1
  W  W183  1  0.84814000  0.94539000  0.52927000  1
  W  W184  1  0.84985000  0.09963000  0.69184000  1
  W  W185  1  0.84985000  0.59963000  0.80816000  1
  W  W186  1  0.87021000  0.40304000  0.86749000  1
  W  W187  1  0.87021000  0.90304000  0.63251000  1
  W  W188  1  0.90285000  0.49119000  0.36955000  1
  W  W189  1  0.90285000  0.99119000  0.13045000  1
  W  W190  1  0.93433000  0.02319000  0.59929000  1
  W  W191  1  0.93433000  0.52319000  0.90072000  1
  C  C192  1  0.00060000  0.45540000  0.75996000  1
  C  C193  1  0.00060000  0.95540000  0.74004000  1
  C  C194  1  0.00490000  0.14270000  0.79243000  1
  C  C195  1  0.00490000  0.64270000  0.70757000  1
  C  C196  1  0.03130000  0.00990000  0.73388000  1
  C  C197  1  0.03130000  0.50990000  0.76612000  1
  C  C198  1  0.03520000  0.09970000  0.75876000  1
  C  C199  1  0.03520000  0.59970000  0.74124000  1
  C  C200  1  0.08400000  0.01640000  0.70682000  1
  C  C201  1  0.08400000  0.51640000  0.79318000  1
  C  C202  1  0.08690000  0.11430000  0.73350000  1
  C  C203  1  0.08690000  0.61430000  0.76650000  1
  C  C204  1  0.11210000  0.07160000  0.70700000  1
  C  C205  1  0.11210000  0.57160000  0.79300000  1
  C  C206  1  0.11340000  0.24890000  0.94416000  1
  C  C207  1  0.11340000  0.74890000  0.55584000  1
  C  C208  1  0.15880000  0.07090000  0.11586000  1
  C  C209  1  0.15880000  0.57090000  0.38414000  1
  C  C210  1  0.17340000  0.00200000  0.60310000  1
  C  C211  1  0.17340000  0.50200000  0.89690000  1
  C  C212  1  0.18360000  0.25630000  0.47020000  1
  C  C213  1  0.18360000  0.75630000  0.02980000  1
  C  C214  1  0.18460000  0.45330000  0.87332000  1
  C  C215  1  0.18460000  0.95330000  0.62668000  1
  C  C216  1  0.18650000  0.25270000  0.95232000  1
  C  C217  1  0.18650000  0.75270000  0.54768000  1
  C  C218  1  0.20780000  0.28020000  0.43110000  1
  C  C219  1  0.20780000  0.78020000  0.06890000  1
  C  C220  1  0.21010000  0.21310000  0.54200000  1
  C  C221  1  0.21010000  0.71310000  0.95800000  1
  C  C222  1  0.21820000  0.03150000  0.12000000  1
  C  C223  1  0.21820000  0.53150000  0.38000000  1
  C  C224  1  0.22220000  0.04230000  0.59868000  1
  C  C225  1  0.22220000  0.54230000  0.90132000  1
  C  C226  1  0.22880000  0.27590000  0.91910000  1
  C  C227  1  0.22880000  0.77590000  0.58090000  1
  C  C228  1  0.22970000  0.23660000  0.49944000  1
  C  C229  1  0.22970000  0.73660000  0.00056000  1
  C  C230  1  0.23210000  0.39260000  0.32953000  1
  C  C231  1  0.23210000  0.89260000  0.17047000  1
  C  C232  1  0.24580000  0.44460000  0.85319000  1
  C  C233  1  0.24580000  0.94460000  0.64681000  1
  C  C234  1  0.25420000  0.44460000  0.35319000  1
  C  C235  1  0.25420000  0.94460000  0.14681000  1
  C  C236  1  0.26790000  0.39260000  0.82953000  1
  C  C237  1  0.26790000  0.89260000  0.67047000  1
  C  C238  1  0.27030000  0.23660000  0.99944000  1
  C  C239  1  0.27030000  0.73660000  0.50056000  1
  C  C240  1  0.27120000  0.27590000  0.41910000  1
  C  C241  1  0.27120000  0.77590000  0.08090000  1
  C  C242  1  0.27780000  0.04230000  0.09868000  1
  C  C243  1  0.27780000  0.54230000  0.40132000  1
  C  C244  1  0.28180000  0.03150000  0.62000000  1
  C  C245  1  0.28180000  0.53150000  0.88000000  1
  C  C246  1  0.28990000  0.21310000  0.04200000  1
  C  C247  1  0.28990000  0.71310000  0.45800000  1
  C  C248  1  0.29220000  0.28020000  0.93110000  1
  C  C249  1  0.29220000  0.78020000  0.56890000  1
  C  C250  1  0.31350000  0.25270000  0.45232000  1
  C  C251  1  0.31350000  0.75270000  0.04768000  1
  C  C252  1  0.31540000  0.45330000  0.37332000  1
  C  C253  1  0.31540000  0.95330000  0.12668000  1
  C  C254  1  0.31640000  0.25630000  0.97020000  1
  C  C255  1  0.31640000  0.75630000  0.52980000  1
  C  C256  1  0.32660000  0.00200000  0.10310000  1
  C  C257  1  0.32660000  0.50200000  0.39690000  1
  C  C258  1  0.34120000  0.07090000  0.61586000  1
  C  C259  1  0.34120000  0.57090000  0.88414000  1
  C  C260  1  0.38660000  0.24890000  0.44416000  1
  C  C261  1  0.38660000  0.74890000  0.05584000  1
  C  C262  1  0.38790000  0.07160000  0.20700000  1
  C  C263  1  0.38790000  0.57160000  0.29300000  1
  C  C264  1  0.41310000  0.11430000  0.23350000  1
  C  C265  1  0.41310000  0.61430000  0.26650000  1
  C  C266  1  0.41600000  0.01640000  0.20682000  1
  C  C267  1  0.41600000  0.51640000  0.29318000  1
  C  C268  1  0.46480000  0.09970000  0.25876000  1
  C  C269  1  0.46480000  0.59970000  0.24124000  1
  C  C270  1  0.46870000  0.00990000  0.23388000  1
  C  C271  1  0.46870000  0.50990000  0.26612000  1
  C  C272  1  0.49510000  0.14270000  0.29243000  1
  C  C273  1  0.49510000  0.64270000  0.20757000  1
  C  C274  1  0.49940000  0.45540000  0.25996000  1
  C  C275  1  0.49940000  0.95540000  0.24004000  1
  C  C276  1  0.50060000  0.04460000  0.75996000  1
  C  C277  1  0.50060000  0.54460000  0.74004000  1
  C  C278  1  0.50490000  0.35730000  0.79243000  1
  C  C279  1  0.50490000  0.85730000  0.70757000  1
  C  C280  1  0.53130000  0.49010000  0.73388000  1
  C  C281  1  0.53130000  0.99010000  0.76612000  1
  C  C282  1  0.53520000  0.40030000  0.75876000  1
  C  C283  1  0.53520000  0.90030000  0.74124000  1
  C  C284  1  0.58400000  0.48360000  0.70682000  1
  C  C285  1  0.58400000  0.98360000  0.79318000  1
  C  C286  1  0.58690000  0.38570000  0.73350000  1
  C  C287  1  0.58690000  0.88570000  0.76650000  1
  C  C288  1  0.61210000  0.42840000  0.70700000  1
  C  C289  1  0.61210000  0.92840000  0.79300000  1
  C  C290  1  0.61340000  0.25110000  0.94416000  1
  C  C291  1  0.61340000  0.75110000  0.55584000  1
  C  C292  1  0.65880000  0.42910000  0.11586000  1
  C  C293  1  0.65880000  0.92910000  0.38414000  1
  C  C294  1  0.67340000  0.49800000  0.60310000  1
  C  C295  1  0.67340000  0.99800000  0.89690000  1
  C  C296  1  0.68360000  0.24370000  0.47020000  1
  C  C297  1  0.68360000  0.74370000  0.02980000  1
  C  C298  1  0.68460000  0.04670000  0.87332000  1
  C  C299  1  0.68460000  0.54670000  0.62668000  1
  C  C300  1  0.68650000  0.24730000  0.95232000  1
  C  C301  1  0.68650000  0.74730000  0.54768000  1
  C  C302  1  0.70780000  0.21980000  0.43110000  1
  C  C303  1  0.70780000  0.71980000  0.06890000  1
  C  C304  1  0.71010000  0.28690000  0.54200000  1
  C  C305  1  0.71010000  0.78690000  0.95800000  1
  C  C306  1  0.71820000  0.46850000  0.12000000  1
  C  C307  1  0.71820000  0.96850000  0.38000000  1
  C  C308  1  0.72220000  0.45770000  0.59868000  1
  C  C309  1  0.72220000  0.95770000  0.90132000  1
  C  C310  1  0.72880000  0.22410000  0.91910000  1
  C  C311  1  0.72880000  0.72410000  0.58090000  1
  C  C312  1  0.72970000  0.26340000  0.49944000  1
  C  C313  1  0.72970000  0.76340000  0.00056000  1
  C  C314  1  0.73210000  0.10740000  0.32953000  1
  C  C315  1  0.73210000  0.60740000  0.17047000  1
  C  C316  1  0.74580000  0.05540000  0.85319000  1
  C  C317  1  0.74580000  0.55540000  0.64681000  1
  C  C318  1  0.75420000  0.05540000  0.35319000  1
  C  C319  1  0.75420000  0.55540000  0.14681000  1
  C  C320  1  0.76790000  0.10740000  0.82953000  1
  C  C321  1  0.76790000  0.60740000  0.67047000  1
  C  C322  1  0.77030000  0.26340000  0.99944000  1
  C  C323  1  0.77030000  0.76340000  0.50056000  1
  C  C324  1  0.77120000  0.22410000  0.41910000  1
  C  C325  1  0.77120000  0.72410000  0.08090000  1
  C  C326  1  0.77780000  0.45770000  0.09868000  1
  C  C327  1  0.77780000  0.95770000  0.40132000  1
  C  C328  1  0.78180000  0.46850000  0.62000000  1
  C  C329  1  0.78180000  0.96850000  0.88000000  1
  C  C330  1  0.78990000  0.28690000  0.04200000  1
  C  C331  1  0.78990000  0.78690000  0.45800000  1
  C  C332  1  0.79220000  0.21980000  0.93110000  1
  C  C333  1  0.79220000  0.71980000  0.56890000  1
  C  C334  1  0.81350000  0.24730000  0.45232000  1
  C  C335  1  0.81350000  0.74730000  0.04768000  1
  C  C336  1  0.81540000  0.04670000  0.37332000  1
  C  C337  1  0.81540000  0.54670000  0.12668000  1
  C  C338  1  0.81640000  0.24370000  0.97020000  1
  C  C339  1  0.81640000  0.74370000  0.52980000  1
  C  C340  1  0.82660000  0.49800000  0.10310000  1
  C  C341  1  0.82660000  0.99800000  0.39690000  1
  C  C342  1  0.84120000  0.42910000  0.61586000  1
  C  C343  1  0.84120000  0.92910000  0.88414000  1
  C  C344  1  0.88660000  0.25110000  0.44416000  1
  C  C345  1  0.88660000  0.75110000  0.05584000  1
  C  C346  1  0.88790000  0.42840000  0.20700000  1
  C  C347  1  0.88790000  0.92840000  0.29300000  1
  C  C348  1  0.91310000  0.38570000  0.23350000  1
  C  C349  1  0.91310000  0.88570000  0.26650000  1
  C  C350  1  0.91600000  0.48360000  0.20682000  1
  C  C351  1  0.91600000  0.98360000  0.29318000  1
  C  C352  1  0.96480000  0.40030000  0.25876000  1
  C  C353  1  0.96480000  0.90030000  0.24124000  1
  C  C354  1  0.96870000  0.49010000  0.23388000  1
  C  C355  1  0.96870000  0.99010000  0.26612000  1
  C  C356  1  0.99510000  0.35730000  0.29243000  1
  C  C357  1  0.99510000  0.85730000  0.20757000  1
  C  C358  1  0.99940000  0.04460000  0.25996000  1
  C  C359  1  0.99940000  0.54460000  0.24004000  1
  N  N360  1  0.00698000  0.05120000  0.76043000  1
  N  N361  1  0.00698000  0.55120000  0.73957000  1
  N  N362  1  0.20620000  0.48514000  0.35635000  1
  N  N363  1  0.20620000  0.98514000  0.14365000  1
  N  N364  1  0.20840000  0.23390000  0.99175000  1
  N  N365  1  0.20840000  0.73390000  0.50825000  1
  N  N366  1  0.29160000  0.23390000  0.49175000  1
  N  N367  1  0.29160000  0.73390000  0.00825000  1
  N  N368  1  0.29380000  0.48514000  0.85635000  1
  N  N369  1  0.29380000  0.98514000  0.64365000  1
  N  N370  1  0.49302000  0.05120000  0.26043000  1
  N  N371  1  0.49302000  0.55120000  0.23957000  1
  N  N372  1  0.50698000  0.44880000  0.76043000  1
  N  N373  1  0.50698000  0.94880000  0.73957000  1
  N  N374  1  0.70620000  0.01486000  0.35635000  1
  N  N375  1  0.70620000  0.51486000  0.14365000  1
  N  N376  1  0.70840000  0.26610000  0.99175000  1
  N  N377  1  0.70840000  0.76610000  0.50825000  1
  N  N378  1  0.79160000  0.26610000  0.49175000  1
  N  N379  1  0.79160000  0.76610000  0.00825000  1
  N  N380  1  0.79380000  0.01486000  0.85635000  1
  N  N381  1  0.79380000  0.51486000  0.64365000  1
  N  N382  1  0.99302000  0.44880000  0.26043000  1
  N  N383  1  0.99302000  0.94880000  0.23957000  1
  O  O384  1  0.01492000  0.00580000  0.85465000  1
  O  O385  1  0.01492000  0.50580000  0.64535000  1
  O  O386  1  0.02052000  0.41335000  0.78641000  1
  O  O387  1  0.02052000  0.91335000  0.71359000  1
  O  O388  1  0.02840000  0.19190000  0.79545000  1
  O  O389  1  0.02840000  0.69190000  0.70455000  1
  O  O390  1  0.04100000  0.05412000  0.22936000  1
  O  O391  1  0.04100000  0.55412000  0.27064000  1
  O  O392  1  0.04240000  0.37575000  0.31529000  1
  O  O393  1  0.04240000  0.87575000  0.18471000  1
  O  O394  1  0.04899000  0.04828000  0.37455000  1
  O  O395  1  0.04899000  0.54828000  0.12545000  1
  O  O396  1  0.07454000  0.01327000  0.46011000  1
  O  O397  1  0.07454000  0.51327000  0.03989000  1
  O  O398  1  0.07970000  0.23080000  0.97509000  1
  O  O399  1  0.07970000  0.73080000  0.52491000  1
  O  O400  1  0.08421000  0.15560000  0.34923000  1
  O  O401  1  0.08421000  0.65560000  0.15077000  1
  O  O402  1  0.08936000  0.05299000  0.92340000  1
  O  O403  1  0.08936000  0.55299000  0.57660000  1
  O  O404  1  0.09138000  0.44241000  0.15336000  1
  O  O405  1  0.09138000  0.94241000  0.34664000  1
  O  O406  1  0.09370000  0.26350000  0.90680000  1
  O  O407  1  0.09370000  0.76350000  0.59320000  1
  O  O408  1  0.10839000  0.05776000  0.13704000  1
  O  O409  1  0.10839000  0.55776000  0.36296000  1
  O  O410  1  0.11165000  0.44128000  0.60088000  1
  O  O411  1  0.11165000  0.94128000  0.89912000  1
  O  O412  1  0.11280000  0.08264000  0.83743000  1
  O  O413  1  0.11280000  0.58264000  0.66257000  1
  O  O414  1  0.11486000  0.41319000  0.07020000  1
  O  O415  1  0.11486000  0.91319000  0.42980000  1
  O  O416  1  0.12180000  0.11359000  0.43075000  1
  O  O417  1  0.12180000  0.61359000  0.06925000  1
  O  O418  1  0.13595000  0.47424000  0.68256000  1
  O  O419  1  0.13595000  0.97424000  0.81744000  1
  O  O420  1  0.13880000  0.29875000  0.06024000  1
  O  O421  1  0.13880000  0.79875000  0.43976000  1
  O  O422  1  0.13914000  0.11638000  0.99318000  1
  O  O423  1  0.13914000  0.61638000  0.50682000  1
  O  O424  1  0.14232000  0.45861000  0.23635000  1
  O  O425  1  0.14232000  0.95861000  0.26365000  1
  O  O426  1  0.14406000  0.05513000  0.31294000  1
  O  O427  1  0.14406000  0.55513000  0.18706000  1
  O  O428  1  0.14730000  0.21010000  0.55029000  1
  O  O429  1  0.14730000  0.71010000  0.94971000  1
  O  O430  1  0.16083000  0.38884000  0.52844000  1
  O  O431  1  0.16083000  0.88884000  0.97156000  1
  O  O432  1  0.16241000  0.02126000  0.40013000  1
  O  O433  1  0.16241000  0.52126000  0.09987000  1
  O  O434  1  0.16410000  0.11120000  0.09043000  1
  O  O435  1  0.16410000  0.61120000  0.40957000  1
  O  O436  1  0.17225000  0.13677000  0.90639000  1
  O  O437  1  0.17225000  0.63677000  0.59361000  1
  O  O438  1  0.17371000  0.36064000  0.13611000  1
  O  O439  1  0.17371000  0.86064000  0.36389000  1
  O  O440  1  0.17659000  0.38960000  0.31573000  1
  O  O441  1  0.17659000  0.88960000  0.18427000  1
  O  O442  1  0.17799000  0.00330000  0.97874000  1
  O  O443  1  0.17799000  0.50330000  0.52126000  1
  O  O444  1  0.17924000  0.37450000  0.65371000  1
  O  O445  1  0.17924000  0.87450000  0.84629000  1
  O  O446  1  0.18294000  0.04974000  0.22296000  1
  O  O447  1  0.18294000  0.54974000  0.27704000  1
  O  O448  1  0.19771000  0.03385000  0.88717000  1
  O  O449  1  0.19771000  0.53385000  0.61283000  1
  O  O450  1  0.19785000  0.49023000  0.00740000  1
  O  O451  1  0.19785000  0.99023000  0.49260000  1
  O  O452  1  0.20916000  0.37830000  0.01299000  1
  O  O453  1  0.20916000  0.87830000  0.48701000  1
  O  O454  1  0.21462000  0.12344000  0.36354000  1
  O  O455  1  0.21462000  0.62344000  0.13646000  1
  O  O456  1  0.22380000  0.46402000  0.17326000  1
  O  O457  1  0.22380000  0.96402000  0.32674000  1
  O  O458  1  0.22454000  0.35344000  0.82600000  1
  O  O459  1  0.22454000  0.85344000  0.67400000  1
  O  O460  1  0.22500000  0.47289000  0.75061000  1
  O  O461  1  0.22500000  0.97289000  0.74939000  1
  O  O462  1  0.22969000  0.37198000  0.21793000  1
  O  O463  1  0.22969000  0.87198000  0.28207000  1
  O  O464  1  0.23213000  0.07332000  0.79730000  1
  O  O465  1  0.23213000  0.57332000  0.70270000  1
  O  O466  1  0.23273000  0.32293000  0.58210000  1
  O  O467  1  0.23273000  0.82293000  0.91790000  1
  O  O468  1  0.23906000  0.08705000  0.46134000  1
  O  O469  1  0.23906000  0.58705000  0.03866000  1
  O  O470  1  0.24727000  0.42893000  0.58083000  1
  O  O471  1  0.24727000  0.92893000  0.91917000  1
  O  O472  1  0.24770000  0.19510000  0.07011000  1
  O  O473  1  0.24770000  0.69510000  0.42989000  1
  O  O474  1  0.25230000  0.19510000  0.57011000  1
  O  O475  1  0.25230000  0.69510000  0.92989000  1
  O  O476  1  0.25273000  0.42893000  0.08083000  1
  O  O477  1  0.25273000  0.92893000  0.41917000  1
  O  O478  1  0.26094000  0.08705000  0.96134000  1
  O  O479  1  0.26094000  0.58705000  0.53866000  1
  O  O480  1  0.26727000  0.32293000  0.08210000  1
  O  O481  1  0.26727000  0.82293000  0.41790000  1
  O  O482  1  0.26787000  0.07332000  0.29730000  1
  O  O483  1  0.26787000  0.57332000  0.20270000  1
  O  O484  1  0.27031000  0.37198000  0.71793000  1
  O  O485  1  0.27031000  0.87198000  0.78207000  1
  O  O486  1  0.27500000  0.47289000  0.25061000  1
  O  O487  1  0.27500000  0.97289000  0.24939000  1
  O  O488  1  0.27546000  0.35344000  0.32600000  1
  O  O489  1  0.27546000  0.85344000  0.17400000  1
  O  O490  1  0.27620000  0.46402000  0.67326000  1
  O  O491  1  0.27620000  0.96402000  0.82674000  1
  O  O492  1  0.28538000  0.12344000  0.86354000  1
  O  O493  1  0.28538000  0.62344000  0.63646000  1
  O  O494  1  0.29084000  0.37830000  0.51299000  1
  O  O495  1  0.29084000  0.87830000  0.98701000  1
  O  O496  1  0.30215000  0.49023000  0.50740000  1
  O  O497  1  0.30215000  0.99023000  0.99260000  1
  O  O498  1  0.30229000  0.03385000  0.38717000  1
  O  O499  1  0.30229000  0.53385000  0.11283000  1
  O  O500  1  0.31706000  0.04974000  0.72296000  1
  O  O501  1  0.31706000  0.54974000  0.77704000  1
  O  O502  1  0.32076000  0.37450000  0.15371000  1
  O  O503  1  0.32076000  0.87450000  0.34629000  1
  O  O504  1  0.32201000  0.00330000  0.47874000  1
  O  O505  1  0.32201000  0.50330000  0.02126000  1
  O  O506  1  0.32341000  0.38960000  0.81573000  1
  O  O507  1  0.32341000  0.88960000  0.68427000  1
  O  O508  1  0.32629000  0.36064000  0.63611000  1
  O  O509  1  0.32629000  0.86064000  0.86389000  1
  O  O510  1  0.32775000  0.13677000  0.40639000  1
  O  O511  1  0.32775000  0.63677000  0.09361000  1
  O  O512  1  0.33590000  0.11120000  0.59043000  1
  O  O513  1  0.33590000  0.61120000  0.90957000  1
  O  O514  1  0.33759000  0.02126000  0.90013000  1
  O  O515  1  0.33759000  0.52126000  0.59987000  1
  O  O516  1  0.33917000  0.38884000  0.02844000  1
  O  O517  1  0.33917000  0.88884000  0.47156000  1
  O  O518  1  0.35270000  0.21010000  0.05029000  1
  O  O519  1  0.35270000  0.71010000  0.44971000  1
  O  O520  1  0.35594000  0.05513000  0.81294000  1
  O  O521  1  0.35594000  0.55513000  0.68706000  1
  O  O522  1  0.35768000  0.45861000  0.73635000  1
  O  O523  1  0.35768000  0.95861000  0.76365000  1
  O  O524  1  0.36086000  0.11638000  0.49318000  1
  O  O525  1  0.36086000  0.61638000  0.00682000  1
  O  O526  1  0.36120000  0.29875000  0.56024000  1
  O  O527  1  0.36120000  0.79875000  0.93976000  1
  O  O528  1  0.36405000  0.47424000  0.18256000  1
  O  O529  1  0.36405000  0.97424000  0.31744000  1
  O  O530  1  0.37820000  0.11359000  0.93075000  1
  O  O531  1  0.37820000  0.61359000  0.56925000  1
  O  O532  1  0.38514000  0.41319000  0.57020000  1
  O  O533  1  0.38514000  0.91319000  0.92980000  1
  O  O534  1  0.38720000  0.08264000  0.33743000  1
  O  O535  1  0.38720000  0.58264000  0.16257000  1
  O  O536  1  0.38835000  0.44128000  0.10088000  1
  O  O537  1  0.38835000  0.94128000  0.39912000  1
  O  O538  1  0.39161000  0.05776000  0.63704000  1
  O  O539  1  0.39161000  0.55776000  0.86296000  1
  O  O540  1  0.40630000  0.26350000  0.40680000  1
  O  O541  1  0.40630000  0.76350000  0.09320000  1
  O  O542  1  0.40862000  0.44241000  0.65336000  1
  O  O543  1  0.40862000  0.94241000  0.84664000  1
  O  O544  1  0.41064000  0.05299000  0.42340000  1
  O  O545  1  0.41064000  0.55299000  0.07660000  1
  O  O546  1  0.41579000  0.15560000  0.84923000  1
  O  O547  1  0.41579000  0.65560000  0.65077000  1
  O  O548  1  0.42030000  0.23080000  0.47509000  1
  O  O549  1  0.42030000  0.73080000  0.02491000  1
  O  O550  1  0.42546000  0.01327000  0.96011000  1
  O  O551  1  0.42546000  0.51327000  0.53989000  1
  O  O552  1  0.45101000  0.04828000  0.87455000  1
  O  O553  1  0.45101000  0.54828000  0.62545000  1
  O  O554  1  0.45760000  0.37575000  0.81529000  1
  O  O555  1  0.45760000  0.87575000  0.68471000  1
  O  O556  1  0.45900000  0.05412000  0.72936000  1
  O  O557  1  0.45900000  0.55412000  0.77064000  1
  O  O558  1  0.47160000  0.19190000  0.29545000  1
  O  O559  1  0.47160000  0.69190000  0.20455000  1
  O  O560  1  0.47948000  0.41335000  0.28641000  1
  O  O561  1  0.47948000  0.91335000  0.21359000  1
  O  O562  1  0.48508000  0.00580000  0.35465000  1
  O  O563  1  0.48508000  0.50580000  0.14535000  1
  O  O564  1  0.51492000  0.49420000  0.85465000  1
  O  O565  1  0.51492000  0.99420000  0.64535000  1
  O  O566  1  0.52052000  0.08665000  0.78641000  1
  O  O567  1  0.52052000  0.58665000  0.71359000  1
  O  O568  1  0.52840000  0.30810000  0.79545000  1
  O  O569  1  0.52840000  0.80810000  0.70455000  1
  O  O570  1  0.54100000  0.44588000  0.22936000  1
  O  O571  1  0.54100000  0.94588000  0.27064000  1
  O  O572  1  0.54240000  0.12425000  0.31529000  1
  O  O573  1  0.54240000  0.62425000  0.18471000  1
  O  O574  1  0.54899000  0.45172000  0.37455000  1
  O  O575  1  0.54899000  0.95172000  0.12545000  1
  O  O576  1  0.57454000  0.48673000  0.46011000  1
  O  O577  1  0.57454000  0.98673000  0.03989000  1
  O  O578  1  0.57970000  0.26920000  0.97509000  1
  O  O579  1  0.57970000  0.76920000  0.52491000  1
  O  O580  1  0.58421000  0.34440000  0.34923000  1
  O  O581  1  0.58421000  0.84440000  0.15077000  1
  O  O582  1  0.58936000  0.44701000  0.92340000  1
  O  O583  1  0.58936000  0.94701000  0.57660000  1
  O  O584  1  0.59138000  0.05759000  0.15336000  1
  O  O585  1  0.59138000  0.55759000  0.34664000  1
  O  O586  1  0.59370000  0.23650000  0.90680000  1
  O  O587  1  0.59370000  0.73650000  0.59320000  1
  O  O588  1  0.60839000  0.44224000  0.13704000  1
  O  O589  1  0.60839000  0.94224000  0.36296000  1
  O  O590  1  0.61165000  0.05872000  0.60088000  1
  O  O591  1  0.61165000  0.55872000  0.89912000  1
  O  O592  1  0.61280000  0.41736000  0.83743000  1
  O  O593  1  0.61280000  0.91736000  0.66257000  1
  O  O594  1  0.61486000  0.08681000  0.07020000  1
  O  O595  1  0.61486000  0.58681000  0.42980000  1
  O  O596  1  0.62180000  0.38641000  0.43075000  1
  O  O597  1  0.62180000  0.88641000  0.06925000  1
  O  O598  1  0.63595000  0.02576000  0.68256000  1
  O  O599  1  0.63595000  0.52576000  0.81744000  1
  O  O600  1  0.63880000  0.20125000  0.06024000  1
  O  O601  1  0.63880000  0.70125000  0.43976000  1
  O  O602  1  0.63914000  0.38362000  0.99318000  1
  O  O603  1  0.63914000  0.88362000  0.50682000  1
  O  O604  1  0.64232000  0.04139000  0.23635000  1
  O  O605  1  0.64232000  0.54139000  0.26365000  1
  O  O606  1  0.64406000  0.44487000  0.31294000  1
  O  O607  1  0.64406000  0.94487000  0.18706000  1
  O  O608  1  0.64730000  0.28990000  0.55029000  1
  O  O609  1  0.64730000  0.78990000  0.94971000  1
  O  O610  1  0.66083000  0.11116000  0.52844000  1
  O  O611  1  0.66083000  0.61116000  0.97156000  1
  O  O612  1  0.66241000  0.47874000  0.40013000  1
  O  O613  1  0.66241000  0.97874000  0.09987000  1
  O  O614  1  0.66410000  0.38880000  0.09043000  1
  O  O615  1  0.66410000  0.88880000  0.40957000  1
  O  O616  1  0.67225000  0.36323000  0.90639000  1
  O  O617  1  0.67225000  0.86323000  0.59361000  1
  O  O618  1  0.67371000  0.13936000  0.13611000  1
  O  O619  1  0.67371000  0.63936000  0.36389000  1
  O  O620  1  0.67659000  0.11040000  0.31573000  1
  O  O621  1  0.67659000  0.61040000  0.18427000  1
  O  O622  1  0.67799000  0.49670000  0.97874000  1
  O  O623  1  0.67799000  0.99670000  0.52126000  1
  O  O624  1  0.67924000  0.12550000  0.65371000  1
  O  O625  1  0.67924000  0.62550000  0.84629000  1
  O  O626  1  0.68294000  0.45026000  0.22296000  1
  O  O627  1  0.68294000  0.95026000  0.27704000  1
  O  O628  1  0.69771000  0.46615000  0.88717000  1
  O  O629  1  0.69771000  0.96615000  0.61283000  1
  O  O630  1  0.69785000  0.00977000  0.00740000  1
  O  O631  1  0.69785000  0.50977000  0.49260000  1
  O  O632  1  0.70916000  0.12170000  0.01299000  1
  O  O633  1  0.70916000  0.62170000  0.48701000  1
  O  O634  1  0.71462000  0.37656000  0.36354000  1
  O  O635  1  0.71462000  0.87656000  0.13646000  1
  O  O636  1  0.72380000  0.03598000  0.17326000  1
  O  O637  1  0.72380000  0.53598000  0.32674000  1
  O  O638  1  0.72454000  0.14656000  0.82600000  1
  O  O639  1  0.72454000  0.64656000  0.67400000  1
  O  O640  1  0.72500000  0.02711000  0.75061000  1
  O  O641  1  0.72500000  0.52711000  0.74939000  1
  O  O642  1  0.72969000  0.12802000  0.21793000  1
  O  O643  1  0.72969000  0.62802000  0.28207000  1
  O  O644  1  0.73213000  0.42668000  0.79730000  1
  O  O645  1  0.73213000  0.92668000  0.70270000  1
  O  O646  1  0.73273000  0.17707000  0.58210000  1
  O  O647  1  0.73273000  0.67707000  0.91790000  1
  O  O648  1  0.73906000  0.41295000  0.46134000  1
  O  O649  1  0.73906000  0.91295000  0.03866000  1
  O  O650  1  0.74727000  0.07107000  0.58083000  1
  O  O651  1  0.74727000  0.57107000  0.91917000  1
  O  O652  1  0.74770000  0.30490000  0.07011000  1
  O  O653  1  0.74770000  0.80490000  0.42989000  1
  O  O654  1  0.75230000  0.30490000  0.57011000  1
  O  O655  1  0.75230000  0.80490000  0.92989000  1
  O  O656  1  0.75273000  0.07107000  0.08083000  1
  O  O657  1  0.75273000  0.57107000  0.41917000  1
  O  O658  1  0.76094000  0.41295000  0.96134000  1
  O  O659  1  0.76094000  0.91295000  0.53866000  1
  O  O660  1  0.76727000  0.17707000  0.08210000  1
  O  O661  1  0.76727000  0.67707000  0.41790000  1
  O  O662  1  0.76787000  0.42668000  0.29730000  1
  O  O663  1  0.76787000  0.92668000  0.20270000  1
  O  O664  1  0.77031000  0.12802000  0.71793000  1
  O  O665  1  0.77031000  0.62802000  0.78207000  1
  O  O666  1  0.77500000  0.02711000  0.25061000  1
  O  O667  1  0.77500000  0.52711000  0.24939000  1
  O  O668  1  0.77546000  0.14656000  0.32600000  1
  O  O669  1  0.77546000  0.64656000  0.17400000  1
  O  O670  1  0.77620000  0.03598000  0.67326000  1
  O  O671  1  0.77620000  0.53598000  0.82674000  1
  O  O672  1  0.78538000  0.37656000  0.86354000  1
  O  O673  1  0.78538000  0.87656000  0.63646000  1
  O  O674  1  0.79084000  0.12170000  0.51299000  1
  O  O675  1  0.79084000  0.62170000  0.98701000  1
  O  O676  1  0.80215000  0.00977000  0.50740000  1
  O  O677  1  0.80215000  0.50977000  0.99260000  1
  O  O678  1  0.80229000  0.46615000  0.38717000  1
  O  O679  1  0.80229000  0.96615000  0.11283000  1
  O  O680  1  0.81706000  0.45026000  0.72296000  1
  O  O681  1  0.81706000  0.95026000  0.77704000  1
  O  O682  1  0.82076000  0.12550000  0.15371000  1
  O  O683  1  0.82076000  0.62550000  0.34629000  1
  O  O684  1  0.82201000  0.49670000  0.47874000  1
  O  O685  1  0.82201000  0.99670000  0.02126000  1
  O  O686  1  0.82341000  0.11040000  0.81573000  1
  O  O687  1  0.82341000  0.61040000  0.68427000  1
  O  O688  1  0.82629000  0.13936000  0.63611000  1
  O  O689  1  0.82629000  0.63936000  0.86389000  1
  O  O690  1  0.82775000  0.36323000  0.40639000  1
  O  O691  1  0.82775000  0.86323000  0.09361000  1
  O  O692  1  0.83590000  0.38880000  0.59043000  1
  O  O693  1  0.83590000  0.88880000  0.90957000  1
  O  O694  1  0.83759000  0.47874000  0.90013000  1
  O  O695  1  0.83759000  0.97874000  0.59987000  1
  O  O696  1  0.83917000  0.11116000  0.02844000  1
  O  O697  1  0.83917000  0.61116000  0.47156000  1
  O  O698  1  0.85270000  0.28990000  0.05029000  1
  O  O699  1  0.85270000  0.78990000  0.44971000  1
  O  O700  1  0.85594000  0.44487000  0.81294000  1
  O  O701  1  0.85594000  0.94487000  0.68706000  1
  O  O702  1  0.85768000  0.04139000  0.73635000  1
  O  O703  1  0.85768000  0.54139000  0.76365000  1
  O  O704  1  0.86086000  0.38362000  0.49318000  1
  O  O705  1  0.86086000  0.88362000  0.00682000  1
  O  O706  1  0.86120000  0.20125000  0.56024000  1
  O  O707  1  0.86120000  0.70125000  0.93976000  1
  O  O708  1  0.86405000  0.02576000  0.18256000  1
  O  O709  1  0.86405000  0.52576000  0.31744000  1
  O  O710  1  0.87820000  0.38641000  0.93075000  1
  O  O711  1  0.87820000  0.88641000  0.56925000  1
  O  O712  1  0.88514000  0.08681000  0.57020000  1
  O  O713  1  0.88514000  0.58681000  0.92980000  1
  O  O714  1  0.88720000  0.41736000  0.33743000  1
  O  O715  1  0.88720000  0.91736000  0.16257000  1
  O  O716  1  0.88835000  0.05872000  0.10088000  1
  O  O717  1  0.88835000  0.55872000  0.39912000  1
  O  O718  1  0.89161000  0.44224000  0.63704000  1
  O  O719  1  0.89161000  0.94224000  0.86296000  1
  O  O720  1  0.90630000  0.23650000  0.40680000  1
  O  O721  1  0.90630000  0.73650000  0.09320000  1
  O  O722  1  0.90862000  0.05759000  0.65336000  1
  O  O723  1  0.90862000  0.55759000  0.84664000  1
  O  O724  1  0.91064000  0.44701000  0.42340000  1
  O  O725  1  0.91064000  0.94701000  0.07660000  1
  O  O726  1  0.91579000  0.34440000  0.84923000  1
  O  O727  1  0.91579000  0.84440000  0.65077000  1
  O  O728  1  0.92030000  0.26920000  0.47509000  1
  O  O729  1  0.92030000  0.76920000  0.02491000  1
  O  O730  1  0.92546000  0.48673000  0.96011000  1
  O  O731  1  0.92546000  0.98673000  0.53989000  1
  O  O732  1  0.95101000  0.45172000  0.87455000  1
  O  O733  1  0.95101000  0.95172000  0.62545000  1
  O  O734  1  0.95760000  0.12425000  0.81529000  1
  O  O735  1  0.95760000  0.62425000  0.68471000  1
  O  O736  1  0.95900000  0.44588000  0.72936000  1
  O  O737  1  0.95900000  0.94588000  0.77064000  1
  O  O738  1  0.97160000  0.30810000  0.29545000  1
  O  O739  1  0.97160000  0.80810000  0.20455000  1
  O  O740  1  0.97948000  0.08665000  0.28641000  1
  O  O741  1  0.97948000  0.58665000  0.21359000  1
  O  O742  1  0.98508000  0.49420000  0.35465000  1
  O  O743  1  0.98508000  0.99420000  0.14535000  1
