# generated using pymatgen
data_BaH8C18N6O
_symmetry_space_group_name_H-M   'P 1'
_cell_length_a   9.80900000
_cell_length_b   11.05800000
_cell_length_c   11.69800000
_cell_angle_alpha   81.23000000
_cell_angle_beta   81.57000000
_cell_angle_gamma   81.25000000
_symmetry_Int_Tables_number   1
_chemical_formula_structural   BaH8C18N6O
_chemical_formula_sum   'Ba2 H16 C36 N12 O2'
_cell_volume   1229.49667514
_cell_formula_units_Z   2
loop_
 _symmetry_equiv_pos_site_id
 _symmetry_equiv_pos_as_xyz
  1  'x, y, z'
loop_
 _atom_site_type_symbol
 _atom_site_label
 _atom_site_symmetry_multiplicity
 _atom_site_fract_x
 _atom_site_fract_y
 _atom_site_fract_z
 _atom_site_occupancy
  Ba  Ba0  1  0.05863000  0.67533000  0.00451000  1
  Ba  Ba1  1  0.94137000  0.32467000  0.99549000  1
  H  H2  1  0.00510000  0.96580000  0.30820000  1
  H  H3  1  0.00690000  0.83800000  0.65190000  1
  H  H4  1  0.01630000  0.44860000  0.21040000  1
  H  H5  1  0.14470000  0.40880000  0.15600000  1
  H  H6  1  0.26680000  0.38220000  0.66130000  1
  H  H7  1  0.28970000  0.34290000  0.47340000  1
  H  H8  1  0.29320000  0.68680000  0.54070000  1
  H  H9  1  0.31600000  0.64860000  0.35370000  1
  H  H10  1  0.68400000  0.35140000  0.64630000  1
  H  H11  1  0.70680000  0.31320000  0.45930000  1
  H  H12  1  0.71030000  0.65710000  0.52660000  1
  H  H13  1  0.73320000  0.61780000  0.33870000  1
  H  H14  1  0.85530000  0.59120000  0.84400000  1
  H  H15  1  0.98370000  0.55140000  0.78960000  1
  H  H16  1  0.99310000  0.16200000  0.34810000  1
  H  H17  1  0.99490000  0.03420000  0.69180000  1
  C  C18  1  0.00300000  0.97960000  0.38490000  1
  C  C19  1  0.00410000  0.90300000  0.59130000  1
  C  C20  1  0.00740000  0.87800000  0.47440000  1
  C  C21  1  0.01410000  0.75480000  0.45070000  1
  C  C22  1  0.01940000  0.72800000  0.33550000  1
  C  C23  1  0.02120000  0.65390000  0.54000000  1
  C  C24  1  0.32470000  0.41890000  0.85850000  1
  C  C25  1  0.34950000  0.71950000  0.74030000  1
  C  C26  1  0.35530000  0.36860000  0.62060000  1
  C  C27  1  0.36890000  0.34470000  0.50790000  1
  C  C28  1  0.38190000  0.67310000  0.50020000  1
  C  C29  1  0.39540000  0.64960000  0.38820000  1
  C  C30  1  0.40410000  0.29020000  0.26860000  1
  C  C31  1  0.42550000  0.60610000  0.14520000  1
  C  C32  1  0.45780000  0.39750000  0.79420000  1
  C  C33  1  0.47230000  0.37330000  0.67680000  1
  C  C34  1  0.48150000  0.70150000  0.67410000  1
  C  C35  1  0.49790000  0.67730000  0.55720000  1
  C  C36  1  0.50210000  0.32270000  0.44280000  1
  C  C37  1  0.51850000  0.29850000  0.32590000  1
  C  C38  1  0.52770000  0.62670000  0.32320000  1
  C  C39  1  0.54220000  0.60250000  0.20580000  1
  C  C40  1  0.57450000  0.39390000  0.85480000  1
  C  C41  1  0.59590000  0.70980000  0.73140000  1
  C  C42  1  0.60460000  0.35040000  0.61180000  1
  C  C43  1  0.61810000  0.32690000  0.49980000  1
  C  C44  1  0.63110000  0.65530000  0.49210000  1
  C  C45  1  0.64470000  0.63140000  0.37940000  1
  C  C46  1  0.65050000  0.28050000  0.25970000  1
  C  C47  1  0.67530000  0.58110000  0.14150000  1
  C  C48  1  0.97880000  0.34610000  0.46000000  1
  C  C49  1  0.98060000  0.27200000  0.66450000  1
  C  C50  1  0.98590000  0.24520000  0.54930000  1
  C  C51  1  0.99260000  0.12200000  0.52560000  1
  C  C52  1  0.99590000  0.09700000  0.40870000  1
  C  C53  1  0.99700000  0.02040000  0.61510000  1
  N  N54  1  0.02520000  0.70660000  0.24250000  1
  N  N55  1  0.02920000  0.57410000  0.61480000  1
  N  N56  1  0.21600000  0.43530000  0.90880000  1
  N  N57  1  0.24300000  0.73190000  0.79430000  1
  N  N58  1  0.31030000  0.28520000  0.22250000  1
  N  N59  1  0.33200000  0.60970000  0.09760000  1
  N  N60  1  0.66800000  0.39030000  0.90240000  1
  N  N61  1  0.68970000  0.71480000  0.77750000  1
  N  N62  1  0.75700000  0.26810000  0.20570000  1
  N  N63  1  0.78400000  0.56470000  0.09120000  1
  N  N64  1  0.97080000  0.42590000  0.38520000  1
  N  N65  1  0.97480000  0.29340000  0.75750000  1
  O  O66  1  0.06449000  0.44578000  0.14405000  1
  O  O67  1  0.93551000  0.55422000  0.85595000  1
