# generated using pymatgen
data_Cu3H24C42(NO6)2
_symmetry_space_group_name_H-M   'P 1'
_cell_length_a   23.21100000
_cell_length_b   23.21100000
_cell_length_c   23.21100000
_cell_angle_alpha   90.00000000
_cell_angle_beta   90.00000000
_cell_angle_gamma   90.00000000
_symmetry_Int_Tables_number   1
_chemical_formula_structural   Cu3H24C42(NO6)2
_chemical_formula_sum   'Cu12 H96 C168 N8 O48'
_cell_volume   12504.93834293
_cell_formula_units_Z   4
loop_
 _symmetry_equiv_pos_site_id
 _symmetry_equiv_pos_as_xyz
  1  'x, y, z'
loop_
 _atom_site_type_symbol
 _atom_site_label
 _atom_site_symmetry_multiplicity
 _atom_site_fract_x
 _atom_site_fract_y
 _atom_site_fract_z
 _atom_site_occupancy
  Cu  Cu0  1  0.00000000  0.19352000  0.50000000  1
  Cu  Cu1  1  0.00000000  0.30648000  0.50000000  1
  Cu  Cu2  1  0.00000000  0.69352000  0.50000000  1
  Cu  Cu3  1  0.00000000  0.80648000  0.50000000  1
  Cu  Cu4  1  0.19352000  0.50000000  0.00000000  1
  Cu  Cu5  1  0.30648000  0.50000000  0.00000000  1
  Cu  Cu6  1  0.50000000  0.00000000  0.19352000  1
  Cu  Cu7  1  0.50000000  0.00000000  0.30648000  1
  Cu  Cu8  1  0.50000000  0.00000000  0.69352000  1
  Cu  Cu9  1  0.50000000  0.00000000  0.80648000  1
  Cu  Cu10  1  0.69352000  0.50000000  0.00000000  1
  Cu  Cu11  1  0.80648000  0.50000000  0.00000000  1
  H  H12  1  0.12890000  0.33450000  0.37020000  1
  H  H13  1  0.12890000  0.33450000  0.62980000  1
  H  H14  1  0.12890000  0.66550000  0.37020000  1
  H  H15  1  0.12890000  0.66550000  0.62980000  1
  H  H16  1  0.12980000  0.16550000  0.37110000  1
  H  H17  1  0.12980000  0.16550000  0.62890000  1
  H  H18  1  0.12980000  0.83450000  0.37110000  1
  H  H19  1  0.12980000  0.83450000  0.62890000  1
  H  H20  1  0.16480000  0.29670000  0.19570000  1
  H  H21  1  0.16480000  0.29670000  0.80430000  1
  H  H22  1  0.16480000  0.70330000  0.19570000  1
  H  H23  1  0.16480000  0.70330000  0.80430000  1
  H  H24  1  0.16550000  0.37110000  0.12980000  1
  H  H25  1  0.16550000  0.37110000  0.87020000  1
  H  H26  1  0.16550000  0.62890000  0.12980000  1
  H  H27  1  0.16550000  0.62890000  0.87020000  1
  H  H28  1  0.19570000  0.16480000  0.29670000  1
  H  H29  1  0.19570000  0.16480000  0.70330000  1
  H  H30  1  0.19570000  0.83520000  0.29670000  1
  H  H31  1  0.19570000  0.83520000  0.70330000  1
  H  H32  1  0.20330000  0.33520000  0.30430000  1
  H  H33  1  0.20330000  0.33520000  0.69570000  1
  H  H34  1  0.20330000  0.66480000  0.30430000  1
  H  H35  1  0.20330000  0.66480000  0.69570000  1
  H  H36  1  0.29670000  0.19570000  0.16480000  1
  H  H37  1  0.29670000  0.19570000  0.83520000  1
  H  H38  1  0.29670000  0.80430000  0.16480000  1
  H  H39  1  0.29670000  0.80430000  0.83520000  1
  H  H40  1  0.30430000  0.20330000  0.33520000  1
  H  H41  1  0.30430000  0.20330000  0.66480000  1
  H  H42  1  0.30430000  0.79670000  0.33520000  1
  H  H43  1  0.30430000  0.79670000  0.66480000  1
  H  H44  1  0.33450000  0.37020000  0.12890000  1
  H  H45  1  0.33450000  0.37020000  0.87110000  1
  H  H46  1  0.33450000  0.62980000  0.12890000  1
  H  H47  1  0.33450000  0.62980000  0.87110000  1
  H  H48  1  0.33520000  0.30430000  0.20330000  1
  H  H49  1  0.33520000  0.30430000  0.79670000  1
  H  H50  1  0.33520000  0.69570000  0.20330000  1
  H  H51  1  0.33520000  0.69570000  0.79670000  1
  H  H52  1  0.37020000  0.12890000  0.33450000  1
  H  H53  1  0.37020000  0.12890000  0.66550000  1
  H  H54  1  0.37020000  0.87110000  0.33450000  1
  H  H55  1  0.37020000  0.87110000  0.66550000  1
  H  H56  1  0.37110000  0.12980000  0.16550000  1
  H  H57  1  0.37110000  0.12980000  0.83450000  1
  H  H58  1  0.37110000  0.87020000  0.16550000  1
  H  H59  1  0.37110000  0.87020000  0.83450000  1
  H  H60  1  0.62890000  0.12980000  0.16550000  1
  H  H61  1  0.62890000  0.12980000  0.83450000  1
  H  H62  1  0.62890000  0.87020000  0.16550000  1
  H  H63  1  0.62890000  0.87020000  0.83450000  1
  H  H64  1  0.62980000  0.12890000  0.33450000  1
  H  H65  1  0.62980000  0.12890000  0.66550000  1
  H  H66  1  0.62980000  0.87110000  0.33450000  1
  H  H67  1  0.62980000  0.87110000  0.66550000  1
  H  H68  1  0.66480000  0.30430000  0.20330000  1
  H  H69  1  0.66480000  0.30430000  0.79670000  1
  H  H70  1  0.66480000  0.69570000  0.20330000  1
  H  H71  1  0.66480000  0.69570000  0.79670000  1
  H  H72  1  0.66550000  0.37020000  0.12890000  1
  H  H73  1  0.66550000  0.37020000  0.87110000  1
  H  H74  1  0.66550000  0.62980000  0.12890000  1
  H  H75  1  0.66550000  0.62980000  0.87110000  1
  H  H76  1  0.69570000  0.20330000  0.33520000  1
  H  H77  1  0.69570000  0.20330000  0.66480000  1
  H  H78  1  0.69570000  0.79670000  0.33520000  1
  H  H79  1  0.69570000  0.79670000  0.66480000  1
  H  H80  1  0.70330000  0.19570000  0.16480000  1
  H  H81  1  0.70330000  0.19570000  0.83520000  1
  H  H82  1  0.70330000  0.80430000  0.16480000  1
  H  H83  1  0.70330000  0.80430000  0.83520000  1
  H  H84  1  0.79670000  0.33520000  0.30430000  1
  H  H85  1  0.79670000  0.33520000  0.69570000  1
  H  H86  1  0.79670000  0.66480000  0.30430000  1
  H  H87  1  0.79670000  0.66480000  0.69570000  1
  H  H88  1  0.80430000  0.16480000  0.29670000  1
  H  H89  1  0.80430000  0.16480000  0.70330000  1
  H  H90  1  0.80430000  0.83520000  0.29670000  1
  H  H91  1  0.80430000  0.83520000  0.70330000  1
  H  H92  1  0.83450000  0.37110000  0.12980000  1
  H  H93  1  0.83450000  0.37110000  0.87020000  1
  H  H94  1  0.83450000  0.62890000  0.12980000  1
  H  H95  1  0.83450000  0.62890000  0.87020000  1
  H  H96  1  0.83520000  0.29670000  0.19570000  1
  H  H97  1  0.83520000  0.29670000  0.80430000  1
  H  H98  1  0.83520000  0.70330000  0.19570000  1
  H  H99  1  0.83520000  0.70330000  0.80430000  1
  H  H100  1  0.87020000  0.16550000  0.37110000  1
  H  H101  1  0.87020000  0.16550000  0.62890000  1
  H  H102  1  0.87020000  0.83450000  0.37110000  1
  H  H103  1  0.87020000  0.83450000  0.62890000  1
  H  H104  1  0.87110000  0.33450000  0.37020000  1
  H  H105  1  0.87110000  0.33450000  0.62980000  1
  H  H106  1  0.87110000  0.66550000  0.37020000  1
  H  H107  1  0.87110000  0.66550000  0.62980000  1
  C  C108  1  0.07760000  0.25000000  0.42240000  1
  C  C109  1  0.07760000  0.25000000  0.57760000  1
  C  C110  1  0.07760000  0.75000000  0.42240000  1
  C  C111  1  0.07760000  0.75000000  0.57760000  1
  C  C112  1  0.12100000  0.25000000  0.37900000  1
  C  C113  1  0.12100000  0.25000000  0.62100000  1
  C  C114  1  0.12100000  0.75000000  0.37900000  1
  C  C115  1  0.12100000  0.75000000  0.62100000  1
  C  C116  1  0.14280000  0.20040000  0.35650000  1
  C  C117  1  0.14280000  0.20040000  0.64350000  1
  C  C118  1  0.14280000  0.79960000  0.35650000  1
  C  C119  1  0.14280000  0.79960000  0.64350000  1
  C  C120  1  0.14350000  0.29960000  0.35720000  1
  C  C121  1  0.14350000  0.29960000  0.64280000  1
  C  C122  1  0.14350000  0.70040000  0.35720000  1
  C  C123  1  0.14350000  0.70040000  0.64280000  1
  C  C124  1  0.18400000  0.19970000  0.31260000  1
  C  C125  1  0.18400000  0.19970000  0.68740000  1
  C  C126  1  0.18400000  0.80030000  0.31260000  1
  C  C127  1  0.18400000  0.80030000  0.68740000  1
  C  C128  1  0.18740000  0.30030000  0.31600000  1
  C  C129  1  0.18740000  0.30030000  0.68400000  1
  C  C130  1  0.18740000  0.69970000  0.31600000  1
  C  C131  1  0.18740000  0.69970000  0.68400000  1
  C  C132  1  0.19970000  0.31260000  0.18400000  1
  C  C133  1  0.19970000  0.31260000  0.81600000  1
  C  C134  1  0.19970000  0.68740000  0.18400000  1
  C  C135  1  0.19970000  0.68740000  0.81600000  1
  C  C136  1  0.20040000  0.35650000  0.14280000  1
  C  C137  1  0.20040000  0.35650000  0.85720000  1
  C  C138  1  0.20040000  0.64350000  0.14280000  1
  C  C139  1  0.20040000  0.64350000  0.85720000  1
  C  C140  1  0.20690000  0.25000000  0.29310000  1
  C  C141  1  0.20690000  0.25000000  0.70690000  1
  C  C142  1  0.20690000  0.75000000  0.29310000  1
  C  C143  1  0.20690000  0.75000000  0.70690000  1
  C  C144  1  0.25000000  0.29310000  0.20690000  1
  C  C145  1  0.25000000  0.29310000  0.79310000  1
  C  C146  1  0.25000000  0.37900000  0.12100000  1
  C  C147  1  0.25000000  0.37900000  0.87900000  1
  C  C148  1  0.25000000  0.42240000  0.07760000  1
  C  C149  1  0.25000000  0.42240000  0.92240000  1
  C  C150  1  0.25000000  0.57760000  0.07760000  1
  C  C151  1  0.25000000  0.57760000  0.92240000  1
  C  C152  1  0.25000000  0.62100000  0.12100000  1
  C  C153  1  0.25000000  0.62100000  0.87900000  1
  C  C154  1  0.25000000  0.70690000  0.20690000  1
  C  C155  1  0.25000000  0.70690000  0.79310000  1
  C  C156  1  0.29310000  0.20690000  0.25000000  1
  C  C157  1  0.29310000  0.20690000  0.75000000  1
  C  C158  1  0.29310000  0.79310000  0.25000000  1
  C  C159  1  0.29310000  0.79310000  0.75000000  1
  C  C160  1  0.29960000  0.35720000  0.14350000  1
  C  C161  1  0.29960000  0.35720000  0.85650000  1
  C  C162  1  0.29960000  0.64280000  0.14350000  1
  C  C163  1  0.29960000  0.64280000  0.85650000  1
  C  C164  1  0.30030000  0.31600000  0.18740000  1
  C  C165  1  0.30030000  0.31600000  0.81260000  1
  C  C166  1  0.30030000  0.68400000  0.18740000  1
  C  C167  1  0.30030000  0.68400000  0.81260000  1
  C  C168  1  0.31260000  0.18400000  0.19970000  1
  C  C169  1  0.31260000  0.18400000  0.80030000  1
  C  C170  1  0.31260000  0.81600000  0.19970000  1
  C  C171  1  0.31260000  0.81600000  0.80030000  1
  C  C172  1  0.31600000  0.18740000  0.30030000  1
  C  C173  1  0.31600000  0.18740000  0.69970000  1
  C  C174  1  0.31600000  0.81260000  0.30030000  1
  C  C175  1  0.31600000  0.81260000  0.69970000  1
  C  C176  1  0.35650000  0.14280000  0.20040000  1
  C  C177  1  0.35650000  0.14280000  0.79960000  1
  C  C178  1  0.35650000  0.85720000  0.20040000  1
  C  C179  1  0.35650000  0.85720000  0.79960000  1
  C  C180  1  0.35720000  0.14350000  0.29960000  1
  C  C181  1  0.35720000  0.14350000  0.70040000  1
  C  C182  1  0.35720000  0.85650000  0.29960000  1
  C  C183  1  0.35720000  0.85650000  0.70040000  1
  C  C184  1  0.37900000  0.12100000  0.25000000  1
  C  C185  1  0.37900000  0.12100000  0.75000000  1
  C  C186  1  0.37900000  0.87900000  0.25000000  1
  C  C187  1  0.37900000  0.87900000  0.75000000  1
  C  C188  1  0.42240000  0.07760000  0.25000000  1
  C  C189  1  0.42240000  0.07760000  0.75000000  1
  C  C190  1  0.42240000  0.92240000  0.25000000  1
  C  C191  1  0.42240000  0.92240000  0.75000000  1
  C  C192  1  0.57760000  0.07760000  0.25000000  1
  C  C193  1  0.57760000  0.07760000  0.75000000  1
  C  C194  1  0.57760000  0.92240000  0.25000000  1
  C  C195  1  0.57760000  0.92240000  0.75000000  1
  C  C196  1  0.62100000  0.12100000  0.25000000  1
  C  C197  1  0.62100000  0.12100000  0.75000000  1
  C  C198  1  0.62100000  0.87900000  0.25000000  1
  C  C199  1  0.62100000  0.87900000  0.75000000  1
  C  C200  1  0.64280000  0.14350000  0.29960000  1
  C  C201  1  0.64280000  0.14350000  0.70040000  1
  C  C202  1  0.64280000  0.85650000  0.29960000  1
  C  C203  1  0.64280000  0.85650000  0.70040000  1
  C  C204  1  0.64350000  0.14280000  0.20040000  1
  C  C205  1  0.64350000  0.14280000  0.79960000  1
  C  C206  1  0.64350000  0.85720000  0.20040000  1
  C  C207  1  0.64350000  0.85720000  0.79960000  1
  C  C208  1  0.68400000  0.18740000  0.30030000  1
  C  C209  1  0.68400000  0.18740000  0.69970000  1
  C  C210  1  0.68400000  0.81260000  0.30030000  1
  C  C211  1  0.68400000  0.81260000  0.69970000  1
  C  C212  1  0.68740000  0.18400000  0.19970000  1
  C  C213  1  0.68740000  0.18400000  0.80030000  1
  C  C214  1  0.68740000  0.81600000  0.19970000  1
  C  C215  1  0.68740000  0.81600000  0.80030000  1
  C  C216  1  0.69970000  0.31600000  0.18740000  1
  C  C217  1  0.69970000  0.31600000  0.81260000  1
  C  C218  1  0.69970000  0.68400000  0.18740000  1
  C  C219  1  0.69970000  0.68400000  0.81260000  1
  C  C220  1  0.70040000  0.35720000  0.14350000  1
  C  C221  1  0.70040000  0.35720000  0.85650000  1
  C  C222  1  0.70040000  0.64280000  0.14350000  1
  C  C223  1  0.70040000  0.64280000  0.85650000  1
  C  C224  1  0.70690000  0.20690000  0.25000000  1
  C  C225  1  0.70690000  0.20690000  0.75000000  1
  C  C226  1  0.70690000  0.79310000  0.25000000  1
  C  C227  1  0.70690000  0.79310000  0.75000000  1
  C  C228  1  0.75000000  0.29310000  0.20690000  1
  C  C229  1  0.75000000  0.29310000  0.79310000  1
  C  C230  1  0.75000000  0.37900000  0.12100000  1
  C  C231  1  0.75000000  0.37900000  0.87900000  1
  C  C232  1  0.75000000  0.42240000  0.07760000  1
  C  C233  1  0.75000000  0.42240000  0.92240000  1
  C  C234  1  0.75000000  0.57760000  0.07760000  1
  C  C235  1  0.75000000  0.57760000  0.92240000  1
  C  C236  1  0.75000000  0.62100000  0.12100000  1
  C  C237  1  0.75000000  0.62100000  0.87900000  1
  C  C238  1  0.75000000  0.70690000  0.20690000  1
  C  C239  1  0.75000000  0.70690000  0.79310000  1
  C  C240  1  0.79310000  0.25000000  0.29310000  1
  C  C241  1  0.79310000  0.25000000  0.70690000  1
  C  C242  1  0.79310000  0.75000000  0.29310000  1
  C  C243  1  0.79310000  0.75000000  0.70690000  1
  C  C244  1  0.79960000  0.35650000  0.14280000  1
  C  C245  1  0.79960000  0.35650000  0.85720000  1
  C  C246  1  0.79960000  0.64350000  0.14280000  1
  C  C247  1  0.79960000  0.64350000  0.85720000  1
  C  C248  1  0.80030000  0.31260000  0.18400000  1
  C  C249  1  0.80030000  0.31260000  0.81600000  1
  C  C250  1  0.80030000  0.68740000  0.18400000  1
  C  C251  1  0.80030000  0.68740000  0.81600000  1
  C  C252  1  0.81260000  0.30030000  0.31600000  1
  C  C253  1  0.81260000  0.30030000  0.68400000  1
  C  C254  1  0.81260000  0.69970000  0.31600000  1
  C  C255  1  0.81260000  0.69970000  0.68400000  1
  C  C256  1  0.81600000  0.19970000  0.31260000  1
  C  C257  1  0.81600000  0.19970000  0.68740000  1
  C  C258  1  0.81600000  0.80030000  0.31260000  1
  C  C259  1  0.81600000  0.80030000  0.68740000  1
  C  C260  1  0.85650000  0.29960000  0.35720000  1
  C  C261  1  0.85650000  0.29960000  0.64280000  1
  C  C262  1  0.85650000  0.70040000  0.35720000  1
  C  C263  1  0.85650000  0.70040000  0.64280000  1
  C  C264  1  0.85720000  0.20040000  0.35650000  1
  C  C265  1  0.85720000  0.20040000  0.64350000  1
  C  C266  1  0.85720000  0.79960000  0.35650000  1
  C  C267  1  0.85720000  0.79960000  0.64350000  1
  C  C268  1  0.87900000  0.25000000  0.37900000  1
  C  C269  1  0.87900000  0.25000000  0.62100000  1
  C  C270  1  0.87900000  0.75000000  0.37900000  1
  C  C271  1  0.87900000  0.75000000  0.62100000  1
  C  C272  1  0.92240000  0.25000000  0.42240000  1
  C  C273  1  0.92240000  0.25000000  0.57760000  1
  C  C274  1  0.92240000  0.75000000  0.42240000  1
  C  C275  1  0.92240000  0.75000000  0.57760000  1
  N  N276  1  0.25000000  0.25000000  0.25000000  1
  N  N277  1  0.25000000  0.25000000  0.75000000  1
  N  N278  1  0.25000000  0.75000000  0.25000000  1
  N  N279  1  0.25000000  0.75000000  0.75000000  1
  N  N280  1  0.75000000  0.25000000  0.25000000  1
  N  N281  1  0.75000000  0.25000000  0.75000000  1
  N  N282  1  0.75000000  0.75000000  0.25000000  1
  N  N283  1  0.75000000  0.75000000  0.75000000  1
  O  O284  1  0.05897000  0.29728000  0.44100000  1
  O  O285  1  0.05897000  0.29728000  0.55900000  1
  O  O286  1  0.05897000  0.70272000  0.44100000  1
  O  O287  1  0.05897000  0.70272000  0.55900000  1
  O  O288  1  0.05900000  0.20272000  0.44103000  1
  O  O289  1  0.05900000  0.20272000  0.55897000  1
  O  O290  1  0.05900000  0.79728000  0.44103000  1
  O  O291  1  0.05900000  0.79728000  0.55897000  1
  O  O292  1  0.20272000  0.44103000  0.05900000  1
  O  O293  1  0.20272000  0.44103000  0.94100000  1
  O  O294  1  0.20272000  0.55897000  0.05900000  1
  O  O295  1  0.20272000  0.55897000  0.94100000  1
  O  O296  1  0.29728000  0.44100000  0.05897000  1
  O  O297  1  0.29728000  0.44100000  0.94103000  1
  O  O298  1  0.29728000  0.55900000  0.05897000  1
  O  O299  1  0.29728000  0.55900000  0.94103000  1
  O  O300  1  0.44100000  0.05897000  0.29728000  1
  O  O301  1  0.44100000  0.05897000  0.70272000  1
  O  O302  1  0.44100000  0.94103000  0.29728000  1
  O  O303  1  0.44100000  0.94103000  0.70272000  1
  O  O304  1  0.44103000  0.05900000  0.20272000  1
  O  O305  1  0.44103000  0.05900000  0.79728000  1
  O  O306  1  0.44103000  0.94100000  0.20272000  1
  O  O307  1  0.44103000  0.94100000  0.79728000  1
  O  O308  1  0.55897000  0.05900000  0.20272000  1
  O  O309  1  0.55897000  0.05900000  0.79728000  1
  O  O310  1  0.55897000  0.94100000  0.20272000  1
  O  O311  1  0.55897000  0.94100000  0.79728000  1
  O  O312  1  0.55900000  0.05897000  0.29728000  1
  O  O313  1  0.55900000  0.05897000  0.70272000  1
  O  O314  1  0.55900000  0.94103000  0.29728000  1
  O  O315  1  0.55900000  0.94103000  0.70272000  1
  O  O316  1  0.70272000  0.44100000  0.05897000  1
  O  O317  1  0.70272000  0.44100000  0.94103000  1
  O  O318  1  0.70272000  0.55900000  0.05897000  1
  O  O319  1  0.70272000  0.55900000  0.94103000  1
  O  O320  1  0.79728000  0.44103000  0.05900000  1
  O  O321  1  0.79728000  0.44103000  0.94100000  1
  O  O322  1  0.79728000  0.55897000  0.05900000  1
  O  O323  1  0.79728000  0.55897000  0.94100000  1
  O  O324  1  0.94100000  0.20272000  0.44103000  1
  O  O325  1  0.94100000  0.20272000  0.55897000  1
  O  O326  1  0.94100000  0.79728000  0.44103000  1
  O  O327  1  0.94100000  0.79728000  0.55897000  1
  O  O328  1  0.94103000  0.29728000  0.44100000  1
  O  O329  1  0.94103000  0.29728000  0.55900000  1
  O  O330  1  0.94103000  0.70272000  0.44100000  1
  O  O331  1  0.94103000  0.70272000  0.55900000  1
