# generated using pymatgen
data_CdH12C24(NO5)2
_symmetry_space_group_name_H-M   'P 1'
_cell_length_a   10.21700000
_cell_length_b   10.36200000
_cell_length_c   18.11800000
_cell_angle_alpha   102.53000000
_cell_angle_beta   99.35000000
_cell_angle_gamma   93.79000000
_symmetry_Int_Tables_number   1
_chemical_formula_structural   CdH12C24(NO5)2
_chemical_formula_sum   'Cd2 H24 C48 N4 O20'
_cell_volume   1837.30955128
_cell_formula_units_Z   2
loop_
 _symmetry_equiv_pos_site_id
 _symmetry_equiv_pos_as_xyz
  1  'x, y, z'
loop_
 _atom_site_type_symbol
 _atom_site_label
 _atom_site_symmetry_multiplicity
 _atom_site_fract_x
 _atom_site_fract_y
 _atom_site_fract_z
 _atom_site_occupancy
  Cd  Cd0  1  0.04815000  0.04702000  0.31582000  1
  Cd  Cd1  1  0.95185000  0.95298000  0.68418000  1
  H  H2  1  0.04390000  0.55610000  0.31990000  1
  H  H3  1  0.16890000  0.82490000  0.51930000  1
  H  H4  1  0.18380000  0.43650000  0.51140000  1
  H  H5  1  0.19260000  0.66610000  0.75420000  1
  H  H6  1  0.21050000  0.73400000  0.63580000  1
  H  H7  1  0.25840000  0.72850000  0.88630000  1
  H  H8  1  0.28610000  0.90230000  0.11540000  1
  H  H9  1  0.32630000  0.08300000  0.89740000  1
  H  H10  1  0.35740000  0.27480000  0.14030000  1
  H  H11  1  0.36570000  0.87010000  0.99220000  1
  H  H12  1  0.42630000  0.33490000  0.27180000  1
  H  H13  1  0.44010000  0.96100000  0.69330000  1
  H  H14  1  0.55990000  0.03900000  0.30670000  1
  H  H15  1  0.57370000  0.66510000  0.72820000  1
  H  H16  1  0.63430000  0.12990000  0.00780000  1
  H  H17  1  0.64260000  0.72520000  0.85970000  1
  H  H18  1  0.67370000  0.91700000  0.10260000  1
  H  H19  1  0.71390000  0.09770000  0.88460000  1
  H  H20  1  0.74160000  0.27150000  0.11370000  1
  H  H21  1  0.78950000  0.26600000  0.36420000  1
  H  H22  1  0.80740000  0.33390000  0.24580000  1
  H  H23  1  0.81620000  0.56350000  0.48860000  1
  H  H24  1  0.83110000  0.17510000  0.48070000  1
  H  H25  1  0.95610000  0.44390000  0.68010000  1
  C  C26  1  0.06940000  0.81980000  0.37310000  1
  C  C27  1  0.07990000  0.57620000  0.37210000  1
  C  C28  1  0.08850000  0.32920000  0.36480000  1
  C  C29  1  0.10060000  0.70820000  0.41290000  1
  C  C30  1  0.11170000  0.47450000  0.40780000  1
  C  C31  1  0.15460000  0.73710000  0.49130000  1
  C  C32  1  0.16420000  0.50440000  0.48650000  1
  C  C33  1  0.18680000  0.63620000  0.52740000  1
  C  C34  1  0.21590000  0.98760000  0.75120000  1
  C  C35  1  0.28300000  0.67790000  0.77550000  1
  C  C36  1  0.29570000  0.00640000  0.26420000  1
  C  C37  1  0.32190000  0.71510000  0.85480000  1
  C  C38  1  0.33430000  0.60800000  0.64270000  1
  C  C39  1  0.36020000  0.01840000  0.78920000  1
  C  C40  1  0.37500000  0.92240000  0.13950000  1
  C  C41  1  0.37560000  0.65800000  0.72770000  1
  C  C42  1  0.39340000  0.07000000  0.86830000  1
  C  C43  1  0.40550000  0.97610000  0.21790000  1
  C  C44  1  0.44790000  0.28670000  0.16140000  1
  C  C45  1  0.45720000  0.73210000  0.88670000  1
  C  C46  1  0.46160000  0.99540000  0.74620000  1
  C  C47  1  0.47480000  0.89810000  0.09620000  1
  C  C48  1  0.48940000  0.32300000  0.23990000  1
  C  C49  1  0.49210000  0.23310000  0.02810000  1
  C  C50  1  0.50790000  0.76690000  0.97190000  1
  C  C51  1  0.51060000  0.67700000  0.76010000  1
  C  C52  1  0.52520000  0.10190000  0.90380000  1
  C  C53  1  0.53840000  0.00460000  0.25380000  1
  C  C54  1  0.54280000  0.26790000  0.11330000  1
  C  C55  1  0.55210000  0.71330000  0.83860000  1
  C  C56  1  0.59450000  0.02390000  0.78210000  1
  C  C57  1  0.60660000  0.93000000  0.13170000  1
  C  C58  1  0.62440000  0.34200000  0.27230000  1
  C  C59  1  0.62500000  0.07760000  0.86050000  1
  C  C60  1  0.63980000  0.98160000  0.21080000  1
  C  C61  1  0.66570000  0.39200000  0.35730000  1
  C  C62  1  0.67810000  0.28490000  0.14520000  1
  C  C63  1  0.70430000  0.99360000  0.73580000  1
  C  C64  1  0.71700000  0.32210000  0.22450000  1
  C  C65  1  0.78410000  0.01240000  0.24880000  1
  C  C66  1  0.81320000  0.36380000  0.47260000  1
  C  C67  1  0.83580000  0.49560000  0.51350000  1
  C  C68  1  0.84540000  0.26290000  0.50870000  1
  C  C69  1  0.88830000  0.52550000  0.59220000  1
  C  C70  1  0.89940000  0.29180000  0.58710000  1
  C  C71  1  0.91150000  0.67080000  0.63520000  1
  C  C72  1  0.92010000  0.42380000  0.62790000  1
  C  C73  1  0.93060000  0.18020000  0.62690000  1
  N  N74  1  0.24090000  0.66910000  0.60760000  1
  N  N75  1  0.43810000  0.84730000  0.01510000  1
  N  N76  1  0.56190000  0.15270000  0.98490000  1
  N  N77  1  0.75910000  0.33090000  0.39240000  1
  O  O78  1  0.02200000  0.79290000  0.30430000  1
  O  O79  1  0.04760000  0.29890000  0.29420000  1
  O  O80  1  0.09570000  0.93680000  0.41290000  1
  O  O81  1  0.10810000  0.24280000  0.40370000  1
  O  O82  1  0.12810000  0.01820000  0.79140000  1
  O  O83  1  0.17850000  0.99680000  0.22770000  1
  O  O84  1  0.18690000  0.93520000  0.68055000  1
  O  O85  1  0.32560000  0.03880000  0.33530000  1
  O  O86  1  0.38940000  0.51600000  0.60840000  1
  O  O87  1  0.39080000  0.27760000  0.00140000  1
  O  O88  1  0.60920000  0.72240000  0.99860000  1
  O  O89  1  0.61060000  0.48400000  0.39160000  1
  O  O90  1  0.67440000  0.96120000  0.66470000  1
  O  O91  1  0.81310000  0.06480000  0.31945000  1
  O  O92  1  0.82150000  0.00320000  0.77230000  1
  O  O93  1  0.87190000  0.98180000  0.20860000  1
  O  O94  1  0.89190000  0.75720000  0.59630000  1
  O  O95  1  0.90430000  0.06320000  0.58710000  1
  O  O96  1  0.95240000  0.70110000  0.70580000  1
  O  O97  1  0.97800000  0.20710000  0.69570000  1
