# generated using pymatgen
data_ZnH12C20NO4
_symmetry_space_group_name_H-M   'P 1'
_cell_length_a   17.17800000
_cell_length_b   23.06530000
_cell_length_c   23.06530000
_cell_angle_alpha   60.82690000
_cell_angle_beta   68.13770000
_cell_angle_gamma   68.13770000
_symmetry_Int_Tables_number   1
_chemical_formula_structural   ZnH12C20NO4
_chemical_formula_sum   'Zn4 H48 C80 N4 O16'
_cell_volume   7197.36102219
_cell_formula_units_Z   4
loop_
 _symmetry_equiv_pos_site_id
 _symmetry_equiv_pos_as_xyz
  1  'x, y, z'
loop_
 _atom_site_type_symbol
 _atom_site_label
 _atom_site_symmetry_multiplicity
 _atom_site_fract_x
 _atom_site_fract_y
 _atom_site_fract_z
 _atom_site_occupancy
  Zn  Zn0  1  0.02823000  0.53003000  0.53003000  1
  Zn  Zn1  1  0.41171000  0.03003000  0.03004000  1
  Zn  Zn2  1  0.58829000  0.96997000  0.96996000  1
  Zn  Zn3  1  0.97177000  0.46997000  0.46997000  1
  H  H4  1  0.14730000  0.27010000  0.53450000  1
  H  H5  1  0.14730000  0.53450000  0.27010000  1
  H  H6  1  0.23000000  0.35350000  0.61030000  1
  H  H7  1  0.23000000  0.61030000  0.35350000  1
  H  H8  1  0.24440000  0.16870000  0.57630000  1
  H  H9  1  0.24440000  0.57630000  0.16870000  1
  H  H10  1  0.26680000  0.14650000  0.75390000  1
  H  H11  1  0.26680000  0.75390000  0.14650000  1
  H  H12  1  0.30620000  0.11030000  0.85350000  1
  H  H13  1  0.30620000  0.85350000  0.11030000  1
  H  H14  1  0.33280000  0.25390000  0.64650000  1
  H  H15  1  0.33280000  0.64650000  0.25390000  1
  H  H16  1  0.38340000  0.00940000  0.67500000  1
  H  H17  1  0.38340000  0.67500000  0.00940000  1
  H  H18  1  0.43220000  0.17500000  0.50940000  1
  H  H19  1  0.43220000  0.50940000  0.17500000  1
  H  H20  1  0.45190000  0.22990000  0.96550000  1
  H  H21  1  0.45190000  0.96550000  0.22990000  1
  H  H22  1  0.45350000  0.61100000  0.94500000  1
  H  H23  1  0.45350000  0.94500000  0.61100000  1
  H  H24  1  0.48940000  0.33130000  0.92370000  1
  H  H25  1  0.48940000  0.92370000  0.33130000  1
  H  H26  1  0.49050000  0.11100000  0.44500000  1
  H  H27  1  0.49050000  0.44500000  0.11100000  1
  H  H28  1  0.50950000  0.55500000  0.88900000  1
  H  H29  1  0.50950000  0.88900000  0.55500000  1
  H  H30  1  0.51060000  0.07630000  0.66870000  1
  H  H31  1  0.51060000  0.66870000  0.07630000  1
  H  H32  1  0.54650000  0.05500000  0.38900000  1
  H  H33  1  0.54650000  0.38900000  0.05500000  1
  H  H34  1  0.54810000  0.03450000  0.77010000  1
  H  H35  1  0.54810000  0.77010000  0.03450000  1
  H  H36  1  0.56780000  0.49060000  0.82500000  1
  H  H37  1  0.56780000  0.82500000  0.49060000  1
  H  H38  1  0.61660000  0.32500000  0.99060000  1
  H  H39  1  0.61660000  0.99060000  0.32500000  1
  H  H40  1  0.66720000  0.35350000  0.74610000  1
  H  H41  1  0.66720000  0.74610000  0.35350000  1
  H  H42  1  0.69380000  0.14650000  0.88970000  1
  H  H43  1  0.69380000  0.88970000  0.14650000  1
  H  H44  1  0.73320000  0.24610000  0.85350000  1
  H  H45  1  0.73320000  0.85350000  0.24610000  1
  H  H46  1  0.75560000  0.42370000  0.83130000  1
  H  H47  1  0.75560000  0.83130000  0.42370000  1
  H  H48  1  0.77000000  0.38970000  0.64650000  1
  H  H49  1  0.77000000  0.64650000  0.38970000  1
  H  H50  1  0.85270000  0.46550000  0.72990000  1
  H  H51  1  0.85270000  0.72990000  0.46550000  1
  C  C52  1  0.11230000  0.38779000  0.54341000  1
  C  C53  1  0.11230000  0.54341000  0.38779000  1
  C  C54  1  0.17672000  0.32242000  0.56900000  1
  C  C55  1  0.17672000  0.56900000  0.32242000  1
  C  C56  1  0.18325000  0.26679000  0.55833000  1
  C  C57  1  0.18325000  0.55833000  0.26679000  1
  C  C58  1  0.23331000  0.31648000  0.60270000  1
  C  C59  1  0.23331000  0.60270000  0.31648000  1
  C  C60  1  0.24254000  0.20612000  0.58266000  1
  C  C61  1  0.24254000  0.58266000  0.20612000  1
  C  C62  1  0.29441000  0.25656000  0.62514000  1
  C  C63  1  0.29441000  0.62514000  0.25656000  1
  C  C64  1  0.29877000  0.19996000  0.61586000  1
  C  C65  1  0.29877000  0.61586000  0.19996000  1
  C  C66  1  0.32389000  0.12514000  0.75656000  1
  C  C67  1  0.32389000  0.75656000  0.12514000  1
  C  C68  1  0.34751000  0.10270000  0.81648000  1
  C  C69  1  0.34751000  0.81648000  0.10270000  1
  C  C70  1  0.38541000  0.11586000  0.69996000  1
  C  C71  1  0.38541000  0.69996000  0.11586000  1
  C  C72  1  0.40128000  0.09872000  0.59872000  1
  C  C73  1  0.40128000  0.59872000  0.09872000  1
  C  C74  1  0.40682000  0.03046000  0.62850000  1
  C  C75  1  0.40682000  0.62850000  0.03046000  1
  C  C76  1  0.43186000  0.06900000  0.82242000  1
  C  C77  1  0.43186000  0.82242000  0.06900000  1
  C  C78  1  0.43422000  0.12850000  0.53046000  1
  C  C79  1  0.43422000  0.53046000  0.12850000  1
  C  C80  1  0.44768000  0.58941000  0.99203000  1
  C  C81  1  0.44768000  0.99203000  0.58941000  1
  C  C82  1  0.45650000  0.04341000  0.88779000  1
  C  C83  1  0.45650000  0.88779000  0.04341000  1
  C  C84  1  0.46868000  0.08266000  0.70612000  1
  C  C85  1  0.46868000  0.70612000  0.08266000  1
  C  C86  1  0.47088000  0.08941000  0.49203000  1
  C  C87  1  0.47088000  0.49203000  0.08941000  1
  C  C88  1  0.47923000  0.02077000  0.52077000  1
  C  C89  1  0.47923000  0.52077000  0.02077000  1
  C  C90  1  0.49163000  0.05833000  0.76679000  1
  C  C91  1  0.49163000  0.76679000  0.05833000  1
  C  C92  1  0.50837000  0.23321000  0.94167000  1
  C  C93  1  0.50837000  0.94167000  0.23321000  1
  C  C94  1  0.52077000  0.47923000  0.97923000  1
  C  C95  1  0.52077000  0.97923000  0.47923000  1
  C  C96  1  0.52912000  0.50797000  0.91059000  1
  C  C97  1  0.52912000  0.91059000  0.50797000  1
  C  C98  1  0.53132000  0.29388000  0.91734000  1
  C  C99  1  0.53132000  0.91734000  0.29388000  1
  C  C100  1  0.54350000  0.11221000  0.95659000  1
  C  C101  1  0.54350000  0.95659000  0.11221000  1
  C  C102  1  0.55232000  0.00797000  0.41059000  1
  C  C103  1  0.55232000  0.41059000  0.00797000  1
  C  C104  1  0.56578000  0.46954000  0.87150000  1
  C  C105  1  0.56578000  0.87150000  0.46954000  1
  C  C106  1  0.56814000  0.17758000  0.93100000  1
  C  C107  1  0.56814000  0.93100000  0.17758000  1
  C  C108  1  0.59318000  0.37150000  0.96954000  1
  C  C109  1  0.59318000  0.96954000  0.37150000  1
  C  C110  1  0.59872000  0.40128000  0.90128000  1
  C  C111  1  0.59872000  0.90128000  0.40128000  1
  C  C112  1  0.61459000  0.30004000  0.88414000  1
  C  C113  1  0.61459000  0.88414000  0.30004000  1
  C  C114  1  0.65249000  0.18352000  0.89730000  1
  C  C115  1  0.65249000  0.89730000  0.18352000  1
  C  C116  1  0.67611000  0.24344000  0.87486000  1
  C  C117  1  0.67611000  0.87486000  0.24344000  1
  C  C118  1  0.70123000  0.38414000  0.80004000  1
  C  C119  1  0.70123000  0.80004000  0.38414000  1
  C  C120  1  0.70559000  0.37486000  0.74344000  1
  C  C121  1  0.70559000  0.74344000  0.37486000  1
  C  C122  1  0.75746000  0.41734000  0.79388000  1
  C  C123  1  0.75746000  0.79388000  0.41734000  1
  C  C124  1  0.76669000  0.39730000  0.68352000  1
  C  C125  1  0.76669000  0.68352000  0.39730000  1
  C  C126  1  0.81675000  0.44167000  0.73321000  1
  C  C127  1  0.81675000  0.73321000  0.44167000  1
  C  C128  1  0.82328000  0.43100000  0.67758000  1
  C  C129  1  0.82328000  0.67758000  0.43100000  1
  C  C130  1  0.88770000  0.45659000  0.61221000  1
  C  C131  1  0.88770000  0.61221000  0.45659000  1
  N  N132  1  0.36114000  0.13886000  0.63886000  1
  N  N133  1  0.36114000  0.63886000  0.13886000  1
  N  N134  1  0.63886000  0.36114000  0.86114000  1
  N  N135  1  0.63886000  0.86114000  0.36114000  1
  O  O136  1  0.06570000  0.38998000  0.51110000  1
  O  O137  1  0.06570000  0.51110000  0.38998000  1
  O  O138  1  0.10886000  0.43577000  0.55707000  1
  O  O139  1  0.10886000  0.55707000  0.43577000  1
  O  O140  1  0.39830000  0.05707000  0.93577000  1
  O  O141  1  0.39830000  0.93577000  0.05707000  1
  O  O142  1  0.46678000  0.11002000  0.98890000  1
  O  O143  1  0.46678000  0.98890000  0.11002000  1
  O  O144  1  0.53322000  0.01110000  0.88998000  1
  O  O145  1  0.53322000  0.88998000  0.01110000  1
  O  O146  1  0.60170000  0.06423000  0.94293000  1
  O  O147  1  0.60170000  0.94293000  0.06423000  1
  O  O148  1  0.89114000  0.44293000  0.56423000  1
  O  O149  1  0.89114000  0.56423000  0.44293000  1
  O  O150  1  0.93430000  0.48890000  0.61002000  1
  O  O151  1  0.93430000  0.61002000  0.48890000  1
