# generated using pymatgen
data_ZnH18C24N3O4
_symmetry_space_group_name_H-M   'P 1'
_cell_length_a   9.05310000
_cell_length_b   16.34200000
_cell_length_c   19.21800000
_cell_angle_alpha   90.00000000
_cell_angle_beta   90.00000000
_cell_angle_gamma   92.80400000
_symmetry_Int_Tables_number   1
_chemical_formula_structural   ZnH18C24N3O4
_chemical_formula_sum   'Zn4 H72 C96 N12 O16'
_cell_volume   2839.81750008
_cell_formula_units_Z   4
loop_
 _symmetry_equiv_pos_site_id
 _symmetry_equiv_pos_as_xyz
  1  'x, y, z'
loop_
 _atom_site_type_symbol
 _atom_site_label
 _atom_site_symmetry_multiplicity
 _atom_site_fract_x
 _atom_site_fract_y
 _atom_site_fract_z
 _atom_site_occupancy
  Zn  Zn0  1  0.13241000  0.09695000  0.81446000  1
  Zn  Zn1  1  0.36759000  0.40305000  0.31446000  1
  Zn  Zn2  1  0.63241000  0.59695000  0.68554000  1
  Zn  Zn3  1  0.86759000  0.90305000  0.18554000  1
  H  H4  1  0.03340000  0.37290000  0.86400000  1
  H  H5  1  0.07580000  0.75010000  0.87760000  1
  H  H6  1  0.07930000  0.26240000  0.75780000  1
  H  H7  1  0.08210000  0.66860000  0.30870000  1
  H  H8  1  0.08520000  0.18130000  0.26870000  1
  H  H9  1  0.09010000  0.18300000  0.05970000  1
  H  H10  1  0.10140000  0.32610000  0.92630000  1
  H  H11  1  0.10450000  0.74690000  0.06400000  1
  H  H12  1  0.13400000  0.97300000  0.10960000  1
  H  H13  1  0.15090000  0.63100000  0.81320000  1
  H  H14  1  0.15300000  0.61450000  0.97590000  1
  H  H15  1  0.15650000  0.49940000  0.90630000  1
  H  H16  1  0.16300000  0.69650000  0.59790000  1
  H  H17  1  0.18260000  0.93370000  0.24450000  1
  H  H18  1  0.18820000  0.58520000  0.17020000  1
  H  H19  1  0.21000000  0.15320000  0.95950000  1
  H  H20  1  0.21580000  0.62530000  0.39760000  1
  H  H21  1  0.23480000  0.55400000  0.50960000  1
  H  H22  1  0.26520000  0.94600000  0.00960000  1
  H  H23  1  0.28420000  0.87470000  0.89760000  1
  H  H24  1  0.29000000  0.34680000  0.45950000  1
  H  H25  1  0.31180000  0.91480000  0.67020000  1
  H  H26  1  0.31740000  0.56630000  0.74450000  1
  H  H27  1  0.33700000  0.80350000  0.09790000  1
  H  H28  1  0.34350000  0.00060000  0.40630000  1
  H  H29  1  0.34700000  0.88550000  0.47590000  1
  H  H30  1  0.34910000  0.86900000  0.31320000  1
  H  H31  1  0.36600000  0.52700000  0.60960000  1
  H  H32  1  0.39550000  0.75310000  0.56400000  1
  H  H33  1  0.39860000  0.17390000  0.42630000  1
  H  H34  1  0.40990000  0.31700000  0.55970000  1
  H  H35  1  0.41480000  0.31870000  0.76870000  1
  H  H36  1  0.41790000  0.83140000  0.80870000  1
  H  H37  1  0.42070000  0.23760000  0.25780000  1
  H  H38  1  0.42420000  0.74990000  0.37760000  1
  H  H39  1  0.46660000  0.12710000  0.36400000  1
  H  H40  1  0.53340000  0.87290000  0.63600000  1
  H  H41  1  0.57580000  0.25010000  0.62240000  1
  H  H42  1  0.57930000  0.76240000  0.74220000  1
  H  H43  1  0.58210000  0.16860000  0.19130000  1
  H  H44  1  0.58520000  0.68130000  0.23130000  1
  H  H45  1  0.59010000  0.68300000  0.44030000  1
  H  H46  1  0.60140000  0.82610000  0.57370000  1
  H  H47  1  0.60450000  0.24690000  0.43600000  1
  H  H48  1  0.63400000  0.47300000  0.39040000  1
  H  H49  1  0.65090000  0.13100000  0.68680000  1
  H  H50  1  0.65300000  0.11450000  0.52410000  1
  H  H51  1  0.65650000  0.99940000  0.59370000  1
  H  H52  1  0.66300000  0.19650000  0.90210000  1
  H  H53  1  0.68260000  0.43370000  0.25550000  1
  H  H54  1  0.68820000  0.08520000  0.32980000  1
  H  H55  1  0.71000000  0.65320000  0.54050000  1
  H  H56  1  0.71580000  0.12530000  0.10240000  1
  H  H57  1  0.73480000  0.05400000  0.99040000  1
  H  H58  1  0.76520000  0.44600000  0.49040000  1
  H  H59  1  0.78420000  0.37470000  0.60240000  1
  H  H60  1  0.79000000  0.84680000  0.04050000  1
  H  H61  1  0.81180000  0.41480000  0.82980000  1
  H  H62  1  0.81740000  0.06630000  0.75550000  1
  H  H63  1  0.83700000  0.30350000  0.40210000  1
  H  H64  1  0.84350000  0.50060000  0.09370000  1
  H  H65  1  0.84700000  0.38550000  0.02410000  1
  H  H66  1  0.84910000  0.36900000  0.18680000  1
  H  H67  1  0.86600000  0.02700000  0.89040000  1
  H  H68  1  0.89550000  0.25310000  0.93600000  1
  H  H69  1  0.89860000  0.67390000  0.07370000  1
  H  H70  1  0.90990000  0.81700000  0.94030000  1
  H  H71  1  0.91480000  0.81870000  0.73130000  1
  H  H72  1  0.91790000  0.33140000  0.69130000  1
  H  H73  1  0.92070000  0.73760000  0.24220000  1
  H  H74  1  0.92420000  0.24990000  0.12240000  1
  H  H75  1  0.96660000  0.62710000  0.13600000  1
  C  C76  1  0.00090000  0.81500000  0.70530000  1
  C  C77  1  0.00210000  0.42970000  0.95710000  1
  C  C78  1  0.00750000  0.76490000  0.25710000  1
  C  C79  1  0.01520000  0.35450000  0.91130000  1
  C  C80  1  0.01950000  0.74750000  0.66330000  1
  C  C81  1  0.04010000  0.15330000  0.02490000  1
  C  C82  1  0.08960000  0.93950000  0.07570000  1
  C  C83  1  0.09110000  0.56890000  0.98620000  1
  C  C84  1  0.09190000  0.95050000  0.75590000  1
  C  C85  1  0.09270000  0.49930000  0.94420000  1
  C  C86  1  0.09720000  0.32090000  0.34260000  1
  C  C87  1  0.10390000  0.72330000  0.29760000  1
  C  C88  1  0.10670000  0.87160000  0.96600000  1
  C  C89  1  0.11110000  0.87740000  0.70860000  1
  C  C90  1  0.11200000  0.13450000  0.96480000  1
  C  C91  1  0.15000000  0.74250000  0.62530000  1
  C  C92  1  0.16030000  0.88000000  0.25850000  1
  C  C93  1  0.16890000  0.77580000  0.87150000  1
  C  C94  1  0.17030000  0.92280000  0.01580000  1
  C  C95  1  0.19890000  0.84330000  0.90870000  1
  C  C96  1  0.23270000  0.76190000  0.32210000  1
  C  C97  1  0.23860000  0.65880000  0.80010000  1
  C  C98  1  0.23900000  0.69580000  0.12720000  1
  C  C99  1  0.23980000  0.87220000  0.66880000  1
  C  C100  1  0.26020000  0.62780000  0.16880000  1
  C  C101  1  0.26100000  0.80420000  0.62720000  1
  C  C102  1  0.26140000  0.84120000  0.30010000  1
  C  C103  1  0.26730000  0.73810000  0.82210000  1
  C  C104  1  0.30110000  0.65670000  0.40870000  1
  C  C105  1  0.32970000  0.57720000  0.51580000  1
  C  C106  1  0.33110000  0.72420000  0.37150000  1
  C  C107  1  0.33970000  0.62000000  0.75850000  1
  C  C108  1  0.35000000  0.75750000  0.12530000  1
  C  C109  1  0.38800000  0.36550000  0.46480000  1
  C  C110  1  0.38890000  0.62260000  0.20860000  1
  C  C111  1  0.39330000  0.62840000  0.46600000  1
  C  C112  1  0.39610000  0.77670000  0.79760000  1
  C  C113  1  0.40280000  0.17910000  0.84260000  1
  C  C114  1  0.40730000  0.00070000  0.44420000  1
  C  C115  1  0.40810000  0.54950000  0.25590000  1
  C  C116  1  0.40890000  0.93110000  0.48620000  1
  C  C117  1  0.41040000  0.56050000  0.57570000  1
  C  C118  1  0.45990000  0.34670000  0.52490000  1
  C  C119  1  0.48050000  0.75250000  0.16330000  1
  C  C120  1  0.48480000  0.14550000  0.41130000  1
  C  C121  1  0.49250000  0.73510000  0.75710000  1
  C  C122  1  0.49790000  0.07030000  0.45710000  1
  C  C123  1  0.49910000  0.68500000  0.20530000  1
  C  C124  1  0.50090000  0.31500000  0.79470000  1
  C  C125  1  0.50210000  0.92970000  0.54290000  1
  C  C126  1  0.50750000  0.26490000  0.24290000  1
  C  C127  1  0.51520000  0.85450000  0.58870000  1
  C  C128  1  0.51950000  0.24750000  0.83670000  1
  C  C129  1  0.54010000  0.65330000  0.47510000  1
  C  C130  1  0.58960000  0.43950000  0.42430000  1
  C  C131  1  0.59110000  0.06890000  0.51380000  1
  C  C132  1  0.59190000  0.45050000  0.74410000  1
  C  C133  1  0.59270000  0.99930000  0.55580000  1
  C  C134  1  0.59720000  0.82090000  0.15740000  1
  C  C135  1  0.60390000  0.22330000  0.20240000  1
  C  C136  1  0.60670000  0.37160000  0.53400000  1
  C  C137  1  0.61110000  0.37740000  0.79140000  1
  C  C138  1  0.61200000  0.63450000  0.53520000  1
  C  C139  1  0.65000000  0.24250000  0.87470000  1
  C  C140  1  0.66030000  0.38000000  0.24150000  1
  C  C141  1  0.66890000  0.27580000  0.62850000  1
  C  C142  1  0.67030000  0.42280000  0.48420000  1
  C  C143  1  0.69890000  0.34330000  0.59130000  1
  C  C144  1  0.73270000  0.26190000  0.17790000  1
  C  C145  1  0.73860000  0.15880000  0.69990000  1
  C  C146  1  0.73900000  0.19580000  0.37280000  1
  C  C147  1  0.73980000  0.37220000  0.83120000  1
  C  C148  1  0.76020000  0.12780000  0.33120000  1
  C  C149  1  0.76100000  0.30420000  0.87280000  1
  C  C150  1  0.76140000  0.34120000  0.19990000  1
  C  C151  1  0.76730000  0.23810000  0.67790000  1
  C  C152  1  0.80110000  0.15670000  0.09130000  1
  C  C153  1  0.82970000  0.07720000  0.98420000  1
  C  C154  1  0.83110000  0.22420000  0.12850000  1
  C  C155  1  0.83970000  0.12000000  0.74150000  1
  C  C156  1  0.85000000  0.25750000  0.37470000  1
  C  C157  1  0.88800000  0.86550000  0.03520000  1
  C  C158  1  0.88890000  0.12260000  0.29140000  1
  C  C159  1  0.89330000  0.12840000  0.03400000  1
  C  C160  1  0.89610000  0.27670000  0.70240000  1
  C  C161  1  0.90280000  0.67910000  0.65740000  1
  C  C162  1  0.90730000  0.50070000  0.05580000  1
  C  C163  1  0.90810000  0.04950000  0.24410000  1
  C  C164  1  0.90890000  0.43110000  0.01380000  1
  C  C165  1  0.91040000  0.06050000  0.92430000  1
  C  C166  1  0.95990000  0.84670000  0.97510000  1
  C  C167  1  0.98050000  0.25250000  0.33670000  1
  C  C168  1  0.98480000  0.64550000  0.08870000  1
  C  C169  1  0.99250000  0.23510000  0.74290000  1
  C  C170  1  0.99790000  0.57030000  0.04290000  1
  C  C171  1  0.99910000  0.18500000  0.29470000  1
  N  N172  1  0.03370000  0.84380000  0.23800000  1
  N  N173  1  0.04830000  0.09070000  0.91354000  1
  N  N174  1  0.11030000  0.70370000  0.08930000  1
  N  N175  1  0.38970000  0.79630000  0.58930000  1
  N  N176  1  0.45170000  0.40930000  0.41354000  1
  N  N177  1  0.46630000  0.65620000  0.73800000  1
  N  N178  1  0.53370000  0.34380000  0.26200000  1
  N  N179  1  0.54830000  0.59070000  0.58646000  1
  N  N180  1  0.61030000  0.20370000  0.41070000  1
  N  N181  1  0.88970000  0.29630000  0.91070000  1
  N  N182  1  0.95170000  0.90930000  0.08646000  1
  N  N183  1  0.96630000  0.15620000  0.76200000  1
  O  O184  1  0.02380000  0.04370000  0.21034000  1
  O  O185  1  0.07790000  0.37980000  0.38100000  1
  O  O186  1  0.19810000  0.00460000  0.75946000  1
  O  O187  1  0.21580000  0.31290000  0.30788000  1
  O  O188  1  0.28420000  0.18710000  0.80788000  1
  O  O189  1  0.30190000  0.49540000  0.25946000  1
  O  O190  1  0.42210000  0.12020000  0.88100000  1
  O  O191  1  0.47620000  0.45630000  0.71034000  1
  O  O192  1  0.52380000  0.54370000  0.28966000  1
  O  O193  1  0.57790000  0.87980000  0.11900000  1
  O  O194  1  0.69810000  0.50460000  0.74054000  1
  O  O195  1  0.71580000  0.81290000  0.19212000  1
  O  O196  1  0.78420000  0.68710000  0.69212000  1
  O  O197  1  0.80190000  0.99540000  0.24054000  1
  O  O198  1  0.92210000  0.62020000  0.61900000  1
  O  O199  1  0.97620000  0.95630000  0.78966000  1
