# generated using pymatgen
data_Zn11P12H96C168N12O73
_symmetry_space_group_name_H-M   'P 1'
_cell_length_a   34.00110000
_cell_length_b   34.00110000
_cell_length_c   54.95950000
_cell_angle_alpha   71.98120000
_cell_angle_beta   71.98120000
_cell_angle_gamma   60.00000000
_symmetry_Int_Tables_number   1
_chemical_formula_structural   Zn11P12H96C168N12O73
_chemical_formula_sum   'Zn44 P48 H384 C672 N48 O292'
_cell_volume   51395.17239424
_cell_formula_units_Z   4
loop_
 _symmetry_equiv_pos_site_id
 _symmetry_equiv_pos_as_xyz
  1  'x, y, z'
loop_
 _atom_site_type_symbol
 _atom_site_label
 _atom_site_symmetry_multiplicity
 _atom_site_fract_x
 _atom_site_fract_y
 _atom_site_fract_z
 _atom_site_occupancy
  Zn  Zn0  1  0.83607000  0.98202000  0.49385000  1
  Zn  Zn1  1  0.87013000  0.92418000  0.78320000  1
  Zn  Zn2  1  0.37013000  0.92249000  0.28320000  1
  Zn  Zn3  1  0.84347000  0.89602000  0.47180000  1
  Zn  Zn4  1  0.88348000  0.88348000  0.34956000  1
  Zn  Zn5  1  0.42249000  0.87013000  0.78320000  1
  Zn  Zn6  1  0.85967000  0.85967000  0.42099000  1
  Zn  Zn7  1  0.78871000  0.84347000  0.47180000  1
  Zn  Zn8  1  0.68806000  0.83607000  0.49385000  1
  Zn  Zn9  1  0.66393000  0.81194000  0.00615000  1
  Zn  Zn10  1  0.89602000  0.78871000  0.47180000  1
  Zn  Zn11  1  0.65653000  0.71129000  0.02820000  1
  Zn  Zn12  1  0.98202000  0.68806000  0.49385000  1
  Zn  Zn13  1  0.51798000  0.66393000  0.00615000  1
  Zn  Zn14  1  0.60398000  0.65653000  0.02820000  1
  Zn  Zn15  1  0.64033000  0.64033000  0.07901000  1
  Zn  Zn16  1  0.57582000  0.62987000  0.71680000  1
  Zn  Zn17  1  0.61652000  0.61652000  0.15044000  1
  Zn  Zn18  1  0.71129000  0.60398000  0.02820000  1
  Zn  Zn19  1  0.07582000  0.57751000  0.21680000  1
  Zn  Zn20  1  0.07751000  0.57582000  0.71680000  1
  Zn  Zn21  1  0.81194000  0.51798000  0.00615000  1
  Zn  Zn22  1  0.18806000  0.48202000  0.99385000  1
  Zn  Zn23  1  0.92249000  0.42418000  0.28320000  1
  Zn  Zn24  1  0.92418000  0.42249000  0.78320000  1
  Zn  Zn25  1  0.28871000  0.39602000  0.97180000  1
  Zn  Zn26  1  0.38348000  0.38348000  0.84956000  1
  Zn  Zn27  1  0.42418000  0.37013000  0.28320000  1
  Zn  Zn28  1  0.35967000  0.35967000  0.92099000  1
  Zn  Zn29  1  0.39602000  0.34347000  0.97180000  1
  Zn  Zn30  1  0.48202000  0.33607000  0.99385000  1
  Zn  Zn31  1  0.01798000  0.31194000  0.50615000  1
  Zn  Zn32  1  0.34347000  0.28871000  0.97180000  1
  Zn  Zn33  1  0.10398000  0.21129000  0.52820000  1
  Zn  Zn34  1  0.33607000  0.18806000  0.99385000  1
  Zn  Zn35  1  0.31194000  0.16393000  0.50615000  1
  Zn  Zn36  1  0.21129000  0.15653000  0.52820000  1
  Zn  Zn37  1  0.14033000  0.14033000  0.57901000  1
  Zn  Zn38  1  0.57751000  0.12987000  0.21680000  1
  Zn  Zn39  1  0.11652000  0.11652000  0.65044000  1
  Zn  Zn40  1  0.15653000  0.10398000  0.52820000  1
  Zn  Zn41  1  0.62987000  0.07751000  0.71680000  1
  Zn  Zn42  1  0.12987000  0.07582000  0.21680000  1
  Zn  Zn43  1  0.16393000  0.01798000  0.50615000  1
  P  P44  1  0.10291000  0.91571000  0.38297000  1
  P  P45  1  0.36239000  0.90779000  0.07773000  1
  P  P46  1  0.39709000  0.90159000  0.11703000  1
  P  P47  1  0.40159000  0.89709000  0.61703000  1
  P  P48  1  0.40779000  0.86239000  0.57773000  1
  P  P49  1  0.34846000  0.85556000  0.62402000  1
  P  P50  1  0.35556000  0.84846000  0.12402000  1
  P  P51  1  0.13761000  0.84791000  0.42227000  1
  P  P52  1  0.73960000  0.82870000  0.64190000  1
  P  P53  1  0.14444000  0.82804000  0.37598000  1
  P  P54  1  0.82870000  0.78980000  0.64190000  1
  P  P55  1  0.67130000  0.76040000  0.85810000  1
  P  P56  1  0.78980000  0.73960000  0.64190000  1
  P  P57  1  0.76040000  0.71020000  0.85810000  1
  P  P58  1  0.84846000  0.67196000  0.12402000  1
  P  P59  1  0.71020000  0.67130000  0.85810000  1
  P  P60  1  0.90779000  0.65209000  0.07773000  1
  P  P61  1  0.82804000  0.65154000  0.37598000  1
  P  P62  1  0.32804000  0.64444000  0.87598000  1
  P  P63  1  0.34791000  0.63761000  0.92227000  1
  P  P64  1  0.41571000  0.60291000  0.88297000  1
  P  P65  1  0.91571000  0.59841000  0.38297000  1
  P  P66  1  0.84791000  0.59221000  0.42227000  1
  P  P67  1  0.90159000  0.58429000  0.11703000  1
  P  P68  1  0.09841000  0.41571000  0.88297000  1
  P  P69  1  0.15209000  0.40779000  0.57773000  1
  P  P70  1  0.08429000  0.40159000  0.61703000  1
  P  P71  1  0.58429000  0.39709000  0.11703000  1
  P  P72  1  0.65209000  0.36239000  0.07773000  1
  P  P73  1  0.67196000  0.35556000  0.12402000  1
  P  P74  1  0.17196000  0.34846000  0.62402000  1
  P  P75  1  0.09221000  0.34791000  0.92227000  1
  P  P76  1  0.28980000  0.32870000  0.14190000  1
  P  P77  1  0.15154000  0.32804000  0.87598000  1
  P  P78  1  0.23960000  0.28980000  0.14190000  1
  P  P79  1  0.21020000  0.26040000  0.35810000  1
  P  P80  1  0.32870000  0.23960000  0.14190000  1
  P  P81  1  0.17130000  0.21020000  0.35810000  1
  P  P82  1  0.85556000  0.17196000  0.62402000  1
  P  P83  1  0.26040000  0.17130000  0.35810000  1
  P  P84  1  0.86239000  0.15209000  0.57773000  1
  P  P85  1  0.64444000  0.15154000  0.87598000  1
  P  P86  1  0.65154000  0.14444000  0.37598000  1
  P  P87  1  0.59221000  0.13761000  0.42227000  1
  P  P88  1  0.59841000  0.10291000  0.38297000  1
  P  P89  1  0.60291000  0.09841000  0.88297000  1
  P  P90  1  0.63761000  0.09221000  0.92227000  1
  P  P91  1  0.89709000  0.08429000  0.61703000  1
  H  H92  1  0.35560000  0.99840000  0.57890000  1
  H  H93  1  0.78900000  0.99310000  0.87040000  1
  H  H94  1  0.69490000  0.99030000  0.90400000  1
  H  H95  1  0.32940000  0.99020000  0.02340000  1
  H  H96  1  0.72650000  0.98460000  0.45950000  1
  H  H97  1  0.78290000  0.98350000  0.40790000  1
  H  H98  1  0.41170000  0.98150000  0.13980000  1
  H  H99  1  0.61430000  0.98080000  0.68660000  1
  H  H100  1  0.31770000  0.97960000  0.65720000  1
  H  H101  1  0.60600000  0.97820000  0.48770000  1
  H  H102  1  0.42650000  0.97660000  0.18000000  1
  H  H103  1  0.14310000  0.97370000  0.28460000  1
  H  H104  1  0.19210000  0.96850000  0.41990000  1
  H  H105  1  0.91170000  0.96700000  0.63980000  1
  H  H106  1  0.75540000  0.96580000  0.56150000  1
  H  H107  1  0.26150000  0.95990000  0.62240000  1
  H  H108  1  0.75290000  0.95540000  0.34700000  1
  H  H109  1  0.02040000  0.95450000  0.34280000  1
  H  H110  1  0.95540000  0.94470000  0.34700000  1
  H  H111  1  0.43270000  0.94230000  0.52610000  1
  H  H112  1  0.71770000  0.94210000  0.42500000  1
  H  H113  1  0.22830000  0.94200000  0.20310000  1
  H  H114  1  0.72800000  0.93780000  0.60500000  1
  H  H115  1  0.26530000  0.93740000  0.11490000  1
  H  H116  1  0.31370000  0.93490000  0.55370000  1
  H  H117  1  0.67190000  0.93470000  0.99370000  1
  H  H118  1  0.00160000  0.93290000  0.42110000  1
  H  H119  1  0.44230000  0.93270000  0.02610000  1
  H  H120  1  0.97820000  0.92810000  0.48770000  1
  H  H121  1  0.47660000  0.92650000  0.68000000  1
  H  H122  1  0.15510000  0.92440000  0.32510000  1
  H  H123  1  0.69210000  0.91950000  0.91990000  1
  H  H124  1  0.21780000  0.91710000  0.56690000  1
  H  H125  1  0.92650000  0.91690000  0.68000000  1
  H  H126  1  0.63030000  0.91680000  0.66950000  1
  H  H127  1  0.94210000  0.91520000  0.42500000  1
  H  H128  1  0.48150000  0.91170000  0.63980000  1
  H  H129  1  0.19490000  0.91080000  0.40400000  1
  H  H130  1  0.73980000  0.90860000  0.70730000  1
  H  H131  1  0.34490000  0.90460000  0.17490000  1
  H  H132  1  0.35690000  0.90140000  0.21540000  1
  H  H133  1  0.05770000  0.90110000  0.47390000  1
  H  H134  1  0.17190000  0.89970000  0.49370000  1
  H  H135  1  0.52180000  0.89400000  0.01230000  1
  H  H136  1  0.51920000  0.88570000  0.81340000  1
  H  H137  1  0.27170000  0.87340000  0.29690000  1
  H  H138  1  0.27530000  0.87240000  0.18780000  1
  H  H139  1  0.58320000  0.86970000  0.83050000  1
  H  H140  1  0.26580000  0.86090000  0.59570000  1
  H  H141  1  0.40140000  0.85690000  0.71540000  1
  H  H142  1  0.76630000  0.85600000  0.54170000  1
  H  H143  1  0.76020000  0.85570000  0.79270000  1
  H  H144  1  0.49840000  0.85560000  0.07890000  1
  H  H145  1  0.83320000  0.85090000  0.58430000  1
  H  H146  1  0.75280000  0.84780000  0.69140000  1
  H  H147  1  0.28900000  0.84750000  0.37040000  1
  H  H148  1  0.40460000  0.84490000  0.67490000  1
  H  H149  1  0.04010000  0.84380000  0.37760000  1
  H  H150  1  0.17060000  0.84300000  0.47660000  1
  H  H151  1  0.85600000  0.83600000  0.54170000  1
  H  H152  1  0.22470000  0.83550000  0.31220000  1
  H  H153  1  0.73160000  0.83320000  0.58430000  1
  H  H154  1  0.98460000  0.82940000  0.45950000  1
  H  H155  1  0.49020000  0.82940000  0.52340000  1
  H  H156  1  0.56530000  0.82810000  0.50630000  1
  H  H157  1  0.98350000  0.82570000  0.40790000  1
  H  H158  1  0.47960000  0.81770000  0.15720000  1
  H  H159  1  0.23470000  0.81760000  0.38510000  1
  H  H160  1  0.43490000  0.81370000  0.05370000  1
  H  H161  1  0.58050000  0.80790000  0.58010000  1
  H  H162  1  0.50970000  0.80510000  0.59600000  1
  H  H163  1  0.06510000  0.80230000  0.44630000  1
  H  H164  1  0.71780000  0.79820000  0.06690000  1
  H  H165  1  0.74720000  0.79200000  0.80860000  1
  H  H166  1  0.34750000  0.78900000  0.87040000  1
  H  H167  1  0.91680000  0.78340000  0.66950000  1
  H  H168  1  0.82570000  0.78290000  0.40790000  1
  H  H169  1  0.74460000  0.78270000  0.93850000  1
  H  H170  1  0.55790000  0.78230000  0.07500000  1
  H  H171  1  0.70180000  0.78220000  0.43310000  1
  H  H172  1  0.88570000  0.78170000  0.81340000  1
  H  H173  1  0.76580000  0.77760000  0.09570000  1
  H  H174  1  0.37240000  0.77530000  0.68780000  1
  H  H175  1  0.51540000  0.77350000  0.04050000  1
  H  H176  1  0.56220000  0.77200000  0.89500000  1
  H  H177  1  0.37340000  0.77170000  0.79690000  1
  H  H178  1  0.77200000  0.77080000  0.89500000  1
  H  H179  1  0.66680000  0.76840000  0.91570000  1
  H  H180  1  0.83600000  0.76630000  0.54170000  1
  H  H181  1  0.36090000  0.76580000  0.09570000  1
  H  H182  1  0.43740000  0.76530000  0.61490000  1
  H  H183  1  0.45990000  0.76150000  0.12240000  1
  H  H184  1  0.59140000  0.76020000  0.79270000  1
  H  H185  1  0.71730000  0.75540000  0.56150000  1
  H  H186  1  0.94470000  0.75290000  0.34700000  1
  H  H187  1  0.70800000  0.75280000  0.69140000  1
  H  H188  1  0.65220000  0.74720000  0.80860000  1
  H  H189  1  0.54460000  0.74710000  0.15300000  1
  H  H190  1  0.53420000  0.74460000  0.93850000  1
  H  H191  1  0.64430000  0.73980000  0.70730000  1
  H  H192  1  0.84380000  0.73850000  0.37760000  1
  H  H193  1  0.31760000  0.73470000  0.88510000  1
  H  H194  1  0.72240000  0.73420000  0.40430000  1
  H  H195  1  0.64400000  0.73370000  0.95830000  1
  H  H196  1  0.85090000  0.73160000  0.58430000  1
  H  H197  1  0.93780000  0.72920000  0.60500000  1
  H  H198  1  0.44200000  0.72830000  0.70310000  1
  H  H199  1  0.72920000  0.72800000  0.60500000  1
  H  H200  1  0.82940000  0.72650000  0.45950000  1
  H  H201  1  0.33550000  0.72470000  0.81220000  1
  H  H202  1  0.13910000  0.72240000  0.40430000  1
  H  H203  1  0.98080000  0.71830000  0.68660000  1
  H  H204  1  0.41710000  0.71780000  0.06690000  1
  H  H205  1  0.91520000  0.71770000  0.42500000  1
  H  H206  1  0.96580000  0.71730000  0.56150000  1
  H  H207  1  0.51650000  0.71710000  0.09210000  1
  H  H208  1  0.86970000  0.71660000  0.83050000  1
  H  H209  1  0.50690000  0.71100000  0.62960000  1
  H  H210  1  0.84780000  0.70800000  0.69140000  1
  H  H211  1  0.08290000  0.70180000  0.43310000  1
  H  H212  1  0.81370000  0.69770000  0.05370000  1
  H  H213  1  0.41080000  0.69490000  0.90400000  1
  H  H214  1  0.46850000  0.69210000  0.91990000  1
  H  H215  1  0.80230000  0.68630000  0.44630000  1
  H  H216  1  0.93740000  0.68240000  0.11490000  1
  H  H217  1  0.95450000  0.68230000  0.34280000  1
  H  H218  1  0.71710000  0.67430000  0.09210000  1
  H  H219  1  0.39970000  0.67190000  0.99370000  1
  H  H220  1  0.77350000  0.67060000  0.04050000  1
  H  H221  1  0.34300000  0.67060000  0.97660000  1
  H  H222  1  0.64910000  0.66680000  0.91570000  1
  H  H223  1  0.87240000  0.66450000  0.18780000  1
  H  H224  1  0.73370000  0.66400000  0.95830000  1
  H  H225  1  0.99020000  0.65700000  0.02340000  1
  H  H226  1  0.76150000  0.65620000  0.12240000  1
  H  H227  1  0.42440000  0.65510000  0.82510000  1
  H  H228  1  0.00690000  0.65250000  0.12960000  1
  H  H229  1  0.79200000  0.65220000  0.80860000  1
  H  H230  1  0.76840000  0.64910000  0.91570000  1
  H  H231  1  0.93290000  0.64440000  0.42110000  1
  H  H232  1  0.90860000  0.64430000  0.70730000  1
  H  H233  1  0.66400000  0.64400000  0.95830000  1
  H  H234  1  0.47370000  0.64310000  0.78460000  1
  H  H235  1  0.22240000  0.63910000  0.90430000  1
  H  H236  1  0.78340000  0.63030000  0.66950000  1
  H  H237  1  0.83550000  0.62760000  0.31220000  1
  H  H238  1  0.94200000  0.62660000  0.20310000  1
  H  H239  1  0.71830000  0.61430000  0.68660000  1
  H  H240  1  0.92810000  0.60600000  0.48770000  1
  H  H241  1  0.06530000  0.60030000  0.00630000  1
  H  H242  1  0.93270000  0.59890000  0.02610000  1
  H  H243  1  0.97370000  0.59860000  0.28460000  1
  H  H244  1  0.92440000  0.59540000  0.32510000  1
  H  H245  1  0.85570000  0.59140000  0.79270000  1
  H  H246  1  0.00970000  0.58920000  0.09600000  1
  H  H247  1  0.53300000  0.58830000  0.86020000  1
  H  H248  1  0.78230000  0.58480000  0.07500000  1
  H  H249  1  0.71660000  0.58320000  0.83050000  1
  H  H250  1  0.02340000  0.58310000  0.82000000  1
  H  H251  1  0.20180000  0.58290000  0.93310000  1
  H  H252  1  0.03150000  0.58050000  0.58010000  1
  H  H253  1  0.90460000  0.57560000  0.17490000  1
  H  H254  1  0.58310000  0.57350000  0.82000000  1
  H  H255  1  0.89400000  0.57190000  0.01230000  1
  H  H256  1  0.90110000  0.56730000  0.47390000  1
  H  H257  1  0.85560000  0.56710000  0.07890000  1
  H  H258  1  0.10030000  0.56530000  0.50630000  1
  H  H259  1  0.30230000  0.56510000  0.94630000  1
  H  H260  1  0.81760000  0.56260000  0.38510000  1
  H  H261  1  0.77080000  0.56220000  0.89500000  1
  H  H262  1  0.87340000  0.55800000  0.29690000  1
  H  H263  1  0.58480000  0.55790000  0.07500000  1
  H  H264  1  0.40110000  0.55770000  0.97390000  1
  H  H265  1  0.74710000  0.55530000  0.15300000  1
  H  H266  1  0.81770000  0.54550000  0.15720000  1
  H  H267  1  0.55530000  0.54460000  0.15300000  1
  H  H268  1  0.34380000  0.54010000  0.87760000  1
  H  H269  1  0.78270000  0.53420000  0.93850000  1
  H  H270  1  0.01850000  0.53300000  0.86020000  1
  H  H271  1  0.08050000  0.53150000  0.08010000  1
  H  H272  1  0.90140000  0.52630000  0.21540000  1
  H  H273  1  0.08310000  0.52340000  0.32000000  1
  H  H274  1  0.57190000  0.52180000  0.01230000  1
  H  H275  1  0.45450000  0.52040000  0.84280000  1
  H  H276  1  0.78170000  0.51920000  0.81340000  1
  H  H277  1  0.03300000  0.51850000  0.36020000  1
  H  H278  1  0.67430000  0.51650000  0.09210000  1
  H  H279  1  0.67060000  0.51540000  0.04050000  1
  H  H280  1  0.84300000  0.50980000  0.47660000  1
  H  H281  1  0.08920000  0.50970000  0.59600000  1
  H  H282  1  0.15250000  0.50690000  0.62960000  1
  H  H283  1  0.43290000  0.50160000  0.92110000  1
  H  H284  1  0.56710000  0.49840000  0.07890000  1
  H  H285  1  0.84750000  0.49310000  0.37040000  1
  H  H286  1  0.91080000  0.49030000  0.40400000  1
  H  H287  1  0.15700000  0.49020000  0.52340000  1
  H  H288  1  0.32940000  0.48460000  0.95950000  1
  H  H289  1  0.32570000  0.48350000  0.90790000  1
  H  H290  1  0.96700000  0.48150000  0.63980000  1
  H  H291  1  0.21830000  0.48080000  0.18660000  1
  H  H292  1  0.54550000  0.47960000  0.15720000  1
  H  H293  1  0.42810000  0.47820000  0.98770000  1
  H  H294  1  0.91690000  0.47660000  0.68000000  1
  H  H295  1  0.09860000  0.47370000  0.78460000  1
  H  H296  1  0.91950000  0.46850000  0.91990000  1
  H  H297  1  0.98150000  0.46700000  0.13980000  1
  H  H298  1  0.21730000  0.46580000  0.06150000  1
  H  H299  1  0.65620000  0.45990000  0.12240000  1
  H  H300  1  0.44470000  0.45540000  0.84700000  1
  H  H301  1  0.18230000  0.45450000  0.84280000  1
  H  H302  1  0.25290000  0.44470000  0.84700000  1
  H  H303  1  0.59890000  0.44230000  0.02610000  1
  H  H304  1  0.41520000  0.44210000  0.92500000  1
  H  H305  1  0.12660000  0.44200000  0.70310000  1
  H  H306  1  0.22920000  0.43780000  0.10500000  1
  H  H307  1  0.18240000  0.43740000  0.61490000  1
  H  H308  1  0.69770000  0.43490000  0.05370000  1
  H  H309  1  0.89970000  0.43470000  0.49370000  1
  H  H310  1  0.14440000  0.43290000  0.92110000  1
  H  H311  1  0.09890000  0.43270000  0.52610000  1
  H  H312  1  0.10600000  0.42810000  0.98770000  1
  H  H313  1  0.41690000  0.42650000  0.18000000  1
  H  H314  1  0.09540000  0.42440000  0.82510000  1
  H  H315  1  0.96850000  0.41950000  0.41990000  1
  H  H316  1  0.79820000  0.41710000  0.06690000  1
  H  H317  1  0.97660000  0.41690000  0.18000000  1
  H  H318  1  0.28340000  0.41680000  0.16950000  1
  H  H319  1  0.21770000  0.41520000  0.92500000  1
  H  H320  1  0.46700000  0.41170000  0.13980000  1
  H  H321  1  0.99030000  0.41080000  0.90400000  1
  H  H322  1  0.14430000  0.40860000  0.20730000  1
  H  H323  1  0.07560000  0.40460000  0.67490000  1
  H  H324  1  0.02630000  0.40140000  0.71540000  1
  H  H325  1  0.06730000  0.40110000  0.97390000  1
  H  H326  1  0.93470000  0.39970000  0.99370000  1
  H  H327  1  0.07190000  0.39400000  0.51230000  1
  H  H328  1  0.28170000  0.38570000  0.31340000  1
  H  H329  1  0.05800000  0.37340000  0.79690000  1
  H  H330  1  0.16450000  0.37240000  0.68780000  1
  H  H331  1  0.21660000  0.36970000  0.33050000  1
  H  H332  1  0.77760000  0.36090000  0.09570000  1
  H  H333  1  0.52630000  0.35690000  0.21540000  1
  H  H334  1  0.33600000  0.35600000  0.04170000  1
  H  H335  1  0.09140000  0.35570000  0.29270000  1
  H  H336  1  0.06710000  0.35560000  0.57890000  1
  H  H337  1  0.23160000  0.35090000  0.08430000  1
  H  H338  1  0.20800000  0.34780000  0.19140000  1
  H  H339  1  0.99310000  0.34750000  0.87040000  1
  H  H340  1  0.57560000  0.34490000  0.17490000  1
  H  H341  1  0.23850000  0.34380000  0.87760000  1
  H  H342  1  0.00980000  0.34300000  0.97660000  1
  H  H343  1  0.26630000  0.33600000  0.04170000  1
  H  H344  1  0.12760000  0.33550000  0.81220000  1
  H  H345  1  0.35090000  0.33320000  0.08430000  1
  H  H346  1  0.65700000  0.32940000  0.02340000  1
  H  H347  1  0.22650000  0.32940000  0.95950000  1
  H  H348  1  0.60030000  0.32810000  0.00630000  1
  H  H349  1  0.28290000  0.32570000  0.90790000  1
  H  H350  1  0.04550000  0.31770000  0.65720000  1
  H  H351  1  0.06260000  0.31760000  0.88510000  1
  H  H352  1  0.19770000  0.31370000  0.55370000  1
  H  H353  1  0.53150000  0.30790000  0.08010000  1
  H  H354  1  0.58920000  0.30510000  0.09600000  1
  H  H355  1  0.18630000  0.30230000  0.94630000  1
  H  H356  1  0.91710000  0.29820000  0.56690000  1
  H  H357  1  0.15220000  0.29200000  0.30860000  1
  H  H358  1  0.49310000  0.28900000  0.37040000  1
  H  H359  1  0.13030000  0.28340000  0.16950000  1
  H  H360  1  0.48350000  0.28290000  0.90790000  1
  H  H361  1  0.03420000  0.28270000  0.43850000  1
  H  H362  1  0.08480000  0.28230000  0.57500000  1
  H  H363  1  0.58290000  0.28220000  0.93310000  1
  H  H364  1  0.01920000  0.28170000  0.31340000  1
  H  H365  1  0.86090000  0.27760000  0.59570000  1
  H  H366  1  0.66450000  0.27530000  0.18780000  1
  H  H367  1  0.17060000  0.27350000  0.54050000  1
  H  H368  1  0.27080000  0.27200000  0.39500000  1
  H  H369  1  0.55800000  0.27170000  0.29690000  1
  H  H370  1  0.06220000  0.27080000  0.39500000  1
  H  H371  1  0.14910000  0.26840000  0.41570000  1
  H  H372  1  0.35600000  0.26630000  0.04170000  1
  H  H373  1  0.27760000  0.26580000  0.59570000  1
  H  H374  1  0.68240000  0.26530000  0.11490000  1
  H  H375  1  0.15620000  0.26150000  0.62240000  1
  H  H376  1  0.35570000  0.26020000  0.29270000  1
  H  H377  1  0.46580000  0.25540000  0.06150000  1
  H  H378  1  0.45540000  0.25290000  0.84700000  1
  H  H379  1  0.34780000  0.25280000  0.19140000  1
  H  H380  1  0.29200000  0.24720000  0.30860000  1
  H  H381  1  0.05530000  0.24710000  0.65300000  1
  H  H382  1  0.28270000  0.24460000  0.43850000  1
  H  H383  1  0.40860000  0.23980000  0.20730000  1
  H  H384  1  0.54010000  0.23850000  0.87760000  1
  H  H385  1  0.56260000  0.23470000  0.38510000  1
  H  H386  1  0.63910000  0.23420000  0.90430000  1
  H  H387  1  0.16400000  0.23370000  0.45830000  1
  H  H388  1  0.33320000  0.23160000  0.08430000  1
  H  H389  1  0.22800000  0.22920000  0.10500000  1
  H  H390  1  0.62660000  0.22830000  0.20310000  1
  H  H391  1  0.43780000  0.22800000  0.10500000  1
  H  H392  1  0.48460000  0.22650000  0.95950000  1
  H  H393  1  0.62760000  0.22470000  0.31220000  1
  H  H394  1  0.23420000  0.22240000  0.90430000  1
  H  H395  1  0.11430000  0.21830000  0.18660000  1
  H  H396  1  0.29820000  0.21780000  0.56690000  1
  H  H397  1  0.44210000  0.21770000  0.92500000  1
  H  H398  1  0.25540000  0.21730000  0.06150000  1
  H  H399  1  0.17430000  0.21710000  0.59210000  1
  H  H400  1  0.08320000  0.21660000  0.33050000  1
  H  H401  1  0.65250000  0.21100000  0.12960000  1
  H  H402  1  0.25280000  0.20800000  0.19140000  1
  H  H403  1  0.28220000  0.20180000  0.93310000  1
  H  H404  1  0.93490000  0.19770000  0.55370000  1
  H  H405  1  0.49030000  0.19490000  0.40400000  1
  H  H406  1  0.41950000  0.19210000  0.41990000  1
  H  H407  1  0.56510000  0.18630000  0.94630000  1
  H  H408  1  0.76530000  0.18240000  0.61490000  1
  H  H409  1  0.52040000  0.18230000  0.84280000  1
  H  H410  1  0.01650000  0.17430000  0.59210000  1
  H  H411  1  0.43470000  0.17190000  0.49370000  1
  H  H412  1  0.50980000  0.17060000  0.47660000  1
  H  H413  1  0.01540000  0.17060000  0.54050000  1
  H  H414  1  0.26840000  0.16680000  0.41570000  1
  H  H415  1  0.77530000  0.16450000  0.68780000  1
  H  H416  1  0.14400000  0.16400000  0.45830000  1
  H  H417  1  0.82940000  0.15700000  0.52340000  1
  H  H418  1  0.95990000  0.15620000  0.62240000  1
  H  H419  1  0.59540000  0.15510000  0.32510000  1
  H  H420  1  0.71100000  0.15250000  0.62960000  1
  H  H421  1  0.24720000  0.15220000  0.30860000  1
  H  H422  1  0.16680000  0.14910000  0.41570000  1
  H  H423  1  0.50160000  0.14440000  0.92110000  1
  H  H424  1  0.23980000  0.14430000  0.20730000  1
  H  H425  1  0.23370000  0.14400000  0.45830000  1
  H  H426  1  0.59860000  0.14310000  0.28460000  1
  H  H427  1  0.73420000  0.13910000  0.40430000  1
  H  H428  1  0.41680000  0.13030000  0.16950000  1
  H  H429  1  0.72470000  0.12760000  0.81220000  1
  H  H430  1  0.72830000  0.12660000  0.70310000  1
  H  H431  1  0.48080000  0.11430000  0.18660000  1
  H  H432  1  0.47820000  0.10600000  0.98770000  1
  H  H433  1  0.82810000  0.10030000  0.50630000  1
  H  H434  1  0.94230000  0.09890000  0.52610000  1
  H  H435  1  0.64310000  0.09860000  0.78460000  1
  H  H436  1  0.65510000  0.09540000  0.82510000  1
  H  H437  1  0.26020000  0.09140000  0.29270000  1
  H  H438  1  0.80510000  0.08920000  0.59600000  1
  H  H439  1  0.51850000  0.08830000  0.36020000  1
  H  H440  1  0.05790000  0.08480000  0.57500000  1
  H  H441  1  0.36970000  0.08320000  0.33050000  1
  H  H442  1  0.07350000  0.08310000  0.32000000  1
  H  H443  1  0.78220000  0.08290000  0.43310000  1
  H  H444  1  0.30790000  0.08050000  0.08010000  1
  H  H445  1  0.84490000  0.07560000  0.67490000  1
  H  H446  1  0.52340000  0.07350000  0.32000000  1
  H  H447  1  0.02180000  0.07190000  0.51230000  1
  H  H448  1  0.55770000  0.06730000  0.97390000  1
  H  H449  1  0.99840000  0.06710000  0.57890000  1
  H  H450  1  0.32810000  0.06530000  0.00630000  1
  H  H451  1  0.68630000  0.06510000  0.44630000  1
  H  H452  1  0.73470000  0.06260000  0.88510000  1
  H  H453  1  0.27200000  0.06220000  0.39500000  1
  H  H454  1  0.77170000  0.05800000  0.79690000  1
  H  H455  1  0.28230000  0.05790000  0.57500000  1
  H  H456  1  0.56730000  0.05770000  0.47390000  1
  H  H457  1  0.04460000  0.05530000  0.65300000  1
  H  H458  1  0.97960000  0.04550000  0.65720000  1
  H  H459  1  0.24710000  0.04460000  0.65300000  1
  H  H460  1  0.73850000  0.04010000  0.37760000  1
  H  H461  1  0.24460000  0.03420000  0.43850000  1
  H  H462  1  0.08830000  0.03300000  0.36020000  1
  H  H463  1  0.80790000  0.03150000  0.58010000  1
  H  H464  1  0.85690000  0.02630000  0.71540000  1
  H  H465  1  0.57350000  0.02340000  0.82000000  1
  H  H466  1  0.39400000  0.02180000  0.51230000  1
  H  H467  1  0.68230000  0.02040000  0.34280000  1
  H  H468  1  0.38570000  0.01920000  0.31340000  1
  H  H469  1  0.58830000  0.01850000  0.86020000  1
  H  H470  1  0.21710000  0.01650000  0.59210000  1
  H  H471  1  0.27350000  0.01540000  0.54050000  1
  H  H472  1  0.67060000  0.00980000  0.97660000  1
  H  H473  1  0.30510000  0.00970000  0.09600000  1
  H  H474  1  0.21100000  0.00690000  0.12960000  1
  H  H475  1  0.64440000  0.00160000  0.42110000  1
  C  C476  1  0.69438000  0.99948000  0.46226000  1
  C  C477  1  0.31101000  0.99611000  0.64067000  1
  C  C478  1  0.62226000  0.99546000  0.47912000  1
  C  C479  1  0.31712000  0.99522000  0.05994000  1
  C  C480  1  0.80832000  0.99482000  0.44384000  1
  C  C481  1  0.66691000  0.99311000  0.40637000  1
  C  C482  1  0.67551000  0.99121000  0.96547000  1
  C  C483  1  0.67064000  0.98974000  0.70658000  1
  C  C484  1  0.13309000  0.98569000  0.29963000  1
  C  C485  1  0.22702000  0.98522000  0.59294000  1
  C  C486  1  0.34324000  0.98354000  0.61868000  1
  C  C487  1  0.21386000  0.98106000  0.16722000  1
  C  C488  1  0.22480000  0.98020000  0.14130000  1
  C  C489  1  0.68945000  0.97915000  0.92185000  1
  C  C490  1  0.90079000  0.97859000  0.65513000  1
  C  C491  1  0.81840000  0.97690000  0.82270000  1
  C  C492  1  0.17610000  0.97560000  0.46820000  1
  C  C493  1  0.66892000  0.97542000  0.47384000  1
  C  C494  1  0.12270000  0.97510000  0.34550000  1
  C  C495  1  0.21578000  0.97038000  0.57626000  1
  C  C496  1  0.88860000  0.96720000  0.70130000  1
  C  C497  1  0.73181000  0.96651000  0.36167000  1
  C  C498  1  0.40079000  0.96549000  0.15513000  1
  C  C499  1  0.40848000  0.96378000  0.17916000  1
  C  C500  1  0.71014000  0.95784000  0.40868000  1
  C  C501  1  0.40061000  0.95731000  0.52877000  1
  C  C502  1  0.13950000  0.95630000  0.32390000  1
  C  C503  1  0.64251000  0.95441000  0.68717000  1
  C  C504  1  0.32965000  0.95255000  0.54545000  1
  C  C505  1  0.67582000  0.95172000  0.69764000  1
  C  C506  1  0.25359000  0.95149000  0.61073000  1
  C  C507  1  0.90848000  0.94858000  0.67916000  1
  C  C508  1  0.00389000  0.94779000  0.35933000  1
  C  C509  1  0.67501000  0.94681000  0.97597000  1
  C  C510  1  0.74263000  0.94603000  0.38591000  1
  C  C511  1  0.01646000  0.94546000  0.38132000  1
  C  C512  1  0.18774000  0.94364000  0.43118000  1
  C  C513  1  0.37730000  0.94330000  0.15450000  1
  C  C514  1  0.38860000  0.94290000  0.20130000  1
  C  C515  1  0.39637000  0.94207000  0.22569000  1
  C  C516  1  0.23422000  0.94112000  0.18564000  1
  C  C517  1  0.96651000  0.94001000  0.36167000  1
  C  C518  1  0.17957000  0.93987000  0.45749000  1
  C  C519  1  0.25681000  0.93881000  0.13257000  1
  C  C520  1  0.75202000  0.93872000  0.56624000  1
  C  C521  1  0.68774000  0.93744000  0.93118000  1
  C  C522  1  0.89637000  0.93587000  0.72569000  1
  C  C523  1  0.99311000  0.93361000  0.40637000  1
  C  C524  1  0.37614000  0.93254000  0.54068000  1
  C  C525  1  0.69445000  0.92595000  0.47975000  1
  C  C526  1  0.22786000  0.92546000  0.57752000  1
  C  C527  1  0.94603000  0.92543000  0.38591000  1
  C  C528  1  0.78620000  0.92420000  0.52250000  1
  C  C529  1  0.95784000  0.92334000  0.40868000  1
  C  C530  1  0.67957000  0.92307000  0.95749000  1
  C  C531  1  0.73401000  0.92261000  0.59177000  1
  C  C532  1  0.36050000  0.91970000  0.17610000  1
  C  C533  1  0.36691000  0.91841000  0.20037000  1
  C  C534  1  0.65181000  0.91601000  0.67697000  1
  C  C535  1  0.78849000  0.91169000  0.38843000  1
  C  C536  1  0.91169000  0.91139000  0.38843000  1
  C  C537  1  0.76447000  0.91127000  0.54839000  1
  C  C538  1  0.71779000  0.91079000  0.69953000  1
  C  C539  1  0.18945000  0.90955000  0.42185000  1
  C  C540  1  0.46378000  0.90848000  0.67916000  1
  C  C541  1  0.26848000  0.90538000  0.61136000  1
  C  C542  1  0.99546000  0.90316000  0.47912000  1
  C  C543  1  0.17501000  0.90221000  0.47597000  1
  C  C544  1  0.46549000  0.90079000  0.65513000  1
  C  C545  1  0.45731000  0.90061000  0.02877000  1
  C  C546  1  0.26383000  0.90013000  0.17601000  1
  C  C547  1  0.92595000  0.89985000  0.47975000  1
  C  C548  1  0.27576000  0.89956000  0.15132000  1
  C  C549  1  0.44207000  0.89637000  0.72569000  1
  C  C550  1  0.25582000  0.89212000  0.59504000  1
  C  C551  1  0.44290000  0.88860000  0.70130000  1
  C  C552  1  0.72529000  0.88699000  0.59783000  1
  C  C553  1  0.04269000  0.88669000  0.47123000  1
  C  C554  1  0.31840000  0.88200000  0.32270000  1
  C  C555  1  0.97542000  0.88182000  0.47384000  1
  C  C556  1  0.67610000  0.88010000  0.96820000  1
  C  C557  1  0.69376000  0.87796000  0.67862000  1
  C  C558  1  0.50454000  0.87774000  0.02088000  1
  C  C559  1  0.44330000  0.87730000  0.65450000  1
  C  C560  1  0.43254000  0.87614000  0.04068000  1
  C  C561  1  0.72547000  0.87497000  0.68999000  1
  C  C562  1  0.75744000  0.87304000  0.55448000  1
  C  C563  1  0.18288000  0.87228000  0.44006000  1
  C  C564  1  0.17551000  0.86781000  0.46547000  1
  C  C565  1  0.82936000  0.86696000  0.79342000  1
  C  C566  1  0.41841000  0.86691000  0.70037000  1
  C  C567  1  0.28614000  0.86214000  0.33278000  1
  C  C568  1  0.26578000  0.86098000  0.31436000  1
  C  C569  1  0.41970000  0.86050000  0.67610000  1
  C  C570  1  0.73701000  0.85901000  0.57977000  1
  C  C571  1  0.54559000  0.85749000  0.81283000  1
  C  C572  1  0.06746000  0.84936000  0.45932000  1
  C  C573  1  0.58399000  0.84819000  0.82303000  1
  C  C574  1  0.27520000  0.84630000  0.35870000  1
  C  C575  1  0.99948000  0.84388000  0.46226000  1
  C  C576  1  0.48354000  0.84324000  0.11868000  1
  C  C577  1  0.23617000  0.83997000  0.32399000  1
  C  C578  1  0.50689000  0.83309000  0.09363000  1
  C  C579  1  0.52458000  0.83108000  0.02616000  1
  C  C580  1  0.45255000  0.82965000  0.04545000  1
  C  C581  1  0.51026000  0.82936000  0.79342000  1
  C  C582  1  0.24319000  0.82819000  0.36743000  1
  C  C583  1  0.78221000  0.82811000  0.80047000  1
  C  C584  1  0.04745000  0.82765000  0.45455000  1
  C  C585  1  0.22424000  0.82664000  0.34868000  1
  C  C586  1  0.82418000  0.82518000  0.80236000  1
  C  C587  1  0.55319000  0.82499000  0.52403000  1
  C  C588  1  0.50879000  0.82449000  0.53453000  1
  C  C589  1  0.85901000  0.82421000  0.57977000  1
  C  C590  1  0.54828000  0.82418000  0.80236000  1
  C  C591  1  0.61990000  0.82390000  0.53180000  1
  C  C592  1  0.57693000  0.82043000  0.54251000  1
  C  C593  1  0.38200000  0.81840000  0.82270000  1
  C  C594  1  0.49522000  0.81712000  0.55994000  1
  C  C595  1  0.04851000  0.81581000  0.38927000  1
  C  C596  1  0.87304000  0.81504000  0.55448000  1
  C  C597  1  0.56256000  0.81226000  0.56882000  1
  C  C598  1  0.49611000  0.81101000  0.14067000  1
  C  C599  1  0.52085000  0.81055000  0.57815000  1
  C  C600  1  0.75302000  0.80832000  0.44384000  1
  C  C601  1  0.62204000  0.80624000  0.82138000  1
  C  C602  1  0.50052000  0.80562000  0.03774000  1
  C  C603  1  0.57405000  0.80555000  0.02025000  1
  C  C604  1  0.01478000  0.80518000  0.40706000  1
  C  C605  1  0.77453000  0.79043000  0.81001000  1
  C  C606  1  0.88699000  0.78989000  0.59783000  1
  C  C607  1  0.54216000  0.78986000  0.09132000  1
  C  C608  1  0.91139000  0.78849000  0.38843000  1
  C  C609  1  0.76710000  0.78620000  0.52250000  1
  C  C610  1  0.36214000  0.78614000  0.83278000  1
  C  C611  1  0.09462000  0.78522000  0.38864000  1
  C  C612  1  0.76242000  0.78422000  0.42374000  1
  C  C613  1  0.85749000  0.78409000  0.81283000  1
  C  C614  1  0.58921000  0.78221000  0.80047000  1
  C  C615  1  0.91127000  0.77587000  0.54839000  1
  C  C616  1  0.39956000  0.77576000  0.65132000  1
  C  C617  1  0.34630000  0.77520000  0.85870000  1
  C  C618  1  0.61301000  0.77471000  0.90217000  1
  C  C619  1  0.62503000  0.77453000  0.81001000  1
  C  C620  1  0.80518000  0.77298000  0.40706000  1
  C  C621  1  0.73084000  0.77214000  0.42248000  1
  C  C622  1  0.72786000  0.76916000  0.07752000  1
  C  C623  1  0.40538000  0.76848000  0.11136000  1
  C  C624  1  0.53349000  0.76819000  0.13833000  1
  C  C625  1  0.92420000  0.76710000  0.52250000  1
  C  C626  1  0.57739000  0.76599000  0.90823000  1
  C  C627  1  0.36098000  0.76578000  0.81436000  1
  C  C628  1  0.77587000  0.76447000  0.54839000  1
  C  C629  1  0.40013000  0.76383000  0.67601000  1
  C  C630  1  0.64099000  0.76299000  0.92023000  1
  C  C631  1  0.02962000  0.76242000  0.42374000  1
  C  C632  1  0.81504000  0.75744000  0.55448000  1
  C  C633  1  0.55397000  0.75737000  0.11409000  1
  C  C634  1  0.75582000  0.75702000  0.09504000  1
  C  C635  1  0.74798000  0.75698000  0.93376000  1
  C  C636  1  0.43881000  0.75681000  0.63257000  1
  C  C637  1  0.39212000  0.75582000  0.09504000  1
  C  C638  1  0.91601000  0.75521000  0.67697000  1
  C  C639  1  0.45149000  0.75359000  0.11073000  1
  C  C640  1  0.99482000  0.75302000  0.44384000  1
  C  C641  1  0.74302000  0.75202000  0.56624000  1
  C  C642  1  0.92261000  0.75161000  0.59177000  1
  C  C643  1  0.80624000  0.75034000  0.82138000  1
  C  C644  1  0.87796000  0.74966000  0.67862000  1
  C  C645  1  0.76599000  0.74839000  0.90823000  1
  C  C646  1  0.56128000  0.74798000  0.93376000  1
  C  C647  1  0.69168000  0.74698000  0.05616000  1
  C  C648  1  0.81581000  0.74641000  0.38927000  1
  C  C649  1  0.84819000  0.74479000  0.82303000  1
  C  C650  1  0.74298000  0.74418000  0.40496000  1
  C  C651  1  0.32819000  0.74319000  0.86743000  1
  C  C652  1  0.93872000  0.74302000  0.56624000  1
  C  C653  1  0.10788000  0.74298000  0.40496000  1
  C  C654  1  0.92543000  0.74263000  0.38591000  1
  C  C655  1  0.62696000  0.74256000  0.94552000  1
  C  C656  1  0.71578000  0.73758000  0.07626000  1
  C  C657  1  0.82421000  0.73701000  0.57977000  1
  C  C658  1  0.33997000  0.73617000  0.82399000  1
  C  C659  1  0.58873000  0.73553000  0.95161000  1
  C  C660  1  0.44112000  0.73422000  0.68564000  1
  C  C661  1  0.75161000  0.73401000  0.59177000  1
  C  C662  1  0.71380000  0.73290000  0.97750000  1
  C  C663  1  0.94001000  0.73181000  0.36167000  1
  C  C664  1  0.78522000  0.73152000  0.38864000  1
  C  C665  1  0.07454000  0.73084000  0.42248000  1
  C  C666  1  0.42546000  0.72786000  0.07752000  1
  C  C667  1  0.48522000  0.72702000  0.09294000  1
  C  C668  1  0.70957000  0.72547000  0.68999000  1
  C  C669  1  0.78989000  0.72529000  0.59783000  1
  C  C670  1  0.48020000  0.72480000  0.64130000  1
  C  C671  1  0.32664000  0.72424000  0.84868000  1
  C  C672  1  0.73553000  0.72413000  0.95161000  1
  C  C673  1  0.67189000  0.71779000  0.69953000  1
  C  C674  1  0.95441000  0.71591000  0.68717000  1
  C  C675  1  0.47038000  0.71578000  0.07626000  1
  C  C676  1  0.76848000  0.71478000  0.11136000  1
  C  C677  1  0.48106000  0.71386000  0.66722000  1
  C  C678  1  0.57580000  0.71380000  0.97750000  1
  C  C679  1  0.58831000  0.71151000  0.11157000  1
  C  C680  1  0.92334000  0.71014000  0.40868000  1
  C  C681  1  0.77471000  0.71011000  0.90217000  1
  C  C682  1  0.87497000  0.70957000  0.68999000  1
  C  C683  1  0.72702000  0.69482000  0.09294000  1
  C  C684  1  0.89985000  0.69445000  0.47975000  1
  C  C685  1  0.84388000  0.69438000  0.46226000  1
  C  C686  1  0.74966000  0.69376000  0.67862000  1
  C  C687  1  0.50518000  0.69168000  0.05616000  1
  C  C688  1  0.40955000  0.68945000  0.92185000  1
  C  C689  1  0.94779000  0.68899000  0.35933000  1
  C  C690  1  0.44364000  0.68774000  0.93118000  1
  C  C691  1  0.74256000  0.68496000  0.94552000  1
  C  C692  1  0.75359000  0.68419000  0.11073000  1
  C  C693  1  0.37228000  0.68288000  0.94006000  1
  C  C694  1  0.52310000  0.68160000  0.67730000  1
  C  C695  1  0.43987000  0.67957000  0.95749000  1
  C  C696  1  0.47560000  0.67610000  0.96820000  1
  C  C697  1  0.67482000  0.67582000  0.69764000  1
  C  C698  1  0.76299000  0.67579000  0.92023000  1
  C  C699  1  0.36781000  0.67551000  0.96547000  1
  C  C700  1  0.40221000  0.67501000  0.97597000  1
  C  C701  1  0.95172000  0.67482000  0.69764000  1
  C  C702  1  0.89956000  0.67336000  0.15132000  1
  C  C703  1  0.82965000  0.67235000  0.04545000  1
  C  C704  1  0.91079000  0.67189000  0.69953000  1
  C  C705  1  0.93881000  0.67181000  0.13257000  1
  C  C706  1  0.63304000  0.67064000  0.70658000  1
  C  C707  1  0.82765000  0.67035000  0.45455000  1
  C  C708  1  0.88182000  0.66892000  0.47384000  1
  C  C709  1  0.93361000  0.66691000  0.40637000  1
  C  C710  1  0.90013000  0.66003000  0.17601000  1
  C  C711  1  0.94546000  0.65676000  0.38132000  1
  C  C712  1  0.80562000  0.65612000  0.03774000  1
  C  C713  1  0.98020000  0.65370000  0.14130000  1
  C  C714  1  0.75521000  0.65181000  0.67697000  1
  C  C715  1  0.87614000  0.65064000  0.04068000  1
  C  C716  1  0.71591000  0.64251000  0.68717000  1
  C  C717  1  0.67579000  0.64099000  0.92023000  1
  C  C718  1  0.45630000  0.63950000  0.82390000  1
  C  C719  1  0.94112000  0.63902000  0.18564000  1
  C  C720  1  0.98106000  0.63786000  0.16722000  1
  C  C721  1  0.48569000  0.63309000  0.79963000  1
  C  C722  1  0.98974000  0.63304000  0.70658000  1
  C  C723  1  0.00879000  0.63219000  0.03453000  1
  C  C724  1  0.99522000  0.62772000  0.05994000  1
  C  C725  1  0.68496000  0.62696000  0.94552000  1
  C  C726  1  0.79043000  0.62503000  0.81001000  1
  C  C727  1  0.84936000  0.62386000  0.45932000  1
  C  C728  1  0.47510000  0.62270000  0.84550000  1
  C  C729  1  0.90316000  0.62226000  0.47912000  1
  C  C730  1  0.75034000  0.62204000  0.82138000  1
  C  C731  1  0.02440000  0.61990000  0.53180000  1
  C  C732  1  0.83108000  0.61818000  0.02616000  1
  C  C733  1  0.02310000  0.61800000  0.17730000  1
  C  C734  1  0.90061000  0.61331000  0.02877000  1
  C  C735  1  0.71011000  0.61301000  0.90217000  1
  C  C736  1  0.53280000  0.61140000  0.79870000  1
  C  C737  1  0.24298000  0.60788000  0.90496000  1
  C  C738  1  0.56413000  0.60363000  0.77431000  1
  C  C739  1  0.82664000  0.60044000  0.34868000  1
  C  C740  1  0.80555000  0.60015000  0.02025000  1
  C  C741  1  0.83997000  0.59987000  0.32399000  1
  C  C742  1  0.88669000  0.59939000  0.47123000  1
  C  C743  1  0.52141000  0.59921000  0.84487000  1
  C  C744  1  0.05319000  0.59779000  0.02403000  1
  C  C745  1  0.87774000  0.59684000  0.02088000  1
  C  C746  1  0.28522000  0.59462000  0.88864000  1
  C  C747  1  0.55142000  0.59152000  0.82084000  1
  C  C748  1  0.02085000  0.59045000  0.07815000  1
  C  C749  1  0.82811000  0.58921000  0.80047000  1
  C  C750  1  0.72413000  0.58873000  0.95161000  1
  C  C751  1  0.71151000  0.58861000  0.11157000  1
  C  C752  1  0.58861000  0.58831000  0.11157000  1
  C  C753  1  0.74479000  0.58399000  0.82303000  1
  C  C754  1  0.98569000  0.58159000  0.29963000  1
  C  C755  1  0.95630000  0.58030000  0.32390000  1
  C  C756  1  0.74839000  0.57739000  0.90823000  1
  C  C757  1  0.06013000  0.57693000  0.54251000  1
  C  C758  1  0.78986000  0.57666000  0.09132000  1
  C  C759  1  0.73290000  0.57580000  0.97750000  1
  C  C760  1  0.75737000  0.57457000  0.11409000  1
  C  C761  1  0.23084000  0.57454000  0.92248000  1
  C  C762  1  0.60015000  0.57405000  0.02025000  1
  C  C763  1  0.34936000  0.56746000  0.95932000  1
  C  C764  1  0.83309000  0.56639000  0.09363000  1
  C  C765  1  0.05793000  0.56413000  0.77431000  1
  C  C766  1  0.05636000  0.56256000  0.56882000  1
  C  C767  1  0.75698000  0.56128000  0.93376000  1
  C  C768  1  0.82819000  0.56119000  0.36743000  1
  C  C769  1  0.07693000  0.56013000  0.04251000  1
  C  C770  1  0.76819000  0.55999000  0.13833000  1
  C  C771  1  0.86098000  0.55888000  0.31436000  1
  C  C772  1  0.06413000  0.55793000  0.27431000  1
  C  C773  1  0.03280000  0.55710000  0.29870000  1
  C  C774  1  0.97510000  0.55670000  0.34550000  1
  C  C775  1  0.06256000  0.55636000  0.06882000  1
  C  C776  1  0.84324000  0.55454000  0.11868000  1
  C  C777  1  0.57457000  0.55397000  0.11409000  1
  C  C778  1  0.09779000  0.55319000  0.52403000  1
  C  C779  1  0.81101000  0.55221000  0.14067000  1
  C  C780  1  0.03622000  0.55142000  0.82084000  1
  C  C781  1  0.31581000  0.54851000  0.88927000  1
  C  C782  1  0.82518000  0.54828000  0.80236000  1
  C  C783  1  0.32765000  0.54745000  0.95455000  1
  C  C784  1  0.78409000  0.54559000  0.81283000  1
  C  C785  1  0.91970000  0.54370000  0.17610000  1
  C  C786  1  0.38669000  0.54269000  0.97123000  1
  C  C787  1  0.57666000  0.54216000  0.09132000  1
  C  C788  1  0.05142000  0.53622000  0.32084000  1
  C  C789  1  0.02141000  0.53451000  0.34487000  1
  C  C790  1  0.55999000  0.53349000  0.13833000  1
  C  C791  1  0.05710000  0.53280000  0.79870000  1
  C  C792  1  0.26242000  0.52962000  0.92374000  1
  C  C793  1  0.94330000  0.52490000  0.15450000  1
  C  C794  1  0.61818000  0.52458000  0.02616000  1
  C  C795  1  0.11990000  0.52440000  0.03180000  1
  C  C796  1  0.11800000  0.52310000  0.67730000  1
  C  C797  1  0.03451000  0.52141000  0.84487000  1
  C  C798  1  0.09045000  0.52085000  0.57815000  1
  C  C799  1  0.84630000  0.51980000  0.35870000  1
  C  C800  1  0.86214000  0.51894000  0.33278000  1
  C  C801  1  0.44546000  0.51646000  0.88132000  1
  C  C802  1  0.30518000  0.51478000  0.90706000  1
  C  C803  1  0.91841000  0.51431000  0.20037000  1
  C  C804  1  0.86696000  0.51026000  0.79342000  1
  C  C805  1  0.13219000  0.50879000  0.53453000  1
  C  C806  1  0.56639000  0.50689000  0.09363000  1
  C  C807  1  0.74698000  0.50518000  0.05616000  1
  C  C808  1  0.87228000  0.50478000  0.44006000  1
  C  C809  1  0.59684000  0.50454000  0.02088000  1
  C  C810  1  0.44779000  0.50389000  0.85933000  1
  C  C811  1  0.65612000  0.50052000  0.03774000  1
  C  C812  1  0.34388000  0.49948000  0.96226000  1
  C  C813  1  0.55221000  0.49611000  0.14067000  1
  C  C814  1  0.40316000  0.49546000  0.97912000  1
  C  C815  1  0.12772000  0.49522000  0.55994000  1
  C  C816  1  0.25302000  0.49482000  0.94384000  1
  C  C817  1  0.43361000  0.49311000  0.90637000  1
  C  C818  1  0.86781000  0.49121000  0.46547000  1
  C  C819  1  0.13304000  0.48974000  0.20658000  1
  C  C820  1  0.08159000  0.48569000  0.79963000  1
  C  C821  1  0.69482000  0.48522000  0.09294000  1
  C  C822  1  0.55454000  0.48354000  0.11868000  1
  C  C823  1  0.13786000  0.48106000  0.66722000  1
  C  C824  1  0.15370000  0.48020000  0.64130000  1
  C  C825  1  0.90955000  0.47915000  0.42185000  1
  C  C826  1  0.96549000  0.47859000  0.15513000  1
  C  C827  1  0.88200000  0.47690000  0.32270000  1
  C  C828  1  0.88010000  0.47560000  0.96820000  1
  C  C829  1  0.38182000  0.47542000  0.97384000  1
  C  C830  1  0.05670000  0.47510000  0.84550000  1
  C  C831  1  0.73758000  0.47038000  0.07626000  1
  C  C832  1  0.94290000  0.46720000  0.20130000  1
  C  C833  1  0.44001000  0.46651000  0.86167000  1
  C  C834  1  0.97859000  0.46549000  0.65513000  1
  C  C835  1  0.94858000  0.46378000  0.67916000  1
  C  C836  1  0.42334000  0.45784000  0.90868000  1
  C  C837  1  0.61331000  0.45731000  0.02877000  1
  C  C838  1  0.08030000  0.45630000  0.82390000  1
  C  C839  1  0.21591000  0.45441000  0.18717000  1
  C  C840  1  0.67235000  0.45255000  0.04545000  1
  C  C841  1  0.17482000  0.45172000  0.19764000  1
  C  C842  1  0.68419000  0.45149000  0.11073000  1
  C  C843  1  0.96378000  0.44858000  0.17916000  1
  C  C844  1  0.18899000  0.44779000  0.85933000  1
  C  C845  1  0.90221000  0.44681000  0.47597000  1
  C  C846  1  0.42543000  0.44603000  0.88591000  1
  C  C847  1  0.15676000  0.44546000  0.88132000  1
  C  C848  1  0.93744000  0.44364000  0.93118000  1
  C  C849  1  0.02490000  0.44330000  0.65450000  1
  C  C850  1  0.96720000  0.44290000  0.70130000  1
  C  C851  1  0.93587000  0.44207000  0.72569000  1
  C  C852  1  0.13902000  0.44112000  0.68564000  1
  C  C853  1  0.23181000  0.44001000  0.86167000  1
  C  C854  1  0.92307000  0.43987000  0.95749000  1
  C  C855  1  0.17181000  0.43881000  0.63257000  1
  C  C856  1  0.24302000  0.43872000  0.06624000  1
  C  C857  1  0.94364000  0.43744000  0.43118000  1
  C  C858  1  0.94207000  0.43587000  0.22569000  1
  C  C859  1  0.16691000  0.43361000  0.90637000  1
  C  C860  1  0.65064000  0.43254000  0.04068000  1
  C  C861  1  0.39985000  0.42595000  0.97975000  1
  C  C862  1  0.76916000  0.42546000  0.07752000  1
  C  C863  1  0.24263000  0.42543000  0.88591000  1
  C  C864  1  0.26710000  0.42420000  0.02250000  1
  C  C865  1  0.21014000  0.42334000  0.90868000  1
  C  C866  1  0.93987000  0.42307000  0.45749000  1
  C  C867  1  0.25161000  0.42261000  0.09177000  1
  C  C868  1  0.04370000  0.41970000  0.67610000  1
  C  C869  1  0.01431000  0.41841000  0.70037000  1
  C  C870  1  0.25521000  0.41601000  0.17697000  1
  C  C871  1  0.41139000  0.41169000  0.88843000  1
  C  C872  1  0.28849000  0.41139000  0.88843000  1
  C  C873  1  0.27587000  0.41127000  0.04839000  1
  C  C874  1  0.17189000  0.41079000  0.19953000  1
  C  C875  1  0.97915000  0.40955000  0.92185000  1
  C  C876  1  0.44858000  0.40848000  0.17916000  1
  C  C877  1  0.71478000  0.40538000  0.11136000  1
  C  C878  1  0.12226000  0.40316000  0.97912000  1
  C  C879  1  0.94681000  0.40221000  0.97597000  1
  C  C880  1  0.47859000  0.40079000  0.15513000  1
  C  C881  1  0.11331000  0.40061000  0.52877000  1
  C  C882  1  0.16003000  0.40013000  0.67601000  1
  C  C883  1  0.19445000  0.39985000  0.97975000  1
  C  C884  1  0.17336000  0.39956000  0.65132000  1
  C  C885  1  0.43587000  0.39637000  0.22569000  1
  C  C886  1  0.75702000  0.39212000  0.09504000  1
  C  C887  1  0.46720000  0.38860000  0.20130000  1
  C  C888  1  0.28989000  0.38699000  0.09783000  1
  C  C889  1  0.09939000  0.38669000  0.97123000  1
  C  C890  1  0.97690000  0.38200000  0.82270000  1
  C  C891  1  0.16892000  0.38182000  0.97384000  1
  C  C892  1  0.97560000  0.38010000  0.46820000  1
  C  C893  1  0.24966000  0.37796000  0.17862000  1
  C  C894  1  0.09684000  0.37774000  0.52088000  1
  C  C895  1  0.52490000  0.37730000  0.15450000  1
  C  C896  1  0.15064000  0.37614000  0.54068000  1
  C  C897  1  0.20957000  0.37497000  0.18999000  1
  C  C898  1  0.31504000  0.37304000  0.05448000  1
  C  C899  1  0.00478000  0.37228000  0.94006000  1
  C  C900  1  0.99121000  0.36781000  0.96547000  1
  C  C901  1  0.01026000  0.36696000  0.29342000  1
  C  C902  1  0.51431000  0.36691000  0.20037000  1
  C  C903  1  0.01894000  0.36214000  0.83278000  1
  C  C904  1  0.05888000  0.36098000  0.81436000  1
  C  C905  1  0.54370000  0.36050000  0.17610000  1
  C  C906  1  0.32421000  0.35901000  0.07977000  1
  C  C907  1  0.28409000  0.35749000  0.31283000  1
  C  C908  1  0.12386000  0.34936000  0.95932000  1
  C  C909  1  0.24479000  0.34819000  0.32303000  1
  C  C910  1  0.01980000  0.34630000  0.85870000  1
  C  C911  1  0.19438000  0.34388000  0.96226000  1
  C  C912  1  0.05454000  0.34324000  0.61868000  1
  C  C913  1  0.09987000  0.33997000  0.82399000  1
  C  C914  1  0.06639000  0.33309000  0.59363000  1
  C  C915  1  0.11818000  0.33108000  0.52616000  1
  C  C916  1  0.17235000  0.32965000  0.54545000  1
  C  C917  1  0.36696000  0.32936000  0.29342000  1
  C  C918  1  0.06119000  0.32819000  0.86743000  1
  C  C919  1  0.08921000  0.32811000  0.30047000  1
  C  C920  1  0.17035000  0.32765000  0.95455000  1
  C  C921  1  0.10044000  0.32664000  0.84868000  1
  C  C922  1  0.04828000  0.32518000  0.30236000  1
  C  C923  1  0.59779000  0.32499000  0.02403000  1
  C  C924  1  0.63219000  0.32449000  0.03453000  1
  C  C925  1  0.23701000  0.32421000  0.07977000  1
  C  C926  1  0.32518000  0.32418000  0.30236000  1
  C  C927  1  0.52440000  0.32390000  0.03180000  1
  C  C928  1  0.56013000  0.32043000  0.04251000  1
  C  C929  1  0.47690000  0.31840000  0.32270000  1
  C  C930  1  0.62772000  0.31712000  0.05994000  1
  C  C931  1  0.24641000  0.31581000  0.88927000  1
  C  C932  1  0.25744000  0.31504000  0.05448000  1
  C  C933  1  0.55636000  0.31226000  0.06882000  1
  C  C934  1  0.05221000  0.31101000  0.64067000  1
  C  C935  1  0.59045000  0.31055000  0.07815000  1
  C  C936  1  0.49482000  0.30832000  0.94384000  1
  C  C937  1  0.25034000  0.30624000  0.32138000  1
  C  C938  1  0.15612000  0.30562000  0.53774000  1
  C  C939  1  0.10015000  0.30555000  0.52025000  1
  C  C940  1  0.27298000  0.30518000  0.90706000  1
  C  C941  1  0.12503000  0.29043000  0.31001000  1
  C  C942  1  0.22529000  0.28989000  0.09783000  1
  C  C943  1  0.07666000  0.28986000  0.59132000  1
  C  C944  1  0.41169000  0.28849000  0.88843000  1
  C  C945  1  0.42420000  0.28620000  0.02250000  1
  C  C946  1  0.51894000  0.28614000  0.33278000  1
  C  C947  1  0.23152000  0.28522000  0.88864000  1
  C  C948  1  0.52962000  0.28422000  0.92374000  1
  C  C949  1  0.04559000  0.28409000  0.31283000  1
  C  C950  1  0.32811000  0.28221000  0.30047000  1
  C  C951  1  0.26447000  0.27587000  0.04839000  1
  C  C952  1  0.67336000  0.27576000  0.15132000  1
  C  C953  1  0.51980000  0.27520000  0.35870000  1
  C  C954  1  0.21011000  0.27471000  0.40217000  1
  C  C955  1  0.29043000  0.27453000  0.31001000  1
  C  C956  1  0.51478000  0.27298000  0.90706000  1
  C  C957  1  0.57454000  0.27214000  0.92248000  1
  C  C958  1  0.92546000  0.26916000  0.57752000  1
  C  C959  1  0.21478000  0.26848000  0.61136000  1
  C  C960  1  0.05999000  0.26819000  0.63833000  1
  C  C961  1  0.28620000  0.26710000  0.02250000  1
  C  C962  1  0.24839000  0.26599000  0.40823000  1
  C  C963  1  0.55888000  0.26578000  0.31436000  1
  C  C964  1  0.41127000  0.26447000  0.04839000  1
  C  C965  1  0.66003000  0.26383000  0.17601000  1
  C  C966  1  0.17579000  0.26299000  0.42023000  1
  C  C967  1  0.28422000  0.26242000  0.92374000  1
  C  C968  1  0.37304000  0.25744000  0.05448000  1
  C  C969  1  0.07457000  0.25737000  0.61409000  1
  C  C970  1  0.89212000  0.25702000  0.59504000  1
  C  C971  1  0.06128000  0.25698000  0.43376000  1
  C  C972  1  0.67181000  0.25681000  0.13257000  1
  C  C973  1  0.25702000  0.25582000  0.59504000  1
  C  C974  1  0.15181000  0.25521000  0.17697000  1
  C  C975  1  0.18419000  0.25359000  0.61073000  1
  C  C976  1  0.30832000  0.25302000  0.94384000  1
  C  C977  1  0.43872000  0.25202000  0.06624000  1
  C  C978  1  0.23401000  0.25161000  0.09177000  1
  C  C979  1  0.12204000  0.25034000  0.32138000  1
  C  C980  1  0.19376000  0.24966000  0.17862000  1
  C  C981  1  0.07739000  0.24839000  0.40823000  1
  C  C982  1  0.25698000  0.24798000  0.43376000  1
  C  C983  1  0.00518000  0.24698000  0.55616000  1
  C  C984  1  0.54851000  0.24641000  0.88927000  1
  C  C985  1  0.08399000  0.24479000  0.32303000  1
  C  C986  1  0.60788000  0.24418000  0.90496000  1
  C  C987  1  0.56119000  0.24319000  0.36743000  1
  C  C988  1  0.25202000  0.24302000  0.06624000  1
  C  C989  1  0.24418000  0.24298000  0.90496000  1
  C  C990  1  0.44603000  0.24263000  0.88591000  1
  C  C991  1  0.18496000  0.24256000  0.44552000  1
  C  C992  1  0.97038000  0.23758000  0.57626000  1
  C  C993  1  0.35901000  0.23701000  0.07977000  1
  C  C994  1  0.59987000  0.23617000  0.32399000  1
  C  C995  1  0.22413000  0.23553000  0.45161000  1
  C  C996  1  0.63902000  0.23422000  0.18564000  1
  C  C997  1  0.42261000  0.23401000  0.09177000  1
  C  C998  1  0.07580000  0.23290000  0.47750000  1
  C  C999  1  0.46651000  0.23181000  0.86167000  1
  C  C1000  1  0.59462000  0.23152000  0.88864000  1
  C  C1001  1  0.27214000  0.23084000  0.92248000  1
  C  C1002  1  0.26916000  0.22786000  0.57752000  1
  C  C1003  1  0.19482000  0.22702000  0.59294000  1
  C  C1004  1  0.37497000  0.22547000  0.18999000  1
  C  C1005  1  0.38699000  0.22529000  0.09783000  1
  C  C1006  1  0.65370000  0.22480000  0.14130000  1
  C  C1007  1  0.60044000  0.22424000  0.34868000  1
  C  C1008  1  0.08873000  0.22413000  0.45161000  1
  C  C1009  1  0.41079000  0.21779000  0.19953000  1
  C  C1010  1  0.14251000  0.21591000  0.18717000  1
  C  C1011  1  0.23758000  0.21578000  0.57626000  1
  C  C1012  1  0.90538000  0.21478000  0.61136000  1
  C  C1013  1  0.63786000  0.21386000  0.16722000  1
  C  C1014  1  0.23290000  0.21380000  0.47750000  1
  C  C1015  1  0.08861000  0.21151000  0.61157000  1
  C  C1016  1  0.45784000  0.21014000  0.90868000  1
  C  C1017  1  0.11301000  0.21011000  0.40217000  1
  C  C1018  1  0.22547000  0.20957000  0.18999000  1
  C  C1019  1  0.98522000  0.19482000  0.59294000  1
  C  C1020  1  0.42595000  0.19445000  0.97975000  1
  C  C1021  1  0.49948000  0.19438000  0.96226000  1
  C  C1022  1  0.37796000  0.19376000  0.17862000  1
  C  C1023  1  0.24698000  0.19168000  0.55616000  1
  C  C1024  1  0.47915000  0.18945000  0.42185000  1
  C  C1025  1  0.50389000  0.18899000  0.85933000  1
  C  C1026  1  0.43744000  0.18774000  0.43118000  1
  C  C1027  1  0.12696000  0.18496000  0.44552000  1
  C  C1028  1  0.95149000  0.18419000  0.61073000  1
  C  C1029  1  0.50478000  0.18288000  0.44006000  1
  C  C1030  1  0.61800000  0.18160000  0.17730000  1
  C  C1031  1  0.42307000  0.17957000  0.45749000  1
  C  C1032  1  0.38010000  0.17610000  0.46820000  1
  C  C1033  1  0.45172000  0.17582000  0.19764000  1
  C  C1034  1  0.14099000  0.17579000  0.42023000  1
  C  C1035  1  0.49121000  0.17551000  0.46547000  1
  C  C1036  1  0.44681000  0.17501000  0.47597000  1
  C  C1037  1  0.17582000  0.17482000  0.19764000  1
  C  C1038  1  0.77576000  0.17336000  0.65132000  1
  C  C1039  1  0.95255000  0.17235000  0.54545000  1
  C  C1040  1  0.21779000  0.17189000  0.19953000  1
  C  C1041  1  0.75681000  0.17181000  0.63257000  1
  C  C1042  1  0.48974000  0.17064000  0.20658000  1
  C  C1043  1  0.54745000  0.17035000  0.95455000  1
  C  C1044  1  0.47542000  0.16892000  0.97384000  1
  C  C1045  1  0.49311000  0.16691000  0.90637000  1
  C  C1046  1  0.76383000  0.16003000  0.67601000  1
  C  C1047  1  0.51646000  0.15676000  0.88132000  1
  C  C1048  1  0.00052000  0.15612000  0.53774000  1
  C  C1049  1  0.72480000  0.15370000  0.64130000  1
  C  C1050  1  0.41601000  0.15181000  0.17697000  1
  C  C1051  1  0.93254000  0.15064000  0.54068000  1
  C  C1052  1  0.45441000  0.14251000  0.18717000  1
  C  C1053  1  0.26299000  0.14099000  0.42023000  1
  C  C1054  1  0.58030000  0.13950000  0.32390000  1
  C  C1055  1  0.73422000  0.13902000  0.68564000  1
  C  C1056  1  0.71386000  0.13786000  0.66722000  1
  C  C1057  1  0.58159000  0.13309000  0.29963000  1
  C  C1058  1  0.17064000  0.13304000  0.20658000  1
  C  C1059  1  0.82449000  0.13219000  0.53453000  1
  C  C1060  1  0.81712000  0.12772000  0.55994000  1
  C  C1061  1  0.24256000  0.12696000  0.44552000  1
  C  C1062  1  0.27453000  0.12503000  0.31001000  1
  C  C1063  1  0.56746000  0.12386000  0.95932000  1
  C  C1064  1  0.55670000  0.12270000  0.34550000  1
  C  C1065  1  0.49546000  0.12226000  0.97912000  1
  C  C1066  1  0.30624000  0.12204000  0.32138000  1
  C  C1067  1  0.32390000  0.11990000  0.03180000  1
  C  C1068  1  0.02458000  0.11818000  0.52616000  1
  C  C1069  1  0.68160000  0.11800000  0.67730000  1
  C  C1070  1  0.95731000  0.11331000  0.52877000  1
  C  C1071  1  0.27471000  0.11301000  0.40217000  1
  C  C1072  1  0.55710000  0.11140000  0.29870000  1
  C  C1073  1  0.74418000  0.10788000  0.40496000  1
  C  C1074  1  0.55793000  0.10363000  0.27431000  1
  C  C1075  1  0.72424000  0.10044000  0.84868000  1
  C  C1076  1  0.07405000  0.10015000  0.52025000  1
  C  C1077  1  0.73617000  0.09987000  0.82399000  1
  C  C1078  1  0.54269000  0.09939000  0.97123000  1
  C  C1079  1  0.53451000  0.09921000  0.34487000  1
  C  C1080  1  0.82499000  0.09779000  0.52403000  1
  C  C1081  1  0.00454000  0.09684000  0.52088000  1
  C  C1082  1  0.73152000  0.09462000  0.38864000  1
  C  C1083  1  0.53622000  0.09152000  0.32084000  1
  C  C1084  1  0.81055000  0.09045000  0.57815000  1
  C  C1085  1  0.28221000  0.08921000  0.30047000  1
  C  C1086  1  0.23553000  0.08873000  0.45161000  1
  C  C1087  1  0.08831000  0.08861000  0.61157000  1
  C  C1088  1  0.21151000  0.08831000  0.61157000  1
  C  C1089  1  0.34819000  0.08399000  0.32303000  1
  C  C1090  1  0.63309000  0.08159000  0.79963000  1
  C  C1091  1  0.63950000  0.08030000  0.82390000  1
  C  C1092  1  0.26599000  0.07739000  0.40823000  1
  C  C1093  1  0.32043000  0.07693000  0.04251000  1
  C  C1094  1  0.04216000  0.07666000  0.59132000  1
  C  C1095  1  0.21380000  0.07580000  0.47750000  1
  C  C1096  1  0.05397000  0.07457000  0.61409000  1
  C  C1097  1  0.77214000  0.07454000  0.42248000  1
  C  C1098  1  0.30555000  0.07405000  0.52025000  1
  C  C1099  1  0.62386000  0.06746000  0.45932000  1
  C  C1100  1  0.00689000  0.06639000  0.59363000  1
  C  C1101  1  0.10363000  0.06413000  0.27431000  1
  C  C1102  1  0.31226000  0.06256000  0.06882000  1
  C  C1103  1  0.24798000  0.06128000  0.43376000  1
  C  C1104  1  0.74319000  0.06119000  0.86743000  1
  C  C1105  1  0.82043000  0.06013000  0.54251000  1
  C  C1106  1  0.03349000  0.05999000  0.63833000  1
  C  C1107  1  0.76578000  0.05888000  0.81436000  1
  C  C1108  1  0.60363000  0.05793000  0.77431000  1
  C  C1109  1  0.61140000  0.05710000  0.79870000  1
  C  C1110  1  0.62270000  0.05670000  0.84550000  1
  C  C1111  1  0.81226000  0.05636000  0.56882000  1
  C  C1112  1  0.98354000  0.05454000  0.61868000  1
  C  C1113  1  0.25737000  0.05397000  0.61409000  1
  C  C1114  1  0.32499000  0.05319000  0.02403000  1
  C  C1115  1  0.99611000  0.05221000  0.64067000  1
  C  C1116  1  0.09152000  0.05142000  0.32084000  1
  C  C1117  1  0.74641000  0.04851000  0.38927000  1
  C  C1118  1  0.32418000  0.04828000  0.30236000  1
  C  C1119  1  0.67035000  0.04745000  0.45455000  1
  C  C1120  1  0.35749000  0.04559000  0.31283000  1
  C  C1121  1  0.86050000  0.04370000  0.67610000  1
  C  C1122  1  0.59939000  0.04269000  0.47123000  1
  C  C1123  1  0.28986000  0.04216000  0.59132000  1
  C  C1124  1  0.59152000  0.03622000  0.82084000  1
  C  C1125  1  0.59921000  0.03451000  0.84487000  1
  C  C1126  1  0.26819000  0.03349000  0.63833000  1
  C  C1127  1  0.11140000  0.03280000  0.29870000  1
  C  C1128  1  0.78422000  0.02962000  0.42374000  1
  C  C1129  1  0.87730000  0.02490000  0.65450000  1
  C  C1130  1  0.33108000  0.02458000  0.52616000  1
  C  C1131  1  0.82390000  0.02440000  0.53180000  1
  C  C1132  1  0.18160000  0.02310000  0.17730000  1
  C  C1133  1  0.09921000  0.02141000  0.34487000  1
  C  C1134  1  0.31055000  0.02085000  0.07815000  1
  C  C1135  1  0.77520000  0.01980000  0.85870000  1
  C  C1136  1  0.78614000  0.01894000  0.83278000  1
  C  C1137  1  0.65676000  0.01646000  0.38132000  1
  C  C1138  1  0.77298000  0.01478000  0.40706000  1
  C  C1139  1  0.86691000  0.01431000  0.70037000  1
  C  C1140  1  0.32936000  0.01026000  0.29342000  1
  C  C1141  1  0.32449000  0.00879000  0.03453000  1
  C  C1142  1  0.33309000  0.00689000  0.59363000  1
  C  C1143  1  0.19168000  0.00518000  0.55616000  1
  C  C1144  1  0.68288000  0.00478000  0.94006000  1
  C  C1145  1  0.37774000  0.00454000  0.52088000  1
  C  C1146  1  0.68899000  0.00389000  0.35933000  1
  C  C1147  1  0.30562000  0.00052000  0.53774000  1
  N  N1148  1  0.39103000  0.91923000  0.08811000  1
  N  N1149  1  0.10897000  0.89837000  0.41189000  1
  N  N1150  1  0.41923000  0.89103000  0.58811000  1
  N  N1151  1  0.36157000  0.88397000  0.63419000  1
  N  N1152  1  0.11603000  0.87973000  0.36581000  1
  N  N1153  1  0.34715000  0.86925000  0.09495000  1
  N  N1154  1  0.38397000  0.86157000  0.13419000  1
  N  N1155  1  0.36925000  0.84715000  0.59495000  1
  N  N1156  1  0.78092000  0.83752000  0.63854000  1
  N  N1157  1  0.15285000  0.81135000  0.40505000  1
  N  N1158  1  0.74302000  0.78092000  0.63854000  1
  N  N1159  1  0.71908000  0.75698000  0.86146000  1
  N  N1160  1  0.83752000  0.74302000  0.63854000  1
  N  N1161  1  0.66248000  0.71908000  0.86146000  1
  N  N1162  1  0.86925000  0.68865000  0.09495000  1
  N  N1163  1  0.75698000  0.66248000  0.86146000  1
  N  N1164  1  0.31135000  0.65285000  0.90505000  1
  N  N1165  1  0.87973000  0.63843000  0.36581000  1
  N  N1166  1  0.81135000  0.63075000  0.40505000  1
  N  N1167  1  0.86157000  0.62027000  0.13419000  1
  N  N1168  1  0.37973000  0.61603000  0.86581000  1
  N  N1169  1  0.39837000  0.60897000  0.91189000  1
  N  N1170  1  0.91923000  0.60163000  0.08811000  1
  N  N1171  1  0.89837000  0.58077000  0.41189000  1
  N  N1172  1  0.10163000  0.41923000  0.58811000  1
  N  N1173  1  0.08077000  0.39837000  0.91189000  1
  N  N1174  1  0.60163000  0.39103000  0.08811000  1
  N  N1175  1  0.62027000  0.38397000  0.13419000  1
  N  N1176  1  0.13843000  0.37973000  0.86581000  1
  N  N1177  1  0.18865000  0.36925000  0.59495000  1
  N  N1178  1  0.12027000  0.36157000  0.63419000  1
  N  N1179  1  0.68865000  0.34715000  0.09495000  1
  N  N1180  1  0.24302000  0.33752000  0.13854000  1
  N  N1181  1  0.13075000  0.31135000  0.90505000  1
  N  N1182  1  0.33752000  0.28092000  0.13854000  1
  N  N1183  1  0.16248000  0.25698000  0.36146000  1
  N  N1184  1  0.28092000  0.24302000  0.13854000  1
  N  N1185  1  0.25698000  0.21908000  0.36146000  1
  N  N1186  1  0.84715000  0.18865000  0.59495000  1
  N  N1187  1  0.21908000  0.16248000  0.36146000  1
  N  N1188  1  0.63075000  0.15285000  0.40505000  1
  N  N1189  1  0.61603000  0.13843000  0.86581000  1
  N  N1190  1  0.65285000  0.13075000  0.90505000  1
  N  N1191  1  0.88397000  0.12027000  0.63419000  1
  N  N1192  1  0.63843000  0.11603000  0.36581000  1
  N  N1193  1  0.58077000  0.10897000  0.41189000  1
  N  N1194  1  0.89103000  0.10163000  0.58811000  1
  N  N1195  1  0.60897000  0.08077000  0.91189000  1
  O  O1196  1  0.17392000  0.99522000  0.54134000  1
  O  O1197  1  0.70378000  0.98778000  0.71816000  1
  O  O1198  1  0.82256000  0.98246000  0.54602000  1
  O  O1199  1  0.81836000  0.97896000  0.79642000  1
  O  O1200  1  0.36753000  0.96673000  0.29651000  1
  O  O1201  1  0.16983000  0.96593000  0.49541000  1
  O  O1202  1  0.79256000  0.96336000  0.51512000  1
  O  O1203  1  0.42627000  0.95887000  0.22629000  1
  O  O1204  1  0.05309000  0.95409000  0.37943000  1
  O  O1205  1  0.87326000  0.95346000  0.74882000  1
  O  O1206  1  0.31712000  0.95202000  0.07164000  1
  O  O1207  1  0.81731000  0.94961000  0.44807000  1
  O  O1208  1  0.38661000  0.94691000  0.62057000  1
  O  O1209  1  0.12818000  0.94648000  0.36986000  1
  O  O1210  1  0.37182000  0.94452000  0.13014000  1
  O  O1211  1  0.84465000  0.93715000  0.83935000  1
  O  O1212  1  0.89839000  0.93619000  0.49253000  1
  O  O1213  1  0.45887000  0.92627000  0.72629000  1
  O  O1214  1  0.37326000  0.92446000  0.24882000  1
  O  O1215  1  0.88800000  0.91930000  0.36980000  1
  O  O1216  1  0.79622000  0.90972000  0.78184000  1
  O  O1217  1  0.31836000  0.90626000  0.29642000  1
  O  O1218  1  0.74115000  0.90355000  0.47315000  1
  O  O1219  1  0.38477000  0.89937000  0.04869000  1
  O  O1220  1  0.67289000  0.89839000  0.49253000  1
  O  O1221  1  0.80139000  0.89799000  0.41213000  1
  O  O1222  1  0.80570000  0.89500000  0.50540000  1
  O  O1223  1  0.92627000  0.88857000  0.72629000  1
  O  O1224  1  0.89799000  0.88849000  0.41213000  1
  O  O1225  1  0.82290000  0.88800000  0.36980000  1
  O  O1226  1  0.44691000  0.88661000  0.12057000  1
  O  O1227  1  0.39937000  0.88477000  0.54869000  1
  O  O1228  1  0.90355000  0.88215000  0.47315000  1
  O  O1229  1  0.34465000  0.87885000  0.33935000  1
  O  O1230  1  0.70469000  0.87329000  0.62303000  1
  O  O1231  1  0.42446000  0.87326000  0.74882000  1
  O  O1232  1  0.44452000  0.87182000  0.63014000  1
  O  O1233  1  0.29598000  0.87128000  0.62936000  1
  O  O1234  1  0.86753000  0.86923000  0.79651000  1
  O  O1235  1  0.66983000  0.86883000  0.99541000  1
  O  O1236  1  0.46673000  0.86753000  0.79651000  1
  O  O1237  1  0.30595000  0.85785000  0.14265000  1
  O  O1238  1  0.67744000  0.85104000  0.95398000  1
  O  O1239  1  0.84697000  0.84697000  0.45909000  1
  O  O1240  1  0.37885000  0.84465000  0.83935000  1
  O  O1241  1  0.18288000  0.84078000  0.42836000  1
  O  O1242  1  0.70432000  0.84002000  0.66884000  1
  O  O1243  1  0.11523000  0.83283000  0.45131000  1
  O  O1244  1  0.63117000  0.83017000  0.50459000  1
  O  O1245  1  0.60161000  0.82711000  0.00747000  1
  O  O1246  1  0.71048000  0.82608000  0.45866000  1
  O  O1247  1  0.91930000  0.82290000  0.36980000  1
  O  O1248  1  0.64896000  0.82256000  0.54602000  1
  O  O1249  1  0.40626000  0.81836000  0.79642000  1
  O  O1250  1  0.78501000  0.81731000  0.44807000  1
  O  O1251  1  0.45202000  0.81712000  0.57164000  1
  O  O1252  1  0.19405000  0.80645000  0.35735000  1
  O  O1253  1  0.35785000  0.80595000  0.64265000  1
  O  O1254  1  0.79390000  0.80570000  0.50540000  1
  O  O1255  1  0.88849000  0.80139000  0.41213000  1
  O  O1256  1  0.87329000  0.79899000  0.62303000  1
  O  O1257  1  0.12872000  0.79662000  0.37064000  1
  O  O1258  1  0.51222000  0.79622000  0.78184000  1
  O  O1259  1  0.37128000  0.79598000  0.12936000  1
  O  O1260  1  0.65998000  0.79568000  0.83116000  1
  O  O1261  1  0.62671000  0.79531000  0.87697000  1
  O  O1262  1  0.89500000  0.79390000  0.50540000  1
  O  O1263  1  0.72896000  0.79256000  0.51512000  1
  O  O1264  1  0.67392000  0.78952000  0.04134000  1
  O  O1265  1  0.84002000  0.78682000  0.66884000  1
  O  O1266  1  0.94961000  0.78501000  0.44807000  1
  O  O1267  1  0.70744000  0.77104000  0.98488000  1
  O  O1268  1  0.59645000  0.75885000  0.02685000  1
  O  O1269  1  0.88215000  0.74115000  0.47315000  1
  O  O1270  1  0.96336000  0.72896000  0.51512000  1
  O  O1271  1  0.68269000  0.71499000  0.05193000  1
  O  O1272  1  0.79568000  0.71318000  0.83116000  1
  O  O1273  1  0.00478000  0.71048000  0.45866000  1
  O  O1274  1  0.53664000  0.70744000  0.98488000  1
  O  O1275  1  0.69430000  0.70610000  0.99460000  1
  O  O1276  1  0.79899000  0.70469000  0.62303000  1
  O  O1277  1  0.78682000  0.70432000  0.66884000  1
  O  O1278  1  0.79662000  0.70402000  0.37064000  1
  O  O1279  1  0.59028000  0.70378000  0.71816000  1
  O  O1280  1  0.79598000  0.70338000  0.12936000  1
  O  O1281  1  0.79531000  0.70101000  0.87697000  1
  O  O1282  1  0.60201000  0.69861000  0.08787000  1
  O  O1283  1  0.60500000  0.69430000  0.99460000  1
  O  O1284  1  0.30645000  0.69405000  0.85735000  1
  O  O1285  1  0.85785000  0.69355000  0.14265000  1
  O  O1286  1  0.34078000  0.68288000  0.92836000  1
  O  O1287  1  0.55039000  0.68269000  0.05193000  1
  O  O1288  1  0.52104000  0.68164000  0.70358000  1
  O  O1289  1  0.51754000  0.67744000  0.95398000  1
  O  O1290  1  0.61200000  0.67710000  0.13020000  1
  O  O1291  1  0.49522000  0.67392000  0.04134000  1
  O  O1292  1  0.93619000  0.67289000  0.49253000  1
  O  O1293  1  0.46593000  0.66983000  0.99541000  1
  O  O1294  1  0.89937000  0.66717000  0.04869000  1
  O  O1295  1  0.71318000  0.65998000  0.83116000  1
  O  O1296  1  0.95202000  0.65922000  0.07164000  1
  O  O1297  1  0.56285000  0.65535000  0.66065000  1
  O  O1298  1  0.65303000  0.65303000  0.04091000  1
  O  O1299  1  0.98246000  0.64896000  0.54602000  1
  O  O1300  1  0.80645000  0.64215000  0.35735000  1
  O  O1301  1  0.63077000  0.63247000  0.70349000  1
  O  O1302  1  0.03407000  0.63117000  0.50459000  1
  O  O1303  1  0.03327000  0.63077000  0.70349000  1
  O  O1304  1  0.29662000  0.62872000  0.87064000  1
  O  O1305  1  0.44648000  0.62818000  0.86986000  1
  O  O1306  1  0.54654000  0.62674000  0.75118000  1
  O  O1307  1  0.70101000  0.62671000  0.87697000  1
  O  O1308  1  0.06285000  0.62115000  0.16065000  1
  O  O1309  1  0.75885000  0.61785000  0.02685000  1
  O  O1310  1  0.33283000  0.61523000  0.95131000  1
  O  O1311  1  0.95409000  0.61339000  0.37943000  1
  O  O1312  1  0.58070000  0.61200000  0.13020000  1
  O  O1313  1  0.69861000  0.61151000  0.08787000  1
  O  O1314  1  0.04113000  0.61143000  0.77371000  1
  O  O1315  1  0.70610000  0.60500000  0.99460000  1
  O  O1316  1  0.61151000  0.60201000  0.08787000  1
  O  O1317  1  0.56381000  0.60161000  0.00747000  1
  O  O1318  1  0.83283000  0.60063000  0.45131000  1
  O  O1319  1  0.61785000  0.59645000  0.02685000  1
  O  O1320  1  0.02104000  0.59374000  0.20358000  1
  O  O1321  1  0.98778000  0.59028000  0.71816000  1
  O  O1322  1  0.67710000  0.58070000  0.13020000  1
  O  O1323  1  0.04654000  0.57554000  0.25118000  1
  O  O1324  1  0.61143000  0.57373000  0.77371000  1
  O  O1325  1  0.82711000  0.56381000  0.00747000  1
  O  O1326  1  0.12115000  0.56285000  0.66065000  1
  O  O1327  1  0.94648000  0.55548000  0.36986000  1
  O  O1328  1  0.94452000  0.55352000  0.13014000  1
  O  O1329  1  0.45409000  0.55309000  0.87943000  1
  O  O1330  1  0.71499000  0.55039000  0.05193000  1
  O  O1331  1  0.84078000  0.54798000  0.42836000  1
  O  O1332  1  0.07554000  0.54654000  0.75118000  1
  O  O1333  1  0.88661000  0.54591000  0.12057000  1
  O  O1334  1  0.11143000  0.54113000  0.27371000  1
  O  O1335  1  0.77104000  0.53664000  0.98488000  1
  O  O1336  1  0.13117000  0.53407000  0.00459000  1
  O  O1337  1  0.13077000  0.53327000  0.20349000  1
  O  O1338  1  0.09374000  0.52104000  0.70358000  1
  O  O1339  1  0.85104000  0.51754000  0.95398000  1
  O  O1340  1  0.90972000  0.51222000  0.78184000  1
  O  O1341  1  0.21048000  0.50478000  0.95866000  1
  O  O1342  1  0.78952000  0.49522000  0.04134000  1
  O  O1343  1  0.09028000  0.48778000  0.21816000  1
  O  O1344  1  0.14896000  0.48246000  0.04602000  1
  O  O1345  1  0.90626000  0.47896000  0.29642000  1
  O  O1346  1  0.86923000  0.46673000  0.79651000  1
  O  O1347  1  0.86883000  0.46593000  0.99541000  1
  O  O1348  1  0.22896000  0.46336000  0.01512000  1
  O  O1349  1  0.88857000  0.45887000  0.72629000  1
  O  O1350  1  0.11339000  0.45409000  0.87943000  1
  O  O1351  1  0.92446000  0.45346000  0.24882000  1
  O  O1352  1  0.15922000  0.45202000  0.57164000  1
  O  O1353  1  0.28501000  0.44961000  0.94807000  1
  O  O1354  1  0.54591000  0.44691000  0.12057000  1
  O  O1355  1  0.05548000  0.44648000  0.86986000  1
  O  O1356  1  0.05352000  0.44452000  0.63014000  1
  O  O1357  1  0.87885000  0.43715000  0.33935000  1
  O  O1358  1  0.17289000  0.43619000  0.99253000  1
  O  O1359  1  0.38857000  0.42627000  0.22629000  1
  O  O1360  1  0.95346000  0.42446000  0.74882000  1
  O  O1361  1  0.32290000  0.41930000  0.86980000  1
  O  O1362  1  0.01222000  0.40972000  0.28184000  1
  O  O1363  1  0.97896000  0.40626000  0.79642000  1
  O  O1364  1  0.38215000  0.40355000  0.97315000  1
  O  O1365  1  0.16717000  0.39937000  0.54869000  1
  O  O1366  1  0.43619000  0.39839000  0.99253000  1
  O  O1367  1  0.38849000  0.39799000  0.91213000  1
  O  O1368  1  0.29390000  0.39500000  0.00540000  1
  O  O1369  1  0.95887000  0.38857000  0.22629000  1
  O  O1370  1  0.30139000  0.38849000  0.91213000  1
  O  O1371  1  0.41930000  0.38800000  0.86980000  1
  O  O1372  1  0.04591000  0.38661000  0.62057000  1
  O  O1373  1  0.66717000  0.38477000  0.04869000  1
  O  O1374  1  0.24115000  0.38215000  0.97315000  1
  O  O1375  1  0.93715000  0.37885000  0.83935000  1
  O  O1376  1  0.29899000  0.37329000  0.12303000  1
  O  O1377  1  0.45346000  0.37326000  0.24882000  1
  O  O1378  1  0.55352000  0.37182000  0.13014000  1
  O  O1379  1  0.70338000  0.37128000  0.12936000  1
  O  O1380  1  0.96673000  0.36923000  0.29651000  1
  O  O1381  1  0.96593000  0.36883000  0.49541000  1
  O  O1382  1  0.36923000  0.36753000  0.29651000  1
  O  O1383  1  0.19355000  0.35785000  0.64265000  1
  O  O1384  1  0.01754000  0.35104000  0.45398000  1
  O  O1385  1  0.34697000  0.34697000  0.95909000  1
  O  O1386  1  0.43715000  0.34465000  0.33935000  1
  O  O1387  1  0.04798000  0.34078000  0.92836000  1
  O  O1388  1  0.28682000  0.34002000  0.16884000  1
  O  O1389  1  0.10063000  0.33283000  0.95131000  1
  O  O1390  1  0.53407000  0.33017000  0.00459000  1
  O  O1391  1  0.06381000  0.32711000  0.50747000  1
  O  O1392  1  0.50478000  0.32608000  0.95866000  1
  O  O1393  1  0.38800000  0.32290000  0.86980000  1
  O  O1394  1  0.48246000  0.32256000  0.04602000  1
  O  O1395  1  0.47896000  0.31836000  0.29642000  1
  O  O1396  1  0.44961000  0.31731000  0.94807000  1
  O  O1397  1  0.65922000  0.31712000  0.07164000  1
  O  O1398  1  0.14215000  0.30645000  0.85735000  1
  O  O1399  1  0.69355000  0.30595000  0.14265000  1
  O  O1400  1  0.39500000  0.30570000  0.00540000  1
  O  O1401  1  0.39799000  0.30139000  0.91213000  1
  O  O1402  1  0.20469000  0.29899000  0.12303000  1
  O  O1403  1  0.20402000  0.29662000  0.87064000  1
  O  O1404  1  0.40972000  0.29622000  0.28184000  1
  O  O1405  1  0.20338000  0.29598000  0.62936000  1
  O  O1406  1  0.21318000  0.29568000  0.33116000  1
  O  O1407  1  0.20101000  0.29531000  0.37697000  1
  O  O1408  1  0.30570000  0.29390000  0.00540000  1
  O  O1409  1  0.46336000  0.29256000  0.01512000  1
  O  O1410  1  0.99522000  0.28952000  0.54134000  1
  O  O1411  1  0.20432000  0.28682000  0.16884000  1
  O  O1412  1  0.31731000  0.28501000  0.94807000  1
  O  O1413  1  0.03664000  0.27104000  0.48488000  1
  O  O1414  1  0.11785000  0.25885000  0.52685000  1
  O  O1415  1  0.40355000  0.24115000  0.97315000  1
  O  O1416  1  0.29256000  0.22896000  0.01512000  1
  O  O1417  1  0.05039000  0.21499000  0.55193000  1
  O  O1418  1  0.15998000  0.21318000  0.33116000  1
  O  O1419  1  0.32608000  0.21048000  0.95866000  1
  O  O1420  1  0.27104000  0.20744000  0.48488000  1
  O  O1421  1  0.10500000  0.20610000  0.49460000  1
  O  O1422  1  0.37329000  0.20469000  0.12303000  1
  O  O1423  1  0.34002000  0.20432000  0.16884000  1
  O  O1424  1  0.62872000  0.20402000  0.87064000  1
  O  O1425  1  0.48778000  0.20378000  0.21816000  1
  O  O1426  1  0.87128000  0.20338000  0.62936000  1
  O  O1427  1  0.12671000  0.20101000  0.37697000  1
  O  O1428  1  0.11151000  0.19861000  0.58787000  1
  O  O1429  1  0.20610000  0.19430000  0.49460000  1
  O  O1430  1  0.64215000  0.19405000  0.35735000  1
  O  O1431  1  0.80595000  0.19355000  0.64265000  1
  O  O1432  1  0.54798000  0.18288000  0.42836000  1
  O  O1433  1  0.21499000  0.18269000  0.55193000  1
  O  O1434  1  0.59374000  0.18164000  0.20358000  1
  O  O1435  1  0.35104000  0.17744000  0.45398000  1
  O  O1436  1  0.08070000  0.17710000  0.63020000  1
  O  O1437  1  0.28952000  0.17392000  0.54134000  1
  O  O1438  1  0.39839000  0.17289000  0.99253000  1
  O  O1439  1  0.36883000  0.16983000  0.49541000  1
  O  O1440  1  0.88477000  0.16717000  0.54869000  1
  O  O1441  1  0.29568000  0.15998000  0.33116000  1
  O  O1442  1  0.81712000  0.15922000  0.57164000  1
  O  O1443  1  0.62115000  0.15535000  0.16065000  1
  O  O1444  1  0.15303000  0.15303000  0.54091000  1
  O  O1445  1  0.32256000  0.14896000  0.04602000  1
  O  O1446  1  0.69405000  0.14215000  0.85735000  1
  O  O1447  1  0.53327000  0.13247000  0.20349000  1
  O  O1448  1  0.33017000  0.13117000  0.00459000  1
  O  O1449  1  0.13247000  0.13077000  0.20349000  1
  O  O1450  1  0.70402000  0.12872000  0.37064000  1
  O  O1451  1  0.55548000  0.12818000  0.36986000  1
  O  O1452  1  0.57554000  0.12674000  0.25118000  1
  O  O1453  1  0.29531000  0.12671000  0.37697000  1
  O  O1454  1  0.65535000  0.12115000  0.66065000  1
  O  O1455  1  0.09645000  0.11785000  0.52685000  1
  O  O1456  1  0.60063000  0.11523000  0.45131000  1
  O  O1457  1  0.55309000  0.11339000  0.87943000  1
  O  O1458  1  0.17710000  0.11200000  0.63020000  1
  O  O1459  1  0.10201000  0.11151000  0.58787000  1
  O  O1460  1  0.07373000  0.11143000  0.27371000  1
  O  O1461  1  0.19430000  0.10500000  0.49460000  1
  O  O1462  1  0.19861000  0.10201000  0.58787000  1
  O  O1463  1  0.32711000  0.10161000  0.50747000  1
  O  O1464  1  0.61523000  0.10063000  0.95131000  1
  O  O1465  1  0.25885000  0.09645000  0.52685000  1
  O  O1466  1  0.68164000  0.09374000  0.70358000  1
  O  O1467  1  0.20378000  0.09028000  0.21816000  1
  O  O1468  1  0.11200000  0.08070000  0.63020000  1
  O  O1469  1  0.62674000  0.07554000  0.75118000  1
  O  O1470  1  0.54113000  0.07373000  0.27371000  1
  O  O1471  1  0.10161000  0.06381000  0.50747000  1
  O  O1472  1  0.15535000  0.06285000  0.16065000  1
  O  O1473  1  0.62818000  0.05548000  0.86986000  1
  O  O1474  1  0.87182000  0.05352000  0.63014000  1
  O  O1475  1  0.61339000  0.05309000  0.37943000  1
  O  O1476  1  0.18269000  0.05039000  0.55193000  1
  O  O1477  1  0.68288000  0.04798000  0.92836000  1
  O  O1478  1  0.12674000  0.04654000  0.25118000  1
  O  O1479  1  0.94691000  0.04591000  0.62057000  1
  O  O1480  1  0.57373000  0.04113000  0.77371000  1
  O  O1481  1  0.20744000  0.03664000  0.48488000  1
  O  O1482  1  0.83017000  0.03407000  0.50459000  1
  O  O1483  1  0.63247000  0.03327000  0.70349000  1
  O  O1484  1  0.18164000  0.02104000  0.20358000  1
  O  O1485  1  0.17744000  0.01754000  0.45398000  1
  O  O1486  1  0.29622000  0.01222000  0.28184000  1
  O  O1487  1  0.82608000  0.00478000  0.45866000  1
