# generated using pymatgen
data_K2Zn19H192(C81O20)4
_symmetry_space_group_name_H-M   'P 1'
_cell_length_a   32.44100000
_cell_length_b   32.44100000
_cell_length_c   33.13238364
_cell_angle_alpha   119.31204962
_cell_angle_beta   119.31211588
_cell_angle_gamma   90.00000000
_symmetry_Int_Tables_number   1
_chemical_formula_structural   K2Zn19H192(C81O20)4
_chemical_formula_sum   'K4 Zn38 H384 C648 O160'
_cell_volume   25160.18967749
_cell_formula_units_Z   2
loop_
 _symmetry_equiv_pos_site_id
 _symmetry_equiv_pos_as_xyz
  1  'x, y, z'
loop_
 _atom_site_type_symbol
 _atom_site_label
 _atom_site_symmetry_multiplicity
 _atom_site_fract_x
 _atom_site_fract_y
 _atom_site_fract_z
 _atom_site_occupancy
  K  K0  1  0.36638000  0.62500000  0.75000000  1
  K  K1  1  0.37500000  0.63362000  0.25000000  1
  K  K2  1  0.38362000  0.12500000  0.75000000  1
  K  K3  1  0.87500000  0.61638000  0.25000000  1
  Zn  Zn4  1  0.00000000  0.00000000  0.00000000  1
  Zn  Zn5  1  0.03031000  0.66312000  0.29508000  1
  Zn  Zn6  1  0.03556000  0.73462000  0.41114000  1
  Zn  Zn7  1  0.03560000  0.61834000  0.36970000  1
  Zn  Zn8  1  0.06546000  0.06546000  0.13092000  1
  Zn  Zn9  1  0.13435000  0.06202000  0.08986000  1
  Zn  Zn10  1  0.24864000  0.66590000  0.63030000  1
  Zn  Zn11  1  0.26477000  0.63196000  0.29508000  1
  Zn  Zn12  1  0.26538000  0.96444000  0.58886000  1
  Zn  Zn13  1  0.32348000  0.62442000  0.58886000  1
  Zn  Zn14  1  0.33410000  0.75136000  0.36970000  1
  Zn  Zn15  1  0.33688000  0.96969000  0.70492000  1
  Zn  Zn16  1  0.36804000  0.73523000  0.70492000  1
  Zn  Zn17  1  0.36834000  0.58410000  0.86970000  1
  Zn  Zn18  1  0.37442000  0.51538000  0.08886000  1
  Zn  Zn19  1  0.37558000  0.67652000  0.41114000  1
  Zn  Zn20  1  0.38166000  0.96440000  0.63030000  1
  Zn  Zn21  1  0.38196000  0.28031000  0.79508000  1
  Zn  Zn22  1  0.41312000  0.51477000  0.79508000  1
  Zn  Zn23  1  0.41590000  0.63166000  0.13030000  1
  Zn  Zn24  1  0.42652000  0.28556000  0.91114000  1
  Zn  Zn25  1  0.48462000  0.62558000  0.91114000  1
  Zn  Zn26  1  0.48523000  0.58688000  0.20492000  1
  Zn  Zn27  1  0.50136000  0.28560000  0.86970000  1
  Zn  Zn28  1  0.61565000  0.22216000  0.41014000  1
  Zn  Zn29  1  0.68454000  0.18454000  0.36908000  1
  Zn  Zn30  1  0.71440000  0.49864000  0.13030000  1
  Zn  Zn31  1  0.71444000  0.57348000  0.08886000  1
  Zn  Zn32  1  0.71969000  0.61804000  0.20492000  1
  Zn  Zn33  1  0.75000000  0.25000000  0.50000000  1
  Zn  Zn34  1  0.77784000  0.38435000  0.58986000  1
  Zn  Zn35  1  0.79449000  0.18798000  0.41014000  1
  Zn  Zn36  1  0.81202000  0.20551000  0.58986000  1
  Zn  Zn37  1  0.81546000  0.31546000  0.63092000  1
  Zn  Zn38  1  0.93454000  0.93454000  0.86908000  1
  Zn  Zn39  1  0.93798000  0.86565000  0.91014000  1
  Zn  Zn40  1  0.95551000  0.02784000  0.08986000  1
  Zn  Zn41  1  0.97216000  0.04449000  0.91014000  1
  H  H42  1  0.00280000  0.09390000  0.00580000  1
  H  H43  1  0.00300000  0.91190000  0.00580000  1
  H  H44  1  0.00350000  0.50100000  0.67860000  1
  H  H45  1  0.00370000  0.46800000  0.29360000  1
  H  H46  1  0.00380000  0.97940000  0.06460000  1
  H  H47  1  0.00650000  0.81140000  0.51540000  1
  H  H48  1  0.00740000  0.72080000  0.20120000  1
  H  H49  1  0.01210000  0.00450000  0.78660000  1
  H  H50  1  0.02060000  0.99620000  0.93540000  1
  H  H51  1  0.02080000  0.97010000  0.71500000  1
  H  H52  1  0.02420000  0.87860000  0.81360000  1
  H  H53  1  0.02470000  0.17900000  0.52480000  1
  H  H54  1  0.02990000  0.97920000  0.28500000  1
  H  H55  1  0.03290000  0.41350000  0.84140000  1
  H  H56  1  0.03370000  0.78710000  0.86140000  1
  H  H57  1  0.04180000  0.40560000  0.72440000  1
  H  H58  1  0.04230000  0.90090000  0.11240000  1
  H  H59  1  0.04520000  0.29980000  0.66260000  1
  H  H60  1  0.04980000  0.86740000  0.16260000  1
  H  H61  1  0.05210000  0.50580000  0.38660000  1
  H  H62  1  0.05310000  0.19100000  0.97460000  1
  H  H63  1  0.05580000  0.27990000  0.78500000  1
  H  H64  1  0.06080000  0.08520000  0.06460000  1
  H  H65  1  0.06160000  0.68040000  0.20220000  1
  H  H66  1  0.06210000  0.86560000  0.53000000  1
  H  H67  1  0.06350000  0.91370000  0.67580000  1
  H  H68  1  0.06430000  0.77550000  0.56640000  1
  H  H69  1  0.06500000  0.21060000  0.18640000  1
  H  H70  1  0.06740000  0.84440000  0.77560000  1
  H  H71  1  0.06800000  0.77280000  0.70360000  1
  H  H72  1  0.06840000  0.79140000  0.16360000  1
  H  H73  1  0.06880000  0.29180000  0.22440000  1
  H  H74  1  0.06920000  0.36440000  0.29640000  1
  H  H75  1  0.07010000  0.21150000  0.11240000  1
  H  H76  1  0.07370000  0.50050000  0.28800000  1
  H  H77  1  0.07490000  0.74900000  0.82140000  1
  H  H78  1  0.07590000  0.79000000  0.30260000  1
  H  H79  1  0.07700000  0.49220000  0.67100000  1
  H  H80  1  0.07980000  0.78780000  0.64640000  1
  H  H81  1  0.08630000  0.93650000  0.32420000  1
  H  H82  1  0.08810000  0.99700000  0.99420000  1
  H  H83  1  0.09010000  0.17530000  0.61040000  1
  H  H84  1  0.09520000  0.37220000  0.16360000  1
  H  H85  1  0.09580000  0.27470000  0.02480000  1
  H  H86  1  0.09820000  0.42760000  0.92640000  1
  H  H87  1  0.09910000  0.95770000  0.88760000  1
  H  H88  1  0.10040000  0.86630000  0.31560000  1
  H  H89  1  0.10180000  0.65110000  0.52880000  1
  H  H90  1  0.10370000  0.43820000  0.24460000  1
  H  H91  1  0.10890000  0.58160000  0.24420000  1
  H  H92  1  0.11060000  0.86440000  0.45840000  1
  H  H93  1  0.11270000  0.56400000  0.67560000  1
  H  H94  1  0.11280000  0.29520000  0.16260000  1
  H  H95  1  0.11440000  0.47720000  0.79640000  1
  H  H96  1  0.11920000  0.66550000  0.61340000  1
  H  H97  1  0.12140000  0.97580000  0.18640000  1
  H  H98  1  0.12220000  0.31840000  0.66360000  1
  H  H99  1  0.12230000  0.57300000  0.47120000  1
  H  H100  1  0.12450000  0.11170000  0.57240000  1
  H  H101  1  0.12710000  0.07140000  0.27220000  1
  H  H102  1  0.13260000  0.95020000  0.83740000  1
  H  H103  1  0.13370000  0.89960000  0.68440000  1
  H  H104  1  0.13440000  0.93790000  0.47000000  1
  H  H105  1  0.13530000  0.66260000  0.24420000  1
  H  H106  1  0.13560000  0.88940000  0.54160000  1
  H  H107  1  0.13670000  0.44630000  0.02560000  1
  H  H108  1  0.13770000  0.33630000  0.82420000  1
  H  H109  1  0.14060000  0.52180000  0.20220000  1
  H  H110  1  0.14090000  0.80640000  0.24460000  1
  H  H111  1  0.14140000  0.43340000  0.35360000  1
  H  H112  1  0.14510000  0.20080000  0.27220000  1
  H  H113  1  0.14570000  0.60350000  0.65240000  1
  H  H114  1  0.15560000  0.93260000  0.22440000  1
  H  H115  1  0.15600000  0.75780000  0.82900000  1
  H  H116  1  0.16000000  0.04890000  0.56340000  1
  H  H117  1  0.16300000  0.50680000  0.11700000  1
  H  H118  1  0.16350000  0.05850000  0.34140000  1
  H  H119  1  0.17440000  0.71010000  0.70640000  1
  H  H120  1  0.17760000  0.07820000  0.42640000  1
  H  H121  1  0.17790000  0.28290000  0.34140000  1
  H  H122  1  0.18340000  0.46220000  0.85360000  1
  H  H123  1  0.18510000  0.34010000  0.11040000  1
  H  H124  1  0.18710000  0.68600000  0.82440000  1
  H  H125  1  0.18820000  0.39090000  0.74460000  1
  H  H126  1  0.18860000  0.99350000  0.48460000  1
  H  H127  1  0.19360000  0.85910000  0.75540000  1
  H  H128  1  0.19380000  0.48040000  0.20120000  1
  H  H129  1  0.19630000  0.13890000  0.52560000  1
  H  H130  1  0.19930000  0.35040000  0.81560000  1
  H  H131  1  0.20860000  0.93160000  0.83640000  1
  H  H132  1  0.20910000  0.49790000  0.43360000  1
  H  H133  1  0.21000000  0.92410000  0.69740000  1
  H  H134  1  0.21070000  0.37450000  0.07240000  1
  H  H135  1  0.21220000  0.92020000  0.35360000  1
  H  H136  1  0.21250000  0.78570000  0.71200000  1
  H  H137  1  0.21290000  0.96630000  0.13860000  1
  H  H138  1  0.21430000  0.78750000  0.28800000  1
  H  H139  1  0.21520000  0.44930000  0.31560000  1
  H  H140  1  0.21640000  0.07850000  0.02540000  1
  H  H141  1  0.21790000  0.22550000  0.21340000  1
  H  H142  1  0.21800000  0.53990000  0.79360000  1
  H  H143  1  0.22450000  0.93570000  0.43360000  1
  H  H144  1  0.22670000  0.51260000  0.30260000  1
  H  H145  1  0.22720000  0.93200000  0.29640000  1
  H  H146  1  0.22910000  0.51770000  0.72500000  1
  H  H147  1  0.22970000  0.07470000  0.88960000  1
  H  H148  1  0.23040000  0.25740000  0.70120000  1
  H  H149  1  0.23790000  0.38770000  0.32420000  1
  H  H150  1  0.24110000  0.43860000  0.98460000  1
  H  H151  1  0.24220000  0.84400000  0.17100000  1
  H  H152  1  0.24220000  0.20450000  0.72980000  1
  H  H153  1  0.24330000  0.64650000  0.84760000  1
  H  H154  1  0.24540000  0.52590000  0.04360000  1
  H  H155  1  0.24790000  0.47450000  0.93360000  1
  H  H156  1  0.24880000  0.34820000  0.42640000  1
  H  H157  1  0.24990000  0.07100000  0.97520000  1
  H  H158  1  0.25050000  0.46430000  0.78800000  1
  H  H159  1  0.25100000  0.92510000  0.17860000  1
  H  H160  1  0.25410000  0.73230000  0.77500000  1
  H  H161  1  0.25510000  0.30580000  0.28500000  1
  H  H162  1  0.25580000  0.58450000  0.88660000  1
  H  H163  1  0.25680000  0.20400000  0.61700000  1
  H  H164  1  0.26010000  0.55010000  0.69460000  1
  H  H165  1  0.26240000  0.04550000  0.77020000  1
  H  H166  1  0.26260000  0.32590000  0.80260000  1
  H  H167  1  0.26450000  0.41000000  0.06340000  1
  H  H168  1  0.26770000  0.49540000  0.54360000  1
  H  H169  1  0.26770000  0.74590000  0.22500000  1
  H  H170  1  0.27180000  0.31160000  0.70220000  1
  H  H171  1  0.27280000  0.58300000  0.13300000  1
  H  H172  1  0.27530000  0.49220000  0.22980000  1
  H  H173  1  0.27590000  0.04820000  0.54360000  1
  H  H174  1  0.27650000  0.14010000  0.72300000  1
  H  H175  1  0.27920000  0.99260000  0.79880000  1
  H  H176  1  0.28210000  0.38440000  0.97000000  1
  H  H177  1  0.28990000  0.82560000  0.29360000  1
  H  H178  1  0.29600000  0.49110000  0.48460000  1
  H  H179  1  0.30000000  0.52280000  0.63300000  1
  H  H180  1  0.30010000  0.68450000  0.19460000  1
  H  H181  1  0.30210000  0.13830000  0.92760000  1
  H  H182  1  0.30350000  0.10990000  0.77700000  1
  H  H183  1  0.31400000  0.81290000  0.17560000  1
  H  H184  1  0.31550000  0.69990000  0.80540000  1
  H  H185  1  0.31960000  0.93840000  0.79780000  1
  H  H186  1  0.32300000  0.59890000  0.97120000  1
  H  H187  1  0.32680000  0.65560000  0.66980000  1
  H  H188  1  0.32930000  0.38670000  0.52560000  1
  H  H189  1  0.33160000  0.38530000  0.74420000  1
  H  H190  1  0.33290000  0.52650000  0.22300000  1
  H  H191  1  0.33300000  0.11020000  0.63300000  1
  H  H192  1  0.33450000  0.88080000  0.38660000  1
  H  H193  1  0.33560000  0.53210000  0.47000000  1
  H  H194  1  0.33740000  0.86470000  0.75580000  1
  H  H195  1  0.34300000  0.01420000  0.66980000  1
  H  H196  1  0.34400000  0.36060000  0.95840000  1
  H  H197  1  0.34440000  0.67320000  0.33020000  1
  H  H198  1  0.34660000  0.20110000  0.93660000  1
  H  H199  1  0.34780000  0.59400000  0.45840000  1
  H  H200  1  0.34890000  0.89820000  0.47120000  1
  H  H201  1  0.35350000  0.75670000  0.15240000  1
  H  H202  1  0.36020000  0.41300000  0.61700000  1
  H  H203  1  0.38980000  0.04600000  0.88300000  1
  H  H204  1  0.39650000  0.85430000  0.34760000  1
  H  H205  1  0.40110000  0.67700000  0.02880000  1
  H  H206  1  0.40220000  0.38560000  0.04160000  1
  H  H207  1  0.40340000  0.51450000  0.56340000  1
  H  H208  1  0.40560000  0.59300000  0.16980000  1
  H  H209  1  0.40600000  0.65220000  0.54160000  1
  H  H210  1  0.40700000  0.59440000  0.83020000  1
  H  H211  1  0.41260000  0.35890000  0.74420000  1
  H  H212  1  0.41440000  0.31210000  0.03000000  1
  H  H213  1  0.41550000  0.74420000  0.11340000  1
  H  H214  1  0.41700000  0.72720000  0.86700000  1
  H  H215  1  0.41710000  0.55350000  0.27700000  1
  H  H216  1  0.41840000  0.89110000  0.75580000  1
  H  H217  1  0.42070000  0.11110000  0.97440000  1
  H  H218  1  0.42320000  0.23580000  0.83020000  1
  H  H219  1  0.42700000  0.87770000  0.52880000  1
  H  H220  1  0.43040000  0.39060000  0.70220000  1
  H  H221  1  0.43450000  0.14450000  0.69460000  1
  H  H222  1  0.43600000  0.88730000  0.32440000  1
  H  H223  1  0.44650000  0.58290000  0.72300000  1
  H  H224  1  0.44790000  0.46070000  0.57240000  1
  H  H225  1  0.44990000  0.73990000  0.30540000  1
  H  H226  1  0.45000000  0.13980000  0.86700000  1
  H  H227  1  0.45400000  0.25650000  0.01540000  1
  H  H228  1  0.46010000  0.78200000  0.20640000  1
  H  H229  1  0.46790000  0.66440000  0.53000000  1
  H  H230  1  0.47080000  0.44380000  0.70120000  1
  H  H231  1  0.47350000  0.66710000  0.77700000  1
  H  H232  1  0.47410000  0.75460000  0.95640000  1
  H  H233  1  0.47470000  0.51240000  0.27020000  1
  H  H234  1  0.47720000  0.70000000  0.36700000  1
  H  H235  1  0.47820000  0.85940000  0.79780000  1
  H  H236  1  0.48230000  0.77090000  0.27500000  1
  H  H237  1  0.48230000  0.20180000  0.95640000  1
  H  H238  1  0.48550000  0.59660000  0.43660000  1
  H  H239  1  0.48740000  0.77330000  0.69740000  1
  H  H240  1  0.48760000  0.52530000  0.72980000  1
  H  H241  1  0.48990000  0.10550000  0.80540000  1
  H  H242  1  0.49320000  0.83700000  0.88300000  1
  H  H243  1  0.49420000  0.94790000  0.61340000  1
  H  H244  1  0.49490000  0.27080000  0.21500000  1
  H  H245  1  0.49590000  0.20730000  0.72500000  1
  H  H246  1  0.49900000  0.99650000  0.32140000  1
  H  H247  1  0.49950000  0.92630000  0.71200000  1
  H  H248  1  0.50010000  0.34580000  0.52480000  1
  H  H249  1  0.50120000  0.17180000  0.07360000  1
  H  H250  1  0.50210000  0.79090000  0.56640000  1
  H  H251  1  0.50460000  0.73230000  0.45640000  1
  H  H252  1  0.50670000  0.04890000  0.65240000  1
  H  H253  1  0.50780000  0.72470000  0.77020000  1
  H  H254  1  0.50780000  0.92300000  0.32900000  1
  H  H255  1  0.50890000  0.70400000  0.51540000  1
  H  H256  1  0.51210000  0.31350000  0.17580000  1
  H  H257  1  0.51960000  0.80620000  0.79880000  1
  H  H258  1  0.52030000  0.43510000  0.61040000  1
  H  H259  1  0.52090000  0.04270000  0.77500000  1
  H  H260  1  0.52280000  0.88560000  0.20360000  1
  H  H261  1  0.52330000  0.46000000  0.19740000  1
  H  H262  1  0.52550000  0.75210000  0.06640000  1
  H  H263  1  0.53200000  0.99630000  0.70640000  1
  H  H264  1  0.53210000  0.26210000  0.28660000  1
  H  H265  1  0.53360000  0.30310000  0.47460000  1
  H  H266  1  0.53480000  0.38370000  0.18440000  1
  H  H267  1  0.53570000  0.74950000  0.21200000  1
  H  H268  1  0.53710000  0.07770000  0.36140000  1
  H  H269  1  0.53750000  0.32370000  0.78800000  1
  H  H270  1  0.53780000  0.81660000  0.14640000  1
  H  H271  1  0.53930000  0.55210000  0.42760000  1
  H  H272  1  0.54000000  0.47670000  0.80260000  1
  H  H273  1  0.54090000  0.31430000  0.06640000  1
  H  H274  1  0.54140000  0.34520000  0.66360000  1
  H  H275  1  0.55070000  0.78480000  0.68440000  1
  H  H276  1  0.55370000  0.86330000  0.97440000  1
  H  H277  1  0.55620000  0.52920000  0.29880000  1
  H  H278  1  0.55640000  0.35370000  0.74460000  1
  H  H279  1  0.56140000  0.75890000  0.01540000  1
  H  H280  1  0.56180000  0.89630000  0.75540000  1
  H  H281  1  0.56290000  0.11160000  0.67560000  1
  H  H282  1  0.56490000  0.47970000  0.38960000  1
  H  H283  1  0.56660000  0.85860000  0.64640000  1
  H  H284  1  0.57210000  0.19150000  0.15860000  1
  H  H285  1  0.57240000  0.90180000  0.07360000  1
  H  H286  1  0.57560000  0.25370000  0.79360000  1
  H  H287  1  0.58650000  0.96710000  0.15860000  1
  H  H288  1  0.58700000  0.63980000  0.38300000  1
  H  H289  1  0.59000000  0.73550000  0.93660000  1
  H  H290  1  0.59400000  0.17880000  0.67100000  1
  H  H291  1  0.59440000  0.95820000  0.27560000  1
  H  H292  1  0.60430000  0.20110000  0.84760000  1
  H  H293  1  0.60490000  0.17860000  0.22780000  1
  H  H294  1  0.60860000  0.32980000  0.14640000  1
  H  H295  1  0.60910000  0.81180000  0.25540000  1
  H  H296  1  0.60940000  0.56960000  0.29780000  1
  H  H297  1  0.61230000  0.76210000  0.67580000  1
  H  H298  1  0.61330000  0.67070000  0.47440000  1
  H  H299  1  0.61440000  0.59780000  0.95840000  1
  H  H300  1  0.61470000  0.66840000  0.25580000  1
  H  H301  1  0.61560000  0.71790000  0.03000000  1
  H  H302  1  0.61630000  0.46520000  0.81560000  1
  H  H303  1  0.61740000  0.36280000  0.66260000  1
  H  H304  1  0.62290000  0.04920000  0.22780000  1
  H  H305  1  0.62550000  0.78930000  0.92760000  1
  H  H306  1  0.62770000  0.35180000  0.02880000  1
  H  H307  1  0.62780000  0.90480000  0.83640000  1
  H  H308  1  0.62860000  0.03940000  0.31360000  1
  H  H309  1  0.63080000  0.30210000  0.88660000  1
  H  H310  1  0.63560000  0.93080000  0.70360000  1
  H  H311  1  0.63720000  0.38260000  0.33740000  1
  H  H312  1  0.63730000  0.13840000  0.82440000  1
  H  H313  1  0.63940000  0.65600000  0.04160000  1
  H  H314  1  0.64110000  0.58740000  0.25580000  1
  H  H315  1  0.64630000  0.44360000  0.25540000  1
  H  H316  1  0.64820000  0.37230000  0.97120000  1
  H  H317  1  0.64960000  0.80070000  0.18440000  1
  H  H318  1  0.65090000  0.32010000  0.61240000  1
  H  H319  1  0.65180000  0.75120000  0.57360000  1
  H  H320  1  0.65420000  0.49990000  0.47520000  1
  H  H321  1  0.65480000  0.45860000  0.33640000  1
  H  H322  1  0.65990000  0.81490000  0.88960000  1
  H  H323  1  0.66190000  0.25280000  0.50580000  1
  H  H324  1  0.66370000  0.86230000  0.17580000  1
  H  H325  1  0.67020000  0.39140000  0.85360000  1
  H  H326  1  0.67300000  0.07120000  0.82900000  1
  H  H327  1  0.67410000  0.73740000  0.19740000  1
  H  H328  1  0.67510000  0.17760000  0.67860000  1
  H  H329  1  0.67630000  0.46250000  0.21200000  1
  H  H330  1  0.67990000  0.34910000  0.38760000  1
  H  H331  1  0.68080000  0.31800000  0.20360000  1
  H  H332  1  0.68120000  0.31740000  0.27560000  1
  H  H333  1  0.68160000  0.87780000  0.33640000  1
  H  H334  1  0.68200000  0.31920000  0.79640000  1
  H  H335  1  0.68260000  0.31880000  0.72440000  1
  H  H336  1  0.68500000  0.27420000  0.31360000  1
  H  H337  1  0.68570000  0.45910000  0.93360000  1
  H  H338  1  0.68650000  0.48790000  0.82420000  1
  H  H339  1  0.68790000  0.58560000  0.97000000  1
  H  H340  1  0.68840000  0.72820000  0.29780000  1
  H  H341  1  0.68920000  0.27060000  0.43540000  1
  H  H342  1  0.69420000  0.74490000  0.71500000  1
  H  H343  1  0.69690000  0.46640000  0.52540000  1
  H  H344  1  0.69790000  0.36920000  0.11340000  1
  H  H345  1  0.70020000  0.95480000  0.33740000  1
  H  H346  1  0.70480000  0.88720000  0.83740000  1
  H  H347  1  0.70770000  0.03850000  0.38760000  1
  H  H348  1  0.70820000  0.93120000  0.77560000  1
  H  H349  1  0.71630000  0.17570000  0.63860000  1
  H  H350  1  0.71710000  0.82210000  0.65860000  1
  H  H351  1  0.72010000  0.94420000  0.21500000  1
  H  H352  1  0.72530000  0.90420000  0.97520000  1
  H  H353  1  0.72580000  0.31500000  0.68640000  1
  H  H354  1  0.72920000  0.50510000  0.78500000  1
  H  H355  1  0.72940000  0.31080000  0.56460000  1
  H  H356  1  0.73790000  0.46790000  0.71340000  1
  H  H357  1  0.74260000  0.76960000  0.29880000  1
  H  H358  1  0.74350000  0.54600000  0.98460000  1
  H  H359  1  0.74620000  0.16480000  0.43540000  1
  H  H360  1  0.74630000  0.42440000  0.20640000  1
  H  H361  1  0.74650000  0.07240000  0.82140000  1
  H  H362  1  0.74700000  0.15610000  0.49420000  1
  H  H363  1  0.74720000  0.33810000  0.49420000  1
  H  H364  1  0.75450000  0.02450000  0.28660000  1
  H  H365  1  0.76420000  0.57680000  0.16980000  1
  H  H366  1  0.77450000  0.78210000  0.78660000  1
  H  H367  1  0.78850000  0.92990000  0.88760000  1
  H  H368  1  0.78940000  0.93500000  0.81360000  1
  H  H369  1  0.79270000  0.50410000  0.27500000  1
  H  H370  1  0.79550000  0.75780000  0.27020000  1
  H  H371  1  0.79600000  0.74320000  0.38300000  1
  H  H372  1  0.79820000  0.51770000  0.04360000  1
  H  H373  1  0.79890000  0.65340000  0.06340000  1
  H  H374  1  0.79890000  0.39570000  0.15240000  1
  H  H375  1  0.79920000  0.85490000  0.72780000  1
  H  H376  1  0.80850000  0.42790000  0.84140000  1
  H  H377  1  0.80900000  0.94690000  0.02540000  1
  H  H378  1  0.82100000  0.97530000  0.47520000  1
  H  H379  1  0.82120000  0.40600000  0.32900000  1
  H  H380  1  0.82140000  0.39510000  0.77220000  1
  H  H381  1  0.82240000  0.32490000  0.32140000  1
  H  H382  1  0.82430000  0.28370000  0.36140000  1
  H  H383  1  0.82470000  0.90990000  0.38960000  1
  H  H384  1  0.82770000  0.07430000  0.86140000  1
  H  H385  1  0.82820000  0.49880000  0.92640000  1
  H  H386  1  0.82850000  0.05900000  0.52540000  1
  H  H387  1  0.83520000  0.25380000  0.56460000  1
  H  H388  1  0.84390000  0.25300000  0.50580000  1
  H  H389  1  0.85550000  0.56550000  0.30540000  1
  H  H390  1  0.85990000  0.72350000  0.27700000  1
  H  H391  1  0.86020000  0.55000000  0.13300000  1
  H  H392  1  0.86110000  0.80370000  0.47440000  1
  H  H393  1  0.86160000  0.36270000  0.17560000  1
  H  H394  1  0.86170000  0.69790000  0.07240000  1
  H  H395  1  0.88830000  0.87550000  0.42760000  1
  H  H396  1  0.88840000  0.43710000  0.32440000  1
  H  H397  1  0.88890000  0.57930000  0.02560000  1
  H  H398  1  0.88980000  0.66700000  0.36700000  1
  H  H399  1  0.89010000  0.69650000  0.22300000  1
  H  H400  1  0.89450000  0.51010000  0.19460000  1
  H  H401  1  0.90610000  0.99720000  0.99420000  1
  H  H402  1  0.91480000  0.93920000  0.93540000  1
  H  H403  1  0.92150000  0.78360000  0.97460000  1
  H  H404  1  0.92180000  0.82240000  0.57360000  1
  H  H405  1  0.92230000  0.46290000  0.63860000  1
  H  H406  1  0.92530000  0.77030000  0.11040000  1
  H  H407  1  0.92570000  0.17230000  0.13860000  1
  H  H408  1  0.92760000  0.25350000  0.17860000  1
  H  H409  1  0.92860000  0.87290000  0.72780000  1
  H  H410  1  0.92880000  0.32700000  0.17100000  1
  H  H411  1  0.92900000  0.75010000  0.02480000  1
  H  H412  1  0.94100000  0.17150000  0.47460000  1
  H  H413  1  0.94150000  0.83650000  0.65860000  1
  H  H414  1  0.95080000  0.37710000  0.77220000  1
  H  H415  1  0.95110000  0.84000000  0.43660000  1
  H  H416  1  0.95110000  0.49330000  0.34760000  1
  H  H417  1  0.95180000  0.72410000  0.45640000  1
  H  H418  1  0.95400000  0.61020000  0.11700000  1
  H  H419  1  0.95450000  0.73760000  0.22980000  1
  H  H420  1  0.95730000  0.47910000  0.22500000  1
  H  H421  1  0.96060000  0.37140000  0.68640000  1
  H  H422  1  0.96150000  0.29230000  0.61240000  1
  H  H423  1  0.97550000  0.24550000  0.71340000  1
  H  H424  1  0.98580000  0.65700000  0.33020000  1
  H  H425  1  0.99550000  0.98790000  0.21340000  1
  C  C426  1  0.00217000  0.82708000  0.54456000  1
  C  C427  1  0.00261000  0.43481000  0.27782000  1
  C  C428  1  0.00330000  0.95020000  0.71800000  1
  C  C429  1  0.00434000  0.73654000  0.18328000  1
  C  C430  1  0.01209000  0.20173000  0.54240000  1
  C  C431  1  0.01779000  0.41729000  0.70678000  1
  C  C432  1  0.01960000  0.87069000  0.09486000  1
  C  C433  1  0.02076000  0.37916000  0.81552000  1
  C  C434  1  0.02410000  0.85059000  0.12492000  1
  C  C435  1  0.02427000  0.83590000  0.84140000  1
  C  C436  1  0.02433000  0.27410000  0.62492000  1
  C  C437  1  0.02810000  0.13980000  0.00600000  1
  C  C438  1  0.02952000  0.00312000  0.24044000  1
  C  C439  1  0.03185000  0.04155000  0.19030000  1
  C  C440  1  0.03228000  0.45768000  0.70316000  1
  C  C441  1  0.03511000  0.85271000  0.81562000  1
  C  C442  1  0.03530000  0.29980000  0.78200000  1
  C  C443  1  0.03684000  0.88784000  0.64068000  1
  C  C444  1  0.03709000  0.21949000  0.18438000  1
  C  C445  1  0.03949000  0.26779000  0.20678000  1
  C  C446  1  0.04027000  0.79837000  0.84354000  1
  C  C447  1  0.04087000  0.77837000  0.16074000  1
  C  C448  1  0.04143000  0.37323000  0.27966000  1
  C  C449  1  0.04144000  0.86464000  0.59648000  1
  C  C450  1  0.04329000  0.24017000  0.59870000  1
  C  C451  1  0.04356000  0.42384000  0.30542000  1
  C  C452  1  0.04467000  0.75327000  0.18634000  1
  C  C453  1  0.04980000  0.99670000  0.28200000  1
  C  C454  1  0.05427000  0.35087000  0.82074000  1
  C  C455  1  0.05662000  0.03162000  0.23524000  1
  C  C456  1  0.05741000  0.19297000  0.03858000  1
  C  C457  1  0.06101000  0.83271000  0.79322000  1
  C  C458  1  0.06511000  0.21193000  0.01234000  1
  C  C459  1  0.06591000  0.70181000  0.48362000  1
  C  C460  1  0.06616000  0.77596000  0.82052000  1
  C  C461  1  0.07074000  0.58494000  0.29648000  1
  C  C462  1  0.07467000  0.75257000  0.57514000  1
  C  C463  1  0.07526000  0.22417000  0.09486000  1
  C  C464  1  0.07570000  0.77060000  0.37040000  1
  C  C465  1  0.07912000  0.79232000  0.79684000  1
  C  C466  1  0.07939000  0.71159000  0.53918000  1
  C  C467  1  0.08394000  0.50424000  0.39608000  1
  C  C468  1  0.08490000  0.76030000  0.62340000  1
  C  C469  1  0.08617000  0.48127000  0.72894000  1
  C  C470  1  0.08711000  0.50451000  0.27042000  1
  C  C471  1  0.08797000  0.81977000  0.33674000  1
  C  C472  1  0.08912000  0.46265000  0.35984000  1
  C  C473  1  0.08971000  0.54631000  0.27042000  1
  C  C474  1  0.08978000  0.88028000  0.60556000  1
  C  C475  1  0.09067000  0.26209000  0.04240000  1
  C  C476  1  0.09171000  0.81941000  0.37982000  1
  C  C477  1  0.09180000  0.87750000  0.56420000  1
  C  C478  1  0.09203000  0.70183000  0.21826000  1
  C  C479  1  0.09266000  0.74336000  0.21572000  1
  C  C480  1  0.09357000  0.76177000  0.72034000  1
  C  C481  1  0.09717000  0.67857000  0.55254000  1
  C  C482  1  0.09850000  0.24620000  0.63180000  1
  C  C483  1  0.10082000  0.27433000  0.12492000  1
  C  C484  1  0.10087000  0.01647000  0.32074000  1
  C  C485  1  0.10109000  0.49669000  0.70458000  1
  C  C486  1  0.10259000  0.86609000  0.34458000  1
  C  C487  1  0.10281000  0.72928000  0.64016000  1
  C  C488  1  0.10459000  0.46629000  0.24358000  1
  C  C489  1  0.10723000  0.76873000  0.77106000  1
  C  C490  1  0.10779000  0.05239000  0.27438000  1
  C  C491  1  0.10812000  0.55322000  0.24464000  1
  C  C492  1  0.10816000  0.68786000  0.60392000  1
  C  C493  1  0.10853000  0.29329000  0.09870000  1
  C  C494  1  0.10855000  0.86385000  0.42910000  1
  C  C495  1  0.10955000  0.37785000  0.86750000  1
  C  C496  1  0.11216000  0.96316000  0.35932000  1
  C  C497  1  0.11364000  0.20564000  0.62948000  1
  C  C498  1  0.11842000  0.73814000  0.69458000  1
  C  C499  1  0.11972000  0.91022000  0.39444000  1
  C  C500  1  0.11987000  0.38237000  0.16074000  1
  C  C501  1  0.12250000  0.90820000  0.43580000  1
  C  C502  1  0.12256000  0.41646000  0.92092000  1
  C  C503  1  0.12306000  0.47236000  0.21572000  1
  C  C504  1  0.12323000  0.48823000  0.77966000  1
  C  C505  1  0.12603000  0.54463000  0.44746000  1
  C  C506  1  0.12623000  0.51643000  0.21826000  1
  C  C507  1  0.12785000  0.00795000  0.36750000  1
  C  C508  1  0.12916000  0.04476000  0.31552000  1
  C  C509  1  0.12931000  0.98040000  0.90514000  1
  C  C510  1  0.13237000  0.29087000  0.66074000  1
  C  C511  1  0.13380000  0.02210000  0.99400000  1
  C  C512  1  0.13391000  0.89741000  0.65542000  1
  C  C513  1  0.13536000  0.95856000  0.40352000  1
  C  C514  1  0.13560000  0.34850000  0.13180000  1
  C  C515  1  0.13615000  0.89145000  0.57090000  1
  C  C516  1  0.13652000  0.69142000  0.24464000  1
  C  C517  1  0.13690000  0.46150000  0.37660000  1
  C  C518  1  0.13899000  0.77729000  0.24358000  1
  C  C519  1  0.14075000  0.00535000  0.13450000  1
  C  C520  1  0.14167000  0.43307000  0.18634000  1
  C  C521  1  0.14348000  0.56238000  0.68096000  1
  C  C522  1  0.14616000  0.36216000  0.85932000  1
  C  C523  1  0.14651000  0.75331000  0.79542000  1
  C  C524  1  0.14729000  0.96489000  0.18438000  1
  C  C525  1  0.14912000  0.51774000  0.72768000  1
  C  C526  1  0.14941000  0.97590000  0.87508000  1
  C  C527  1  0.15439000  0.01883000  0.96142000  1
  C  C528  1  0.15576000  0.11816000  0.60212000  1
  C  C529  1  0.15699000  0.72479000  0.72218000  1
  C  C530  1  0.15845000  0.14875000  0.19030000  1
  C  C531  1  0.16250000  0.58560000  0.66640000  1
  C  C532  1  0.16332000  0.21012000  0.65524000  1
  C  C533  1  0.16398000  0.47428000  0.04696000  1
  C  C534  1  0.16410000  0.97573000  0.15860000  1
  C  C535  1  0.16646000  0.04836000  0.42092000  1
  C  C536  1  0.16659000  0.22199000  0.27438000  1
  C  C537  1  0.16716000  0.53646000  0.70312000  1
  C  C538  1  0.16729000  0.93899000  0.20678000  1
  C  C539  1  0.17144000  0.73226000  0.77232000  1
  C  C540  1  0.17241000  0.54021000  0.46082000  1
  C  C541  1  0.17283000  0.43813000  0.96586000  1
  C  C542  1  0.17292000  0.99783000  0.45544000  1
  C  C543  1  0.17384000  0.51186000  0.80542000  1
  C  C544  1  0.17384000  0.36364000  0.12948000  1
  C  C545  1  0.17657000  0.08027000  0.59674000  1
  C  C546  1  0.17743000  0.49953000  0.42486000  1
  C  C547  1  0.17862000  0.20362000  0.23524000  1
  C  C548  1  0.17894000  0.44674000  0.18328000  1
  C  C549  1  0.18013000  0.51013000  0.10246000  1
  C  C550  1  0.18023000  0.91203000  0.66326000  1
  C  C551  1  0.18059000  0.90829000  0.62018000  1
  C  C552  1  0.18071000  0.72411000  0.27042000  1
  C  C553  1  0.18096000  0.16676000  0.65172000  1
  C  C554  1  0.18307000  0.29467000  0.68634000  1
  C  C555  1  0.18331000  0.76591000  0.27042000  1
  C  C556  1  0.18481000  0.52521000  0.77782000  1
  C  C557  1  0.18636000  0.27076000  0.31552000  1
  C  C558  1  0.18675000  0.47875000  0.02290000  1
  C  C559  1  0.18813000  0.04303000  0.46586000  1
  C  C560  1  0.19459000  0.00983000  0.90130000  1
  C  C561  1  0.19496000  0.38536000  0.90352000  1
  C  C562  1  0.19512000  0.41332000  0.15524000  1
  C  C563  1  0.19674000  0.25434000  0.68328000  1
  C  C564  1  0.19959000  0.05277000  0.98766000  1
  C  C565  1  0.20163000  0.95973000  0.15646000  1
  C  C566  1  0.20681000  0.58211000  0.67262000  1
  C  C567  1  0.20761000  0.42292000  0.95544000  1
  C  C568  1  0.20768000  0.92088000  0.20316000  1
  C  C569  1  0.21092000  0.23732000  0.24044000  1
  C  C570  1  0.21149000  0.53399000  0.70898000  1
  C  C571  1  0.21150000  0.48970000  0.87660000  1
  C  C572  1  0.21252000  0.68762000  0.81904000  1
  C  C573  1  0.21265000  0.52072000  0.85984000  1
  C  C574  1  0.21404000  0.71354000  0.79688000  1
  C  C575  1  0.21629000  0.38899000  0.74358000  1
  C  C576  1  0.21670000  0.00380000  0.86820000  1
  C  C577  1  0.21819000  0.58229000  0.51638000  1
  C  C578  1  0.21969000  0.04827000  0.95760000  1
  C  C579  1  0.21987000  0.30427000  0.32074000  1
  C  C580  1  0.22163000  0.95913000  0.83926000  1
  C  C581  1  0.22236000  0.34266000  0.71572000  1
  C  C582  1  0.22271000  0.86101000  0.75642000  1
  C  C583  1  0.22303000  0.08970000  0.64232000  1
  C  C584  1  0.22311000  0.55161000  0.13602000  1
  C  C585  1  0.22404000  0.93384000  0.17948000  1
  C  C586  1  0.22428000  0.13298000  0.54696000  1
  C  C587  1  0.22553000  0.17339000  0.69598000  1
  C  C588  1  0.22574000  0.71154000  0.29648000  1
  C  C589  1  0.22849000  0.35259000  0.84458000  1
  C  C590  1  0.22867000  0.52127000  0.05794000  1
  C  C591  1  0.22875000  0.08615000  0.52290000  1
  C  C592  1  0.22940000  0.92430000  0.62960000  1
  C  C593  1  0.23026000  0.61106000  0.66052000  1
  C  C594  1  0.23096000  0.55446000  0.69252000  1
  C  C595  1  0.23127000  0.89277000  0.22894000  1
  C  C596  1  0.23220000  0.28530000  0.28200000  1
  C  C597  1  0.23396000  0.40576000  0.10212000  1
  C  C598  1  0.23409000  0.81669000  0.72958000  1
  C  C599  1  0.23416000  0.04436000  0.87052000  1
  C  C600  1  0.23422000  0.36972000  0.89444000  1
  C  C601  1  0.23496000  0.43096000  0.15172000  1
  C  C602  1  0.23823000  0.90643000  0.27966000  1
  C  C603  1  0.23965000  0.35955000  0.36750000  1
  C  C604  1  0.23970000  0.91510000  0.37660000  1
  C  C605  1  0.24199000  0.47849000  0.34458000  1
  C  C606  1  0.24349000  0.58629000  0.19618000  1
  C  C607  1  0.24500000  0.55550000  0.11160000  1
  C  C608  1  0.24610000  0.66440000  0.83360000  1
  C  C609  1  0.24669000  0.85349000  0.20458000  1
  C  C610  1  0.24673000  0.95533000  0.81366000  1
  C  C611  1  0.24680000  0.13473000  0.69206000  1
  C  C612  1  0.24716000  0.39616000  0.35932000  1
  C  C613  1  0.24743000  0.92533000  0.42486000  1
  C  C614  1  0.24763000  0.05043000  0.63486000  1
  C  C615  1  0.24877000  0.51697000  0.33674000  1
  C  C616  1  0.24953000  0.49743000  0.92486000  1
  C  C617  1  0.25251000  0.71601000  0.79102000  1
  C  C618  1  0.25424000  0.56214000  0.89608000  1
  C  C619  1  0.25446000  0.37256000  0.42092000  1
  C  C620  1  0.25451000  0.43331000  0.77042000  1
  C  C621  1  0.25664000  0.90734000  0.78428000  1
  C  C622  1  0.25808000  0.03988000  0.84476000  1
  C  C623  1  0.26013000  0.17233000  0.60246000  1
  C  C624  1  0.26186000  0.88158000  0.30542000  1
  C  C625  1  0.26346000  0.99566000  0.81672000  1
  C  C626  1  0.26643000  0.34203000  0.71826000  1
  C  C627  1  0.26647000  0.42657000  0.09674000  1
  C  C628  1  0.26697000  0.33797000  0.83674000  1
  C  C629  1  0.26774000  0.82856000  0.22768000  1
  C  C630  1  0.26816000  0.44496000  0.40352000  1
  C  C631  1  0.27072000  0.89719000  0.35984000  1
  C  C632  1  0.27127000  0.07927000  0.55794000  1
  C  C633  1  0.27259000  0.47553000  0.19598000  1
  C  C634  1  0.27472000  0.48422000  0.39444000  1
  C  C635  1  0.27521000  0.84301000  0.27782000  1
  C  C636  1  0.27589000  0.81929000  0.72958000  1
  C  C637  1  0.27760000  0.37250000  0.93580000  1
  C  C638  1  0.27773000  0.42283000  0.46586000  1
  C  C639  1  0.27924000  0.08324000  0.84828000  1
  C  C640  1  0.27955000  0.07661000  0.80402000  1
  C  C641  1  0.28252000  0.45761000  0.45544000  1
  C  C642  1  0.28399000  0.74749000  0.20898000  1
  C  C643  1  0.28419000  0.66789000  0.82738000  1
  C  C644  1  0.28646000  0.78596000  0.20312000  1
  C  C645  1  0.28667000  0.47867000  0.55794000  1
  C  C646  1  0.28811000  0.56041000  0.37982000  1
  C  C647  1  0.28841000  0.92061000  0.46082000  1
  C  C648  1  0.28844000  0.69554000  0.80748000  1
  C  C649  1  0.28846000  0.77426000  0.70352000  1
  C  C650  1  0.29021000  0.53841000  0.96082000  1
  C  C651  1  0.29415000  0.43675000  0.52290000  1
  C  C652  1  0.29463000  0.57143000  0.94746000  1
  C  C653  1  0.29470000  0.59980000  0.37040000  1
  C  C654  1  0.29631000  0.43071000  0.77042000  1
  C  C655  1  0.29817000  0.90797000  0.78174000  1
  C  C656  1  0.29819000  0.93409000  0.51638000  1
  C  C657  1  0.30161000  0.16291000  0.63602000  1
  C  C658  1  0.30262000  0.47303000  0.14232000  1
  C  C659  1  0.30322000  0.38652000  0.74464000  1
  C  C660  1  0.30364000  0.13184000  0.89788000  1
  C  C661  1  0.30446000  0.71156000  0.19252000  1
  C  C662  1  0.30474000  0.11527000  0.80794000  1
  C  C663  1  0.30550000  0.11660000  0.61160000  1
  C  C664  1  0.30610000  0.49500000  0.61160000  1
  C  C665  1  0.30733000  0.49680000  0.19206000  1
  C  C666  1  0.30858000  0.86348000  0.75536000  1
  C  C667  1  0.31041000  0.34171000  0.87982000  1
  C  C668  1  0.31214000  0.89184000  0.39608000  1
  C  C669  1  0.31238000  0.78748000  0.18096000  1
  C  C670  1  0.31330000  0.52760000  0.43580000  1
  C  C671  1  0.31525000  0.35855000  0.92910000  1
  C  C672  1  0.31974000  0.63894000  0.83948000  1
  C  C673  1  0.32055000  0.56525000  0.42910000  1
  C  C674  1  0.32143000  0.90283000  0.44746000  1
  C  C675  1  0.32268000  0.41398000  0.54696000  1
  C  C676  1  0.32983000  0.16973000  0.90326000  1
  C  C677  1  0.33071000  0.16030000  0.85768000  1
  C  C678  1  0.33211000  0.71581000  0.17262000  1
  C  C679  1  0.33229000  0.54819000  0.01638000  1
  C  C680  1  0.33441000  0.47311000  0.63602000  1
  C  C681  1  0.33443000  0.49763000  0.13486000  1
  C  C682  1  0.33494000  0.47574000  0.79648000  1
  C  C683  1  0.33560000  0.75390000  0.16640000  1
  C  C684  1  0.33629000  0.20269000  0.69618000  1
  C  C685  1  0.34233000  0.43013000  0.60246000  1
  C  C686  1  0.34980000  0.32570000  0.87040000  1
  C  C687  1  0.35989000  0.49349000  0.69618000  1
  C  C688  1  0.36106000  0.68026000  0.16052000  1
  C  C689  1  0.36277000  0.19957000  0.86514000  1
  C  C690  1  0.38723000  0.58443000  0.63486000  1
  C  C691  1  0.38894000  0.76974000  0.33948000  1
  C  C692  1  0.39011000  0.04731000  0.80382000  1
  C  C693  1  0.40020000  0.70530000  0.62960000  1
  C  C694  1  0.40767000  0.07767000  0.89754000  1
  C  C695  1  0.41371000  0.75651000  0.80382000  1
  C  C696  1  0.41440000  0.83750000  0.33360000  1
  C  C697  1  0.41506000  0.92926000  0.70352000  1
  C  C698  1  0.41557000  0.61277000  0.36514000  1
  C  C699  1  0.41559000  0.08709000  0.86398000  1
  C  C700  1  0.41771000  0.78181000  0.48362000  1
  C  C701  1  0.41789000  0.79319000  0.32738000  1
  C  C702  1  0.41929000  0.55262000  0.64232000  1
  C  C703  1  0.42017000  0.51647000  0.59674000  1
  C  C704  1  0.42732000  0.11702000  0.95304000  1
  C  C705  1  0.42857000  0.70537000  0.05254000  1
  C  C706  1  0.42945000  0.38615000  0.07090000  1
  C  C707  1  0.43026000  0.04946000  0.66052000  1
  C  C708  1  0.43475000  0.67945000  0.57090000  1
  C  C709  1  0.43670000  0.34180000  0.06420000  1
  C  C710  1  0.43762000  0.85652000  0.31904000  1
  C  C711  1  0.43786000  0.74576000  0.10392000  1
  C  C712  1  0.43959000  0.71189000  0.62018000  1
  C  C713  1  0.44142000  0.35812000  0.74464000  1
  C  C714  1  0.44267000  0.55474000  0.30794000  1
  C  C715  1  0.44390000  0.13340000  0.88840000  1
  C  C716  1  0.44450000  0.75500000  0.88840000  1
  C  C717  1  0.44526000  0.55733000  0.69206000  1
  C  C718  1  0.44554000  0.76904000  0.30748000  1
  C  C719  1  0.44636000  0.48396000  0.60212000  1
  C  C720  1  0.44678000  0.89188000  0.75536000  1
  C  C721  1  0.44738000  0.58071000  0.35768000  1
  C  C722  1  0.44839000  0.77689000  0.86398000  1
  C  C723  1  0.45181000  0.66771000  0.98362000  1
  C  C724  1  0.45183000  0.37623000  0.71826000  1
  C  C725  1  0.45369000  0.91029000  0.72958000  1
  C  C726  1  0.45530000  0.47940000  0.12960000  1
  C  C727  1  0.45537000  0.87397000  0.55254000  1
  C  C728  1  0.45585000  0.16385000  0.97710000  1
  C  C729  1  0.45979000  0.82759000  0.53918000  1
  C  C730  1  0.46154000  0.32074000  0.79648000  1
  C  C731  1  0.46156000  0.13806000  0.69252000  1
  C  C732  1  0.46159000  0.70979000  0.03918000  1
  C  C733  1  0.46189000  0.43059000  0.12018000  1
  C  C734  1  0.46333000  0.17073000  0.94206000  1
  C  C735  1  0.46354000  0.83284000  0.29688000  1
  C  C736  1  0.46581000  0.09051000  0.67262000  1
  C  C737  1  0.46601000  0.78851000  0.29102000  1
  C  C738  1  0.46748000  0.25217000  0.04456000  1
  C  C739  1  0.47045000  0.52259000  0.69598000  1
  C  C740  1  0.47076000  0.48496000  0.65172000  1
  C  C741  1  0.47227000  0.20697000  0.03414000  1
  C  C742  1  0.47240000  0.68670000  0.56420000  1
  C  C743  1  0.47411000  0.33971000  0.77042000  1
  C  C744  1  0.47479000  0.81519000  0.22218000  1
  C  C745  1  0.47528000  0.33978000  0.10556000  1
  C  C746  1  0.47741000  0.52955000  0.30402000  1
  C  C747  1  0.47873000  0.77133000  0.94206000  1
  C  C748  1  0.47928000  0.78735000  0.14016000  1
  C  C749  1  0.48184000  0.29144000  0.09648000  1
  C  C750  1  0.48226000  0.85088000  0.27232000  1
  C  C751  1  0.48303000  0.75123000  0.66326000  1
  C  C752  1  0.48353000  0.57983000  0.40326000  1
  C  C753  1  0.48357000  0.87377000  0.78174000  1
  C  C754  1  0.48654000  0.42894000  0.68328000  1
  C  C755  1  0.48814000  0.82616000  0.19458000  1
  C  C756  1  0.48987000  0.81987000  0.89754000  1
  C  C757  1  0.49192000  0.44512000  0.65524000  1
  C  C758  1  0.49336000  0.37306000  0.71572000  1
  C  C759  1  0.49549000  0.91289000  0.72958000  1
  C  C760  1  0.49554000  0.20164000  0.07908000  1
  C  C761  1  0.49576000  0.91606000  0.60392000  1
  C  C762  1  0.49749000  0.17499000  0.70898000  1
  C  C763  1  0.50047000  0.82257000  0.57514000  1
  C  C764  1  0.50123000  0.43023000  0.16326000  1
  C  C765  1  0.50237000  0.66557000  0.86514000  1
  C  C766  1  0.50257000  0.75047000  0.07514000  1
  C  C767  1  0.50284000  0.28684000  0.14068000  1
  C  C768  1  0.50320000  0.69267000  0.80794000  1
  C  C769  1  0.50327000  0.39167000  0.68634000  1
  C  C770  1  0.50331000  0.89891000  0.29542000  1
  C  C771  1  0.50390000  0.08080000  0.66640000  1
  C  C772  1  0.50500000  0.69390000  0.38840000  1
  C  C773  1  0.50651000  0.64011000  0.30382000  1
  C  C774  1  0.50801000  0.38391000  0.15542000  1
  C  C775  1  0.51030000  0.78850000  0.12340000  1
  C  C776  1  0.51035000  0.24205000  0.13250000  1
  C  C777  1  0.51177000  0.87677000  0.22034000  1
  C  C778  1  0.51504000  0.52924000  0.34828000  1
  C  C779  1  0.51578000  0.72528000  0.60556000  1
  C  C780  1  0.51584000  0.42384000  0.62948000  1
  C  C781  1  0.51591000  0.33711000  0.77042000  1
  C  C782  1  0.51604000  0.55364000  0.39788000  1
  C  C783  1  0.51780000  0.25330000  0.21800000  1
  C  C784  1  0.51873000  0.91383000  0.27106000  1
  C  C785  1  0.51904000  0.11194000  0.80748000  1
  C  C786  1  0.51974000  0.20054000  0.83948000  1
  C  C787  1  0.52060000  0.54470000  0.87040000  1
  C  C788  1  0.52125000  0.81325000  0.97710000  1
  C  C789  1  0.52133000  0.71333000  0.44206000  1
  C  C790  1  0.52151000  0.75801000  0.65542000  1
  C  C791  1  0.52426000  0.66506000  0.20352000  1
  C  C792  1  0.52447000  0.72741000  0.80402000  1
  C  C793  1  0.52572000  0.83602000  0.95304000  1
  C  C794  1  0.52596000  0.00436000  0.32052000  1
  C  C795  1  0.52689000  0.66559000  0.36398000  1
  C  C796  1  0.52697000  0.69738000  0.85768000  1
  C  C797  1  0.52729000  0.35459000  0.74358000  1
  C  C798  1  0.52764000  0.87694000  0.78428000  1
  C  C799  1  0.52837000  0.36987000  0.66074000  1
  C  C800  1  0.53013000  0.23353000  0.17926000  1
  C  C801  1  0.53031000  0.34067000  0.54240000  1
  C  C802  1  0.53181000  0.31591000  0.98362000  1
  C  C803  1  0.53330000  0.38560000  0.63180000  1
  C  C804  1  0.53371000  0.89541000  0.75642000  1
  C  C805  1  0.53596000  0.16666000  0.70312000  1
  C  C806  1  0.53735000  0.91088000  0.64016000  1
  C  C807  1  0.53748000  0.11858000  0.68096000  1
  C  C808  1  0.53850000  0.86310000  0.62340000  1
  C  C809  1  0.53851000  0.07501000  0.79102000  1
  C  C810  1  0.53908000  0.24688000  0.25956000  1
  C  C811  1  0.54232000  0.96772000  0.29684000  1
  C  C812  1  0.54239000  0.71748000  0.54456000  1
  C  C813  1  0.54319000  0.15949000  0.82738000  1
  C  C814  1  0.54837000  0.05327000  0.34354000  1
  C  C815  1  0.55041000  0.31511000  0.51234000  1
  C  C816  1  0.55326000  0.82106000  0.81672000  1
  C  C817  1  0.55488000  0.50808000  0.34476000  1
  C  C818  1  0.55504000  0.73184000  0.59648000  1
  C  C819  1  0.55541000  0.35853000  0.59870000  1
  C  C820  1  0.56187000  0.82717000  0.03414000  1
  C  C821  1  0.56325000  0.70585000  0.47710000  1
  C  C822  1  0.56364000  0.20524000  0.18448000  1
  C  C823  1  0.56519000  0.99739000  0.72218000  1
  C  C824  1  0.56669000  0.74549000  0.22958000  1
  C  C825  1  0.56693000  0.85833000  0.81366000  1
  C  C826  1  0.56904000  0.76504000  0.84828000  1
  C  C827  1  0.56929000  0.70369000  0.22958000  1
  C  C828  1  0.56941000  0.53811000  0.87982000  1
  C  C829  1  0.56977000  0.49877000  0.83674000  1
  C  C830  1  0.56987000  0.65767000  0.39754000  1
  C  C831  1  0.57106000  0.51346000  0.31672000  1
  C  C832  1  0.57138000  0.21838000  0.26476000  1
  C  C833  1  0.57257000  0.32467000  0.07514000  1
  C  C834  1  0.57343000  0.73353000  0.90326000  1
  C  C835  1  0.57616000  0.95644000  0.69458000  1
  C  C836  1  0.57616000  0.48416000  0.37052000  1
  C  C837  1  0.57708000  0.79239000  0.04456000  1
  C  C838  1  0.57717000  0.72227000  0.53414000  1
  C  C839  1  0.57759000  0.32939000  0.03918000  1
  C  C840  1  0.57856000  0.20994000  0.72768000  1
  C  C841  1  0.58271000  0.98221000  0.29322000  1
  C  C842  1  0.58284000  0.08334000  0.79688000  1
  C  C843  1  0.58341000  0.19761000  0.22562000  1
  C  C844  1  0.58354000  0.87744000  0.07908000  1
  C  C845  1  0.58590000  0.06713000  0.34140000  1
  C  C846  1  0.58602000  0.67732000  0.45304000  1
  C  C847  1  0.58668000  0.80488000  0.84476000  1
  C  C848  1  0.58750000  0.16920000  0.83360000  1
  C  C849  1  0.59155000  0.20845000  0.30970000  1
  C  C850  1  0.59301000  0.25261000  0.77782000  1
  C  C851  1  0.59424000  0.76604000  0.89788000  1
  C  C852  1  0.59561000  0.30741000  0.53858000  1
  C  C853  1  0.60059000  0.35082000  0.62492000  1
  C  C854  1  0.60088000  0.04006000  0.77232000  1
  C  C855  1  0.60271000  0.03051000  0.31562000  1
  C  C856  1  0.60349000  0.20789000  0.70458000  1
  C  C857  1  0.60384000  0.75284000  0.64068000  1
  C  C858  1  0.60652000  0.13142000  0.81904000  1
  C  C859  1  0.60833000  0.49673000  0.31366000  1
  C  C860  1  0.60925000  0.12085000  0.36550000  1
  C  C861  1  0.61101000  0.78371000  0.25642000  1
  C  C862  1  0.61310000  0.33490000  0.12340000  1
  C  C863  1  0.61348000  0.69678000  0.25536000  1
  C  C864  1  0.61385000  0.57055000  0.92910000  1
  C  C865  1  0.61440000  0.46670000  0.36820000  1
  C  C866  1  0.61464000  0.80504000  0.09648000  1
  C  C867  1  0.61609000  0.49199000  0.84458000  1
  C  C868  1  0.61620000  0.27810000  0.50600000  1
  C  C869  1  0.61763000  0.88013000  0.83926000  1
  C  C870  1  0.62069000  0.32526000  0.59486000  1
  C  C871  1  0.62084000  0.97924000  0.18448000  1
  C  C872  1  0.62215000  0.89045000  0.13250000  1
  C  C873  1  0.62377000  0.54817000  0.28174000  1
  C  C874  1  0.62397000  0.34717000  0.05254000  1
  C  C875  1  0.62677000  0.95857000  0.72034000  1
  C  C876  1  0.62694000  0.50664000  0.28428000  1
  C  C877  1  0.62744000  0.74554000  0.57908000  1
  C  C878  1  0.62750000  0.72240000  0.06420000  1
  C  C879  1  0.63013000  0.47163000  0.33926000  1
  C  C880  1  0.63028000  0.76578000  0.10556000  1
  C  C881  1  0.63158000  0.29356000  0.80542000  1
  C  C882  1  0.63636000  0.82616000  0.87052000  1
  C  C883  1  0.63784000  0.85384000  0.14068000  1
  C  C884  1  0.64045000  0.76035000  0.63250000  1
  C  C885  1  0.64145000  0.68475000  0.07090000  1
  C  C886  1  0.64147000  0.44459000  0.40130000  1
  C  C887  1  0.64184000  0.33394000  0.89608000  1
  C  C888  1  0.64188000  0.55858000  0.25536000  1
  C  C889  1  0.64221000  0.02801000  0.22562000  1
  C  C890  1  0.64277000  0.24767000  0.72894000  1
  C  C891  1  0.64541000  0.47271000  0.25642000  1
  C  C892  1  0.64719000  0.33912000  0.85984000  1
  C  C893  1  0.64741000  0.77151000  0.15542000  1
  C  C894  1  0.64891000  0.04211000  0.79542000  1
  C  C895  1  0.64913000  0.94573000  0.17926000  1
  C  C896  1  0.64918000  0.39941000  0.37508000  1
  C  C897  1  0.65150000  0.86440000  0.86820000  1
  C  C898  1  0.65283000  0.37603000  0.94746000  1
  C  C899  1  0.65643000  0.29143000  0.77966000  1
  C  C900  1  0.65734000  0.77764000  0.28428000  1
  C  C901  1  0.65797000  0.73357000  0.28174000  1
  C  C902  1  0.65820000  0.56330000  0.93580000  1
  C  C903  1  0.65829000  0.68959000  0.12018000  1
  C  C904  1  0.65933000  0.46969000  0.45760000  1
  C  C905  1  0.66022000  0.52472000  0.89444000  1
  C  C906  1  0.66029000  0.52589000  0.22958000  1
  C  C907  1  0.66088000  0.35281000  0.14016000  1
  C  C908  1  0.66203000  0.73303000  0.16326000  1
  C  C909  1  0.66289000  0.48409000  0.22958000  1
  C  C910  1  0.66383000  0.00233000  0.77106000  1
  C  C911  1  0.66510000  0.38690000  0.87660000  1
  C  C912  1  0.66606000  0.35816000  0.10392000  1
  C  C913  1  0.67061000  0.42241000  0.96082000  1
  C  C914  1  0.67088000  0.24548000  0.70316000  1
  C  C915  1  0.67430000  0.65020000  0.12960000  1
  C  C916  1  0.67474000  0.37931000  0.40514000  1
  C  C917  1  0.67533000  0.42743000  0.92486000  1
  C  C918  1  0.67926000  0.53846000  0.20352000  1
  C  C919  1  0.68384000  0.20544000  0.67948000  1
  C  C920  1  0.68409000  0.46819000  0.01638000  1
  C  C921  1  0.68489000  0.44959000  0.48766000  1
  C  C922  1  0.68899000  0.28949000  0.70678000  1
  C  C923  1  0.69259000  0.40439000  0.46142000  1
  C  C924  1  0.69338000  0.04638000  0.26476000  1
  C  C925  1  0.69573000  0.78013000  0.67926000  1
  C  C926  1  0.70020000  0.96470000  0.21800000  1
  C  C927  1  0.70533000  0.81693000  0.31366000  1
  C  C928  1  0.70644000  0.36842000  0.19458000  1
  C  C929  1  0.70671000  0.89147000  0.90130000  1
  C  C930  1  0.70856000  0.51816000  0.90352000  1
  C  C931  1  0.70857000  0.34357000  0.22034000  1
  C  C932  1  0.70913000  0.86763000  0.33926000  1
  C  C933  1  0.70973000  0.20483000  0.65646000  1
  C  C934  1  0.71051000  0.31101000  0.29322000  1
  C  C935  1  0.71291000  0.28511000  0.31562000  1
  C  C936  1  0.71316000  0.49716000  0.85932000  1
  C  C937  1  0.71470000  0.76780000  0.71800000  1
  C  C938  1  0.71489000  0.28709000  0.68438000  1
  C  C939  1  0.71772000  0.00452000  0.79684000  1
  C  C940  1  0.71815000  0.10125000  0.30970000  1
  C  C941  1  0.72048000  0.01268000  0.25956000  1
  C  C942  1  0.72190000  0.38380000  0.49400000  1
  C  C943  1  0.72567000  0.89918000  0.87508000  1
  C  C944  1  0.72573000  0.24450000  0.65860000  1
  C  C945  1  0.72590000  0.97567000  0.37508000  1
  C  C946  1  0.72924000  0.81364000  0.68448000  1
  C  C947  1  0.73040000  0.02583000  0.40514000  1
  C  C948  1  0.73221000  0.96051000  0.79322000  1
  C  C949  1  0.73791000  0.90933000  0.95760000  1
  C  C950  1  0.74566000  0.80326000  0.31672000  1
  C  C951  1  0.74670000  0.48220000  0.78200000  1
  C  C952  1  0.74739000  0.40699000  0.22218000  1
  C  C953  1  0.74783000  0.53252000  0.95544000  1
  C  C954  1  0.75233000  0.35723000  0.27106000  1
  C  C955  1  0.75312000  0.46092000  0.74044000  1
  C  C956  1  0.75380000  0.90150000  0.36820000  1
  C  C957  1  0.75436000  0.04456000  0.82052000  1
  C  C958  1  0.75452000  0.32912000  0.29684000  1
  C  C959  1  0.75535000  0.24375000  0.63450000  1
  C  C960  1  0.75550000  0.27427000  0.34140000  1
  C  C961  1  0.75625000  0.24465000  0.36550000  1
  C  C962  1  0.75795000  0.48965000  0.86750000  1
  C  C963  1  0.75983000  0.95671000  0.40130000  1
  C  C964  1  0.76268000  0.78908000  0.75956000  1
  C  C965  1  0.76647000  0.46987000  0.82074000  1
  C  C966  1  0.76883000  0.05703000  0.46142000  1
  C  C967  1  0.77210000  0.11020000  0.49400000  1
  C  C968  1  0.77583000  0.92474000  0.90514000  1
  C  C969  1  0.77801000  0.83341000  0.72562000  1
  C  C970  1  0.78051000  0.96291000  0.81562000  1
  C  C971  1  0.78162000  0.42862000  0.73524000  1
  C  C972  1  0.78807000  0.93489000  0.98766000  1
  C  C973  1  0.78988000  0.83668000  0.34476000  1
  C  C974  1  0.79006000  0.42144000  0.27232000  1
  C  C975  1  0.79155000  0.40845000  0.69030000  1
  C  C976  1  0.79211000  0.39651000  0.29542000  1
  C  C977  1  0.79303000  0.52773000  0.96586000  1
  C  C978  1  0.79436000  0.88636000  0.37052000  1
  C  C979  1  0.79456000  0.31616000  0.32052000  1
  C  C980  1  0.79476000  0.43636000  0.81552000  1
  C  C981  1  0.79517000  0.29027000  0.34354000  1
  C  C982  1  0.79638000  0.82138000  0.76476000  1
  C  C983  1  0.79731000  0.66371000  0.30382000  1
  C  C984  1  0.79827000  0.98791000  0.45760000  1
  C  C985  1  0.79836000  0.50446000  0.92092000  1
  C  C986  1  0.79946000  0.48026000  0.16052000  1
  C  C987  1  0.80043000  0.63723000  0.13486000  1
  C  C988  1  0.80239000  0.41659000  0.77438000  1
  C  C989  1  0.80277000  0.03807000  0.48766000  1
  C  C990  1  0.80327000  0.04517000  0.84354000  1
  C  C991  1  0.80703000  0.94259000  0.96142000  1
  C  C992  1  0.81713000  0.00550000  0.84140000  1
  C  C993  1  0.82501000  0.50251000  0.29102000  1
  C  C994  1  0.82661000  0.77447000  0.30402000  1
  C  C995  1  0.82767000  0.73987000  0.39754000  1
  C  C996  1  0.82927000  0.53667000  0.05794000  1
  C  C997  1  0.83027000  0.67017000  0.09674000  1
  C  C998  1  0.83080000  0.41250000  0.16640000  1
  C  C999  1  0.83324000  0.81904000  0.34828000  1
  C  C1000  1  0.83334000  0.46404000  0.29688000  1
  C  C1001  1  0.83615000  0.54415000  0.02290000  1
  C  C1002  1  0.83709000  0.69839000  0.36398000  1
  C  C1003  1  0.83970000  0.66929000  0.14232000  1
  C  C1004  1  0.84051000  0.45681000  0.17262000  1
  C  C1005  1  0.85125000  0.84155000  0.80970000  1
  C  C1006  1  0.86020000  0.97190000  0.99400000  1
  C  C1007  1  0.86194000  0.53844000  0.30748000  1
  C  C1008  1  0.86527000  0.75320000  0.30794000  1
  C  C1009  1  0.86660000  0.55610000  0.11160000  1
  C  C1010  1  0.86702000  0.77572000  0.45304000  1
  C  C1011  1  0.86816000  0.69636000  0.10212000  1
  C  C1012  1  0.86858000  0.39348000  0.18096000  1
  C  C1013  1  0.87085000  0.00625000  0.86550000  1
  C  C1014  1  0.87915000  0.39075000  0.63450000  1
  C  C1015  1  0.88142000  0.46252000  0.31904000  1
  C  C1016  1  0.88184000  0.84424000  0.39788000  1
  C  C1017  1  0.88298000  0.57268000  0.04696000  1
  C  C1018  1  0.88340000  0.69450000  0.38840000  1
  C  C1019  1  0.88473000  0.69526000  0.19206000  1
  C  C1020  1  0.88806000  0.48096000  0.19252000  1
  C  C1021  1  0.88980000  0.22790000  0.50600000  1
  C  C1022  1  0.89875000  0.28185000  0.69030000  1
  C  C1023  1  0.90949000  0.53419000  0.32738000  1
  C  C1024  1  0.91030000  0.77697000  0.35768000  1
  C  C1025  1  0.91291000  0.58441000  0.13602000  1
  C  C1026  1  0.91385000  0.77125000  0.47710000  1
  C  C1027  1  0.91666000  0.41716000  0.20312000  1
  C  C1028  1  0.91676000  0.72076000  0.15172000  1
  C  C1029  1  0.91920000  0.49610000  0.33360000  1
  C  C1030  1  0.91973000  0.82343000  0.40326000  1
  C  C1031  1  0.92073000  0.72873000  0.44206000  1
  C  C1032  1  0.92233000  0.59233000  0.10246000  1
  C  C1033  1  0.92339000  0.72045000  0.19598000  1
  C  C1034  1  0.92499000  0.46149000  0.20898000  1
  C  C1035  1  0.93287000  0.41410000  0.65860000  1
  C  C1036  1  0.94297000  0.23117000  0.53858000  1
  C  C1037  1  0.94673000  0.45163000  0.65646000  1
  C  C1038  1  0.94723000  0.80041000  0.01234000  1
  C  C1039  1  0.94761000  0.89221000  0.72562000  1
  C  C1040  1  0.94957000  0.75237000  0.36514000  1
  C  C1041  1  0.95054000  0.56974000  0.33948000  1
  C  C1042  1  0.95164000  0.83354000  0.57908000  1
  C  C1043  1  0.95173000  0.78031000  0.04240000  1
  C  C1044  1  0.95269000  0.60989000  0.19618000  1
  C  C1045  1  0.95362000  0.30662000  0.73524000  1
  C  C1046  1  0.95483000  0.19673000  0.15646000  1
  C  C1047  1  0.95524000  0.87084000  0.68448000  1
  C  C1048  1  0.95544000  0.24564000  0.17948000  1
  C  C1049  1  0.95564000  0.76584000  0.12948000  1
  C  C1050  1  0.95697000  0.81187000  0.53414000  1
  C  C1051  1  0.95789000  0.35109000  0.20458000  1
  C  C1052  1  0.95845000  0.96815000  0.80970000  1
  C  C1053  1  0.95994000  0.39912000  0.22768000  1
  C  C1054  1  0.96012000  0.74192000  0.15524000  1
  C  C1055  1  0.96193000  0.19723000  0.51234000  1
  C  C1056  1  0.96838000  0.94338000  0.76476000  1
  C  C1057  1  0.96949000  0.39729000  0.68438000  1
  C  C1058  1  0.97199000  0.35779000  0.77438000  1
  C  C1059  1  0.97417000  0.26960000  0.59486000  1
  C  C1060  1  0.97790000  0.86620000  0.00600000  1
  C  C1061  1  0.98117000  0.84561000  0.03858000  1
  C  C1062  1  0.98353000  0.89913000  0.67926000  1
  C  C1063  1  0.98732000  0.27952000  0.74044000  1
  C  C1064  1  0.99017000  0.80541000  0.09870000  1
  C  C1065  1  0.99205000  0.87215000  0.63250000  1
  C  C1066  1  0.99375000  0.12915000  0.13450000  1
  C  C1067  1  0.99450000  0.18287000  0.15860000  1
  C  C1068  1  0.99465000  0.85925000  0.86550000  1
  C  C1069  1  0.99548000  0.28228000  0.20316000  1
  C  C1070  1  0.99564000  0.47404000  0.67948000  1
  C  C1071  1  0.99620000  0.78330000  0.13180000  1
  C  C1072  1  0.99688000  0.97048000  0.75956000  1
  C  C1073  1  0.99767000  0.33617000  0.22894000  1
  O  O1074  1  0.00941000  0.90435000  0.02902000  1
  O  O1075  1  0.01127000  0.11401000  0.95408000  1
  O  O1076  1  0.01745000  0.66672000  0.34880000  1
  O  O1077  1  0.01961000  0.12467000  0.02902000  1
  O  O1078  1  0.03145000  0.12121000  0.13538000  1
  O  O1079  1  0.05313000  0.73344000  0.47452000  1
  O  O1080  1  0.05343000  0.57632000  0.31930000  1
  O  O1081  1  0.05557000  0.73216000  0.32214000  1
  O  O1082  1  0.05908000  0.06924000  0.19186000  1
  O  O1083  1  0.06534000  0.05939000  0.06462000  1
  O  O1084  1  0.07021000  0.66186000  0.45136000  1
  O  O1085  1  0.07602000  0.62309000  0.29714000  1
  O  O1086  1  0.08360000  0.77159000  0.41222000  1
  O  O1087  1  0.09565000  0.99059000  0.97098000  1
  O  O1088  1  0.10393000  0.01417000  0.13538000  1
  O  O1089  1  0.13278000  0.12262000  0.19186000  1
  O  O1090  1  0.15993000  0.05719000  0.04592000  1
  O  O1091  1  0.16027000  0.01979000  0.11718000  1
  O  O1092  1  0.16900000  0.13418000  0.15456000  1
  O  O1093  1  0.20759000  0.63450000  0.64156000  1
  O  O1094  1  0.21050000  0.61885000  0.54864000  1
  O  O1095  1  0.22062000  0.57740000  0.21426000  1
  O  O1096  1  0.22112000  0.67405000  0.29714000  1
  O  O1097  1  0.22473000  0.00936000  0.58886000  1
  O  O1098  1  0.22841000  0.91640000  0.58778000  1
  O  O1099  1  0.25702000  0.73413000  0.68070000  1
  O  O1100  1  0.25892000  0.57861000  0.52548000  1
  O  O1101  1  0.26587000  0.74298000  0.31930000  1
  O  O1102  1  0.26656000  0.94687000  0.52548000  1
  O  O1103  1  0.26657000  0.58998000  0.32214000  1
  O  O1104  1  0.26784000  0.94443000  0.67786000  1
  O  O1105  1  0.27160000  0.60826000  0.66776000  1
  O  O1106  1  0.28150000  0.62025000  0.22534000  1
  O  O1107  1  0.28999000  0.06004000  0.67554000  1
  O  O1108  1  0.31603000  0.61550000  0.85844000  1
  O  O1109  1  0.31792000  0.66865000  0.65120000  1
  O  O1110  1  0.32595000  0.77888000  0.70286000  1
  O  O1111  1  0.32632000  0.51587000  0.81930000  1
  O  O1112  1  0.32740000  0.24364000  0.71426000  1
  O  O1113  1  0.32861000  0.51656000  0.02548000  1
  O  O1114  1  0.32862000  0.64063000  0.41222000  1
  O  O1115  1  0.32950000  0.47473000  0.08886000  1
  O  O1116  1  0.33135000  0.68213333  0.34880000  1
  O  O1117  1  0.33328000  0.98255000  0.65120000  1
  O  O1118  1  0.33814000  0.92979000  0.54864000  1
  O  O1119  1  0.33998000  0.30557000  0.82214000  1
  O  O1120  1  0.35384000  0.64174000  0.83224000  1
  O  O1121  1  0.35509000  0.53150000  0.72534000  1
  O  O1122  1  0.35826000  0.64616000  0.16776000  1
  O  O1123  1  0.35937000  0.67138000  0.58778000  1
  O  O1124  1  0.36314000  0.00636000  0.78574000  1
  O  O1125  1  0.36413000  0.57950000  0.58886000  1
  O  O1126  1  0.36445000  0.18996000  0.82446000  1
  O  O1127  1  0.36550000  0.79241000  0.35844000  1
  O  O1128  1  0.36550000  0.53999000  0.17554000  1
  O  O1129  1  0.36885000  0.58814000  0.04864000  1
  O  O1130  1  0.37025000  0.19384000  0.72534000  1
  O  O1131  1  0.37309000  0.47112000  0.79714000  1
  O  O1132  1  0.37691000  0.92398000  0.70286000  1
  O  O1133  1  0.37975000  0.71850000  0.77466000  1
  O  O1134  1  0.38115000  0.78950000  0.45136000  1
  O  O1135  1  0.38450000  0.68397000  0.14156000  1
  O  O1136  1  0.38450000  0.61445000  0.32446000  1
  O  O1137  1  0.38555000  0.61550000  0.67554000  1
  O  O1138  1  0.38587000  0.24064000  0.91114000  1
  O  O1139  1  0.38686000  0.47062000  0.71426000  1
  O  O1140  1  0.39063000  0.33360000  0.91222000  1
  O  O1141  1  0.39174000  0.72840000  0.33224000  1
  O  O1142  1  0.39491000  0.05616000  0.77466000  1
  O  O1143  1  0.39616000  0.05950000  0.66776000  1
  O  O1144  1  0.41002000  0.73343000  0.67786000  1
  O  O1145  1  0.41186000  0.63115000  0.95136000  1
  O  O1146  1  0.41672000  0.58135000  0.84880000  1
  O  O1147  1  0.41865000  0.58328000  0.15120000  1
  O  O1148  1  0.42050000  0.63587000  0.41114000  1
  O  O1149  1  0.42138000  0.47841000  0.08778000  1
  O  O1150  1  0.42139000  0.74108000  0.47452000  1
  O  O1151  1  0.42260000  0.77938000  0.78574000  1
  O  O1152  1  0.42368000  0.94657000  0.68070000  1
  O  O1153  1  0.42405000  0.32602000  0.79714000  1
  O  O1154  1  0.43208000  0.26745000  0.84880000  1
  O  O1155  1  0.43397000  0.00706000  0.64156000  1
  O  O1156  1  0.46001000  0.63450000  0.82446000  1
  O  O1157  1  0.46850000  0.64491000  0.27466000  1
  O  O1158  1  0.47840000  0.19050000  0.83224000  1
  O  O1159  1  0.48216000  0.51657000  0.82214000  1
  O  O1160  1  0.48343000  0.51784000  0.17786000  1
  O  O1161  1  0.48344000  0.67139000  0.97452000  1
  O  O1162  1  0.48413000  0.67368000  0.18070000  1
  O  O1163  1  0.49108000  0.30313000  0.97452000  1
  O  O1164  1  0.49298000  0.30343000  0.81930000  1
  O  O1165  1  0.52159000  0.57862000  0.91222000  1
  O  O1166  1  0.52527000  0.67050000  0.91114000  1
  O  O1167  1  0.52888000  0.62691000  0.20286000  1
  O  O1168  1  0.52938000  0.61314000  0.28574000  1
  O  O1169  1  0.53950000  0.32021000  0.95136000  1
  O  O1170  1  0.54241000  0.24294000  0.85844000  1
  O  O1171  1  0.58100000  0.22962000  0.34544000  1
  O  O1172  1  0.58973000  0.15261000  0.38282000  1
  O  O1173  1  0.59007000  0.26127000  0.45408000  1
  O  O1174  1  0.61722000  0.18076000  0.30814000  1
  O  O1175  1  0.64607000  0.12879000  0.36462000  1
  O  O1176  1  0.65435000  0.26961000  0.52902000  1
  O  O1177  1  0.66640000  0.60937000  0.08778000  1
  O  O1178  1  0.67398000  0.57595000  0.20286000  1
  O  O1179  1  0.67979000  0.46050000  0.04864000  1
  O  O1180  1  0.68466000  0.24477000  0.43538000  1
  O  O1181  1  0.69092000  0.12738000  0.30814000  1
  O  O1182  1  0.69443000  0.66002000  0.17786000  1
  O  O1183  1  0.69657000  0.50702000  0.18070000  1
  O  O1184  1  0.69687000  0.50892000  0.02548000  1
  O  O1185  1  0.71855000  0.23583000  0.36462000  1
  O  O1186  1  0.73039000  0.34565000  0.47098000  1
  O  O1187  1  0.73255000  0.56792000  0.15120000  1
  O  O1188  1  0.73873000  0.40993000  0.54592000  1
  O  O1189  1  0.74059000  0.12533000  0.47098000  1
  O  O1190  1  0.75072000  0.19061000  0.43538000  1
  O  O1191  1  0.75523000  0.31534000  0.56462000  1
  O  O1192  1  0.75636000  0.67260000  0.28574000  1
  O  O1193  1  0.75706000  0.45759000  0.14156000  1
  O  O1194  1  0.75936000  0.61413000  0.08886000  1
  O  O1195  1  0.76417000  0.28145000  0.63538000  1
  O  O1196  1  0.76444000  0.11582000  0.34544000  1
  O  O1197  1  0.76979000  0.20691000  0.61718000  1
  O  O1198  1  0.77038000  0.41900000  0.65456000  1
  O  O1199  1  0.79309000  0.23021000  0.38282000  1
  O  O1200  1  0.80616000  0.62975000  0.27466000  1
  O  O1201  1  0.80719000  0.13599000  0.54592000  1
  O  O1202  1  0.80939000  0.24928000  0.56462000  1
  O  O1203  1  0.80950000  0.52160000  0.16776000  1
  O  O1204  1  0.81004000  0.63555000  0.17554000  1
  O  O1205  1  0.81924000  0.38278000  0.69186000  1
  O  O1206  1  0.84739000  0.41027000  0.61718000  1
  O  O1207  1  0.86401000  0.19281000  0.45408000  1
  O  O1208  1  0.86582000  0.83100000  0.84544000  1
  O  O1209  1  0.87121000  0.35393000  0.63538000  1
  O  O1210  1  0.87262000  0.30908000  0.69186000  1
  O  O1211  1  0.87467000  0.25941000  0.52902000  1
  O  O1212  1  0.87533000  0.98039000  0.97098000  1
  O  O1213  1  0.87738000  0.86722000  0.80814000  1
  O  O1214  1  0.87879000  0.96855000  0.86462000  1
  O  O1215  1  0.88418000  0.23556000  0.65456000  1
  O  O1216  1  0.88599000  0.98873000  0.04592000  1
  O  O1217  1  0.90261000  0.04309000  0.88282000  1
  O  O1218  1  0.93076000  0.94092000  0.80814000  1
  O  O1219  1  0.93996000  0.71001000  0.32446000  1
  O  O1220  1  0.94050000  0.60384000  0.33224000  1
  O  O1221  1  0.94061000  0.93466000  0.93538000  1
  O  O1222  1  0.94281000  0.84007000  0.95408000  1
  O  O1223  1  0.94384000  0.60509000  0.22534000  1
  O  O1224  1  0.95691000  0.09739000  0.11718000  1
  O  O1225  1  0.97962000  0.01444000  0.84544000  1
  O  O1226  1  0.98021000  0.83973000  0.88282000  1
  O  O1227  1  0.98556000  0.02038000  0.15456000  1
  O  O1228  1  0.98583000  0.89607000  0.86462000  1
  O  O1229  1  0.99064000  0.77527000  0.41114000  1
  O  O1230  1  0.99294000  0.56603000  0.35844000  1
  O  O1231  1  0.99364000  0.63686000  0.21426000  1
  O  O1232  1  0.99477000  0.00072000  0.93538000  1
  O  O1233  1  0.99928000  0.00523000  0.06462000  1
