# generated using pymatgen
data_Nd2P3H30C27(NO5)3
_symmetry_space_group_name_H-M   'P 1'
_cell_length_a   7.13100000
_cell_length_b   20.89100000
_cell_length_c   27.84500000
_cell_angle_alpha   107.85300000
_cell_angle_beta   90.00000000
_cell_angle_gamma   90.00000000
_symmetry_Int_Tables_number   1
_chemical_formula_structural   Nd2P3H30C27(NO5)3
_chemical_formula_sum   'Nd8 P12 H120 C108 N12 O60'
_cell_volume   3948.42299623
_cell_formula_units_Z   4
loop_
 _symmetry_equiv_pos_site_id
 _symmetry_equiv_pos_as_xyz
  1  'x, y, z'
loop_
 _atom_site_type_symbol
 _atom_site_label
 _atom_site_symmetry_multiplicity
 _atom_site_fract_x
 _atom_site_fract_y
 _atom_site_fract_z
 _atom_site_occupancy
  Nd  Nd0  1  0.08219000  0.74538000  0.20476000  1
  Nd  Nd1  1  0.12421000  0.09060000  0.33974000  1
  Nd  Nd2  1  0.37579000  0.09060000  0.83974000  1
  Nd  Nd3  1  0.41781000  0.74538000  0.70476000  1
  Nd  Nd4  1  0.58219000  0.25462000  0.29524000  1
  Nd  Nd5  1  0.62421000  0.90940000  0.16026000  1
  Nd  Nd6  1  0.87579000  0.90940000  0.66026000  1
  Nd  Nd7  1  0.91781000  0.25462000  0.79524000  1
  P  P8  1  0.04490000  0.08227000  0.72779000  1
  P  P9  1  0.08110000  0.25168000  0.32259000  1
  P  P10  1  0.11960000  0.86260000  0.12461000  1
  P  P11  1  0.38040000  0.86260000  0.62461000  1
  P  P12  1  0.41890000  0.25168000  0.82259000  1
  P  P13  1  0.45510000  0.08227000  0.22779000  1
  P  P14  1  0.54490000  0.91773000  0.77221000  1
  P  P15  1  0.58110000  0.74832000  0.17741000  1
  P  P16  1  0.61960000  0.13740000  0.37539000  1
  P  P17  1  0.88040000  0.13740000  0.87539000  1
  P  P18  1  0.91890000  0.74832000  0.67741000  1
  P  P19  1  0.95510000  0.91773000  0.27221000  1
  H  H20  1  0.00620000  0.23710000  0.62090000  1
  H  H21  1  0.01930000  0.67790000  0.95030000  1
  H  H22  1  0.02200000  0.61840000  0.68680000  1
  H  H23  1  0.02210000  0.30360000  0.12720000  1
  H  H24  1  0.03160000  0.53290000  0.61070000  1
  H  H25  1  0.04080000  0.25190000  0.54220000  1
  H  H26  1  0.04280000  0.65480000  0.61790000  1
  H  H27  1  0.04430000  0.79100000  0.04390000  1
  H  H28  1  0.04780000  0.74830000  0.77480000  1
  H  H29  1  0.05420000  0.16400000  0.09660000  1
  H  H30  1  0.05680000  0.90330000  0.85640000  1
  H  H31  1  0.06780000  0.98120000  0.88250000  1
  H  H32  1  0.07720000  0.79300000  0.54770000  1
  H  H33  1  0.08110000  0.67950000  0.51440000  1
  H  H34  1  0.12240000  0.09870000  0.65130000  1
  H  H35  1  0.14000000  0.57070000  0.77200000  1
  H  H36  1  0.14140000  0.50730000  0.82690000  1
  H  H37  1  0.14650000  0.01270000  0.17670000  1
  H  H38  1  0.16360000  0.76460000  0.58380000  1
  H  H39  1  0.17650000  0.34680000  0.38580000  1
  H  H40  1  0.17830000  0.84850000  0.03900000  1
  H  H41  1  0.18060000  0.98210000  0.47770000  1
  H  H42  1  0.18190000  0.38070000  0.31450000  1
  H  H43  1  0.18400000  0.17690000  0.02350000  1
  H  H44  1  0.18850000  0.46690000  0.38930000  1
  H  H45  1  0.19190000  0.96940000  0.05050000  1
  H  H46  1  0.19780000  0.47300000  0.65920000  1
  H  H47  1  0.19830000  0.40650000  0.71170000  1
  H  H48  1  0.20050000  0.68050000  0.02140000  1
  H  H49  1  0.24660000  0.14270000  0.19410000  1
  H  H50  1  0.25340000  0.14270000  0.69410000  1
  H  H51  1  0.29950000  0.68050000  0.52140000  1
  H  H52  1  0.30170000  0.40650000  0.21170000  1
  H  H53  1  0.30220000  0.47300000  0.15920000  1
  H  H54  1  0.30810000  0.96940000  0.55050000  1
  H  H55  1  0.31150000  0.46690000  0.88930000  1
  H  H56  1  0.31600000  0.17690000  0.52350000  1
  H  H57  1  0.31810000  0.38070000  0.81450000  1
  H  H58  1  0.31940000  0.98210000  0.97770000  1
  H  H59  1  0.32170000  0.84850000  0.53900000  1
  H  H60  1  0.32350000  0.34680000  0.88580000  1
  H  H61  1  0.33640000  0.76460000  0.08380000  1
  H  H62  1  0.35350000  0.01270000  0.67670000  1
  H  H63  1  0.35860000  0.50730000  0.32690000  1
  H  H64  1  0.36000000  0.57070000  0.27200000  1
  H  H65  1  0.37760000  0.09870000  0.15130000  1
  H  H66  1  0.41890000  0.67950000  0.01440000  1
  H  H67  1  0.42280000  0.79300000  0.04770000  1
  H  H68  1  0.43220000  0.98120000  0.38250000  1
  H  H69  1  0.44320000  0.90330000  0.35640000  1
  H  H70  1  0.44580000  0.16400000  0.59660000  1
  H  H71  1  0.45220000  0.74830000  0.27480000  1
  H  H72  1  0.45570000  0.79100000  0.54390000  1
  H  H73  1  0.45720000  0.65480000  0.11790000  1
  H  H74  1  0.45920000  0.25190000  0.04220000  1
  H  H75  1  0.46840000  0.53290000  0.11070000  1
  H  H76  1  0.47790000  0.30360000  0.62720000  1
  H  H77  1  0.47800000  0.61840000  0.18680000  1
  H  H78  1  0.48070000  0.67790000  0.45030000  1
  H  H79  1  0.49380000  0.23710000  0.12090000  1
  H  H80  1  0.50620000  0.76290000  0.87910000  1
  H  H81  1  0.51930000  0.32210000  0.54970000  1
  H  H82  1  0.52200000  0.38160000  0.81320000  1
  H  H83  1  0.52210000  0.69640000  0.37280000  1
  H  H84  1  0.53160000  0.46710000  0.88930000  1
  H  H85  1  0.54080000  0.74810000  0.95780000  1
  H  H86  1  0.54280000  0.34520000  0.88210000  1
  H  H87  1  0.54430000  0.20900000  0.45610000  1
  H  H88  1  0.54780000  0.25170000  0.72520000  1
  H  H89  1  0.55420000  0.83600000  0.40340000  1
  H  H90  1  0.55680000  0.09670000  0.64360000  1
  H  H91  1  0.56780000  0.01880000  0.61750000  1
  H  H92  1  0.57720000  0.20700000  0.95230000  1
  H  H93  1  0.58110000  0.32050000  0.98560000  1
  H  H94  1  0.62240000  0.90130000  0.84870000  1
  H  H95  1  0.64000000  0.42930000  0.72800000  1
  H  H96  1  0.64140000  0.49270000  0.67310000  1
  H  H97  1  0.64650000  0.98730000  0.32330000  1
  H  H98  1  0.66360000  0.23540000  0.91620000  1
  H  H99  1  0.67650000  0.65320000  0.11420000  1
  H  H100  1  0.67830000  0.15150000  0.46100000  1
  H  H101  1  0.68060000  0.01790000  0.02230000  1
  H  H102  1  0.68190000  0.61930000  0.18550000  1
  H  H103  1  0.68400000  0.82310000  0.47650000  1
  H  H104  1  0.68850000  0.53310000  0.11070000  1
  H  H105  1  0.69190000  0.03060000  0.44950000  1
  H  H106  1  0.69780000  0.52700000  0.84080000  1
  H  H107  1  0.69830000  0.59350000  0.78830000  1
  H  H108  1  0.70050000  0.31950000  0.47860000  1
  H  H109  1  0.74660000  0.85730000  0.30590000  1
  H  H110  1  0.75340000  0.85730000  0.80590000  1
  H  H111  1  0.79950000  0.31950000  0.97860000  1
  H  H112  1  0.80170000  0.59350000  0.28830000  1
  H  H113  1  0.80220000  0.52700000  0.34080000  1
  H  H114  1  0.80810000  0.03060000  0.94950000  1
  H  H115  1  0.81150000  0.53310000  0.61070000  1
  H  H116  1  0.81600000  0.82310000  0.97650000  1
  H  H117  1  0.81810000  0.61930000  0.68550000  1
  H  H118  1  0.81940000  0.01790000  0.52230000  1
  H  H119  1  0.82170000  0.15150000  0.96100000  1
  H  H120  1  0.82350000  0.65320000  0.61420000  1
  H  H121  1  0.83640000  0.23540000  0.41620000  1
  H  H122  1  0.85350000  0.98730000  0.82330000  1
  H  H123  1  0.85860000  0.49270000  0.17310000  1
  H  H124  1  0.86000000  0.42930000  0.22800000  1
  H  H125  1  0.87760000  0.90130000  0.34870000  1
  H  H126  1  0.91890000  0.32050000  0.48560000  1
  H  H127  1  0.92280000  0.20700000  0.45230000  1
  H  H128  1  0.93220000  0.01880000  0.11750000  1
  H  H129  1  0.94320000  0.09670000  0.14360000  1
  H  H130  1  0.94580000  0.83600000  0.90340000  1
  H  H131  1  0.95220000  0.25170000  0.22520000  1
  H  H132  1  0.95570000  0.20900000  0.95610000  1
  H  H133  1  0.95720000  0.34520000  0.38210000  1
  H  H134  1  0.95920000  0.74810000  0.45780000  1
  H  H135  1  0.96840000  0.46710000  0.38930000  1
  H  H136  1  0.97790000  0.69640000  0.87280000  1
  H  H137  1  0.97800000  0.38160000  0.31320000  1
  H  H138  1  0.98070000  0.32210000  0.04970000  1
  H  H139  1  0.99380000  0.76290000  0.37910000  1
  C  C140  1  0.01710000  0.05690000  0.12750000  1
  C  C141  1  0.07180000  0.33840000  0.36240000  1
  C  C142  1  0.07270000  0.73780000  0.44080000  1
  C  C143  1  0.07620000  0.62150000  0.23310000  1
  C  C144  1  0.07860000  0.45940000  0.36780000  1
  C  C145  1  0.07880000  0.58480000  0.27130000  1
  C  C146  1  0.07940000  0.50850000  0.33740000  1
  C  C147  1  0.08610000  0.46470000  0.67350000  1
  C  C148  1  0.08690000  0.42580000  0.70550000  1
  C  C149  1  0.09140000  0.70670000  0.88980000  1
  C  C150  1  0.09320000  0.74700000  0.39380000  1
  C  C151  1  0.10780000  0.12730000  0.07270000  1
  C  C152  1  0.10990000  0.06520000  0.08060000  1
  C  C153  1  0.11600000  0.69650000  0.93650000  1
  C  C154  1  0.15190000  0.08880000  0.44490000  1
  C  C155  1  0.15500000  0.81710000  0.05770000  1
  C  C156  1  0.18610000  0.13510000  0.02880000  1
  C  C157  1  0.18960000  0.01130000  0.04520000  1
  C  C158  1  0.19400000  0.70530000  0.51410000  1
  C  C159  1  0.19630000  0.09870000  0.68050000  1
  C  C160  1  0.21810000  0.74380000  0.81920000  1
  C  C161  1  0.21940000  0.71360000  0.46230000  1
  C  C162  1  0.23320000  0.01900000  0.50160000  1
  C  C163  1  0.23350000  0.08070000  0.49320000  1
  C  C164  1  0.23760000  0.73230000  0.86940000  1
  C  C165  1  0.24620000  0.52310000  0.31790000  1
  C  C166  1  0.24710000  0.56100000  0.28500000  1
  C  C167  1  0.25290000  0.56100000  0.78500000  1
  C  C168  1  0.25380000  0.52310000  0.81790000  1
  C  C169  1  0.26240000  0.73230000  0.36940000  1
  C  C170  1  0.26650000  0.08070000  0.99320000  1
  C  C171  1  0.26680000  0.01900000  0.00160000  1
  C  C172  1  0.28060000  0.71360000  0.96230000  1
  C  C173  1  0.28190000  0.74380000  0.31920000  1
  C  C174  1  0.30370000  0.09870000  0.18050000  1
  C  C175  1  0.30600000  0.70530000  0.01410000  1
  C  C176  1  0.31040000  0.01130000  0.54520000  1
  C  C177  1  0.31390000  0.13510000  0.52880000  1
  C  C178  1  0.34500000  0.81710000  0.55770000  1
  C  C179  1  0.34810000  0.08880000  0.94490000  1
  C  C180  1  0.38400000  0.69650000  0.43650000  1
  C  C181  1  0.39010000  0.06520000  0.58060000  1
  C  C182  1  0.39220000  0.12730000  0.57270000  1
  C  C183  1  0.40680000  0.74700000  0.89380000  1
  C  C184  1  0.40860000  0.70670000  0.38980000  1
  C  C185  1  0.41310000  0.42580000  0.20550000  1
  C  C186  1  0.41390000  0.46470000  0.17350000  1
  C  C187  1  0.42060000  0.50850000  0.83740000  1
  C  C188  1  0.42120000  0.58480000  0.77130000  1
  C  C189  1  0.42140000  0.45940000  0.86780000  1
  C  C190  1  0.42380000  0.62150000  0.73310000  1
  C  C191  1  0.42730000  0.73780000  0.94080000  1
  C  C192  1  0.42820000  0.33840000  0.86240000  1
  C  C193  1  0.48290000  0.05690000  0.62750000  1
  C  C194  1  0.51710000  0.94310000  0.37250000  1
  C  C195  1  0.57180000  0.66160000  0.13760000  1
  C  C196  1  0.57270000  0.26220000  0.05920000  1
  C  C197  1  0.57620000  0.37850000  0.26690000  1
  C  C198  1  0.57860000  0.54060000  0.13220000  1
  C  C199  1  0.57880000  0.41520000  0.22870000  1
  C  C200  1  0.57940000  0.49150000  0.16260000  1
  C  C201  1  0.58610000  0.53530000  0.82650000  1
  C  C202  1  0.58690000  0.57420000  0.79450000  1
  C  C203  1  0.59140000  0.29330000  0.61020000  1
  C  C204  1  0.59320000  0.25300000  0.10620000  1
  C  C205  1  0.60780000  0.87270000  0.42730000  1
  C  C206  1  0.60990000  0.93480000  0.41940000  1
  C  C207  1  0.61600000  0.30350000  0.56350000  1
  C  C208  1  0.65190000  0.91120000  0.05510000  1
  C  C209  1  0.65500000  0.18290000  0.44230000  1
  C  C210  1  0.68610000  0.86490000  0.47120000  1
  C  C211  1  0.68960000  0.98870000  0.45480000  1
  C  C212  1  0.69400000  0.29470000  0.98590000  1
  C  C213  1  0.69630000  0.90130000  0.81950000  1
  C  C214  1  0.71810000  0.25620000  0.68080000  1
  C  C215  1  0.71940000  0.28640000  0.03770000  1
  C  C216  1  0.73320000  0.98100000  0.99840000  1
  C  C217  1  0.73350000  0.91930000  0.00680000  1
  C  C218  1  0.73760000  0.26770000  0.63060000  1
  C  C219  1  0.74620000  0.47690000  0.18210000  1
  C  C220  1  0.74710000  0.43900000  0.21500000  1
  C  C221  1  0.75290000  0.43900000  0.71500000  1
  C  C222  1  0.75380000  0.47690000  0.68210000  1
  C  C223  1  0.76240000  0.26770000  0.13060000  1
  C  C224  1  0.76650000  0.91930000  0.50680000  1
  C  C225  1  0.76680000  0.98100000  0.49840000  1
  C  C226  1  0.78060000  0.28640000  0.53770000  1
  C  C227  1  0.78190000  0.25620000  0.18080000  1
  C  C228  1  0.80370000  0.90130000  0.31950000  1
  C  C229  1  0.80600000  0.29470000  0.48590000  1
  C  C230  1  0.81040000  0.98870000  0.95480000  1
  C  C231  1  0.81390000  0.86490000  0.97120000  1
  C  C232  1  0.84500000  0.18290000  0.94230000  1
  C  C233  1  0.84810000  0.91120000  0.55510000  1
  C  C234  1  0.88400000  0.30350000  0.06350000  1
  C  C235  1  0.89010000  0.93480000  0.91940000  1
  C  C236  1  0.89220000  0.87270000  0.92730000  1
  C  C237  1  0.90680000  0.25300000  0.60620000  1
  C  C238  1  0.90860000  0.29330000  0.11020000  1
  C  C239  1  0.91310000  0.57420000  0.29450000  1
  C  C240  1  0.91390000  0.53530000  0.32650000  1
  C  C241  1  0.92060000  0.49150000  0.66260000  1
  C  C242  1  0.92120000  0.41520000  0.72870000  1
  C  C243  1  0.92140000  0.54060000  0.63220000  1
  C  C244  1  0.92380000  0.37850000  0.76690000  1
  C  C245  1  0.92730000  0.26220000  0.55920000  1
  C  C246  1  0.92820000  0.66160000  0.63760000  1
  C  C247  1  0.98290000  0.94310000  0.87250000  1
  N  N248  1  0.07810000  0.38790000  0.33380000  1
  N  N249  1  0.15350000  0.04630000  0.16495000  1
  N  N250  1  0.18000000  0.77170000  0.55383000  1
  N  N251  1  0.32000000  0.77170000  0.05383000  1
  N  N252  1  0.34650000  0.04630000  0.66495000  1
  N  N253  1  0.42190000  0.38790000  0.83380000  1
  N  N254  1  0.57810000  0.61210000  0.16620000  1
  N  N255  1  0.65350000  0.95370000  0.33505000  1
  N  N256  1  0.68000000  0.22830000  0.94617000  1
  N  N257  1  0.82000000  0.22830000  0.44617000  1
  N  N258  1  0.84650000  0.95370000  0.83505000  1
  N  N259  1  0.92190000  0.61210000  0.66620000  1
  O  O260  1  0.04680000  0.74380000  0.80310000  1
  O  O261  1  0.06120000  0.09930000  0.87170000  1
  O  O262  1  0.06510000  0.21020000  0.35829000  1
  O  O263  1  0.06790000  0.97970000  0.29863000  1
  O  O264  1  0.07720000  0.35740000  0.77870000  1
  O  O265  1  0.08180000  0.85720000  0.25501000  1
  O  O266  1  0.08510000  0.75690000  0.71347000  1
  O  O267  1  0.11570000  0.80570000  0.14755000  1
  O  O268  1  0.12380000  0.03680000  0.40874000  1
  O  O269  1  0.12620000  0.14750000  0.44272000  1
  O  O270  1  0.14190000  0.75280000  0.29633000  1
  O  O271  1  0.17400000  0.07040000  0.76730000  1
  O  O272  1  0.21270000  0.90900000  0.64029000  1
  O  O273  1  0.22880000  0.63380000  0.21451000  1
  O  O274  1  0.23720000  0.24200000  0.79385000  1
  O  O275  1  0.26280000  0.24200000  0.29385000  1
  O  O276  1  0.27120000  0.63380000  0.71451000  1
  O  O277  1  0.28730000  0.90900000  0.14029000  1
  O  O278  1  0.32600000  0.07040000  0.26730000  1
  O  O279  1  0.35810000  0.75280000  0.79633000  1
  O  O280  1  0.37380000  0.14750000  0.94272000  1
  O  O281  1  0.37620000  0.03680000  0.90874000  1
  O  O282  1  0.38430000  0.80570000  0.64755000  1
  O  O283  1  0.41490000  0.75690000  0.21347000  1
  O  O284  1  0.41820000  0.85720000  0.75501000  1
  O  O285  1  0.42280000  0.35740000  0.27870000  1
  O  O286  1  0.43210000  0.97970000  0.79863000  1
  O  O287  1  0.43490000  0.21020000  0.85829000  1
  O  O288  1  0.43880000  0.09930000  0.37170000  1
  O  O289  1  0.45320000  0.74380000  0.30310000  1
  O  O290  1  0.54680000  0.25620000  0.69690000  1
  O  O291  1  0.56120000  0.90070000  0.62830000  1
  O  O292  1  0.56510000  0.78980000  0.14171000  1
  O  O293  1  0.56790000  0.02030000  0.20137000  1
  O  O294  1  0.57720000  0.64260000  0.72130000  1
  O  O295  1  0.58180000  0.14280000  0.24499000  1
  O  O296  1  0.58510000  0.24310000  0.78653000  1
  O  O297  1  0.61570000  0.19430000  0.35245000  1
  O  O298  1  0.62380000  0.96320000  0.09126000  1
  O  O299  1  0.62620000  0.85250000  0.05728000  1
  O  O300  1  0.64190000  0.24720000  0.20367000  1
  O  O301  1  0.67400000  0.92960000  0.73270000  1
  O  O302  1  0.71270000  0.09100000  0.85971000  1
  O  O303  1  0.72880000  0.36620000  0.28549000  1
  O  O304  1  0.73720000  0.75800000  0.70615000  1
  O  O305  1  0.76280000  0.75800000  0.20615000  1
  O  O306  1  0.77120000  0.36620000  0.78549000  1
  O  O307  1  0.78730000  0.09100000  0.35971000  1
  O  O308  1  0.82600000  0.92960000  0.23270000  1
  O  O309  1  0.85810000  0.24720000  0.70367000  1
  O  O310  1  0.87380000  0.85250000  0.55728000  1
  O  O311  1  0.87620000  0.96320000  0.59126000  1
  O  O312  1  0.88430000  0.19430000  0.85245000  1
  O  O313  1  0.91490000  0.24310000  0.28653000  1
  O  O314  1  0.91820000  0.14280000  0.74499000  1
  O  O315  1  0.92280000  0.64260000  0.22130000  1
  O  O316  1  0.93210000  0.02030000  0.70137000  1
  O  O317  1  0.93490000  0.78980000  0.64171000  1
  O  O318  1  0.93880000  0.90070000  0.12830000  1
  O  O319  1  0.95320000  0.25620000  0.19690000  1
