# generated using pymatgen
data_Na4Mn2Cu3H12C30(NO3)6
_symmetry_space_group_name_H-M   'P 1'
_cell_length_a   14.94300000
_cell_length_b   36.35100000
_cell_length_c   36.35100000
_cell_angle_alpha   90.00000000
_cell_angle_beta   90.00000000
_cell_angle_gamma   90.00000000
_symmetry_Int_Tables_number   1
_chemical_formula_structural   Na4Mn2Cu3H12C30(NO3)6
_chemical_formula_sum   'Na32 Mn16 Cu24 H96 C240 N48 O144'
_cell_volume   19745.60848854
_cell_formula_units_Z   8
loop_
 _symmetry_equiv_pos_site_id
 _symmetry_equiv_pos_as_xyz
  1  'x, y, z'
loop_
 _atom_site_type_symbol
 _atom_site_label
 _atom_site_symmetry_multiplicity
 _atom_site_fract_x
 _atom_site_fract_y
 _atom_site_fract_z
 _atom_site_occupancy
  Na  Na0  1  0.43770000  0.03280000  0.62480000  1
  Na  Na1  1  0.56230000  0.03280000  0.62480000  1
  Na  Na2  1  0.06230000  0.12480000  0.46720000  1
  Na  Na3  1  0.93770000  0.12480000  0.46720000  1
  Na  Na4  1  0.00000000  0.16348000  0.29973000  1
  Na  Na5  1  0.50000000  0.20027000  0.66348000  1
  Na  Na6  1  0.07140000  0.24174000  0.24174000  1
  Na  Na7  1  0.92860000  0.24174000  0.24174000  1
  Na  Na8  1  0.42860000  0.25826000  0.74174000  1
  Na  Na9  1  0.57140000  0.25826000  0.74174000  1
  Na  Na10  1  0.00000000  0.29973000  0.16348000  1
  Na  Na11  1  0.50000000  0.33652000  0.79973000  1
  Na  Na12  1  0.43770000  0.37520000  0.96720000  1
  Na  Na13  1  0.56230000  0.37520000  0.96720000  1
  Na  Na14  1  0.06230000  0.46720000  0.12480000  1
  Na  Na15  1  0.93770000  0.46720000  0.12480000  1
  Na  Na16  1  0.06230000  0.53280000  0.87520000  1
  Na  Na17  1  0.93770000  0.53280000  0.87520000  1
  Na  Na18  1  0.43770000  0.62480000  0.03280000  1
  Na  Na19  1  0.56230000  0.62480000  0.03280000  1
  Na  Na20  1  0.50000000  0.66348000  0.20027000  1
  Na  Na21  1  0.00000000  0.70027000  0.83652000  1
  Na  Na22  1  0.42860000  0.74174000  0.25826000  1
  Na  Na23  1  0.57140000  0.74174000  0.25826000  1
  Na  Na24  1  0.07140000  0.75826000  0.75826000  1
  Na  Na25  1  0.92860000  0.75826000  0.75826000  1
  Na  Na26  1  0.50000000  0.79973000  0.33652000  1
  Na  Na27  1  0.00000000  0.83652000  0.70027000  1
  Na  Na28  1  0.06230000  0.87520000  0.53280000  1
  Na  Na29  1  0.93770000  0.87520000  0.53280000  1
  Na  Na30  1  0.43770000  0.96720000  0.37520000  1
  Na  Na31  1  0.56230000  0.96720000  0.37520000  1
  Mn  Mn32  1  0.25393000  0.11688000  0.32614000  1
  Mn  Mn33  1  0.74607000  0.11688000  0.32614000  1
  Mn  Mn34  1  0.24607000  0.17386000  0.61688000  1
  Mn  Mn35  1  0.75393000  0.17386000  0.61688000  1
  Mn  Mn36  1  0.25393000  0.32614000  0.11688000  1
  Mn  Mn37  1  0.74607000  0.32614000  0.11688000  1
  Mn  Mn38  1  0.24607000  0.38312000  0.82614000  1
  Mn  Mn39  1  0.75393000  0.38312000  0.82614000  1
  Mn  Mn40  1  0.24607000  0.61688000  0.17386000  1
  Mn  Mn41  1  0.75393000  0.61688000  0.17386000  1
  Mn  Mn42  1  0.25393000  0.67386000  0.88312000  1
  Mn  Mn43  1  0.74607000  0.67386000  0.88312000  1
  Mn  Mn44  1  0.24607000  0.82614000  0.38312000  1
  Mn  Mn45  1  0.75393000  0.82614000  0.38312000  1
  Mn  Mn46  1  0.25393000  0.88312000  0.67386000  1
  Mn  Mn47  1  0.74607000  0.88312000  0.67386000  1
  Cu  Cu48  1  0.23322000  0.03221000  0.66462000  1
  Cu  Cu49  1  0.76678000  0.03221000  0.66462000  1
  Cu  Cu50  1  0.26678000  0.16462000  0.46779000  1
  Cu  Cu51  1  0.73322000  0.16462000  0.46779000  1
  Cu  Cu52  1  0.26671000  0.20803000  0.20803000  1
  Cu  Cu53  1  0.73329000  0.20803000  0.20803000  1
  Cu  Cu54  1  0.23329000  0.29197000  0.70803000  1
  Cu  Cu55  1  0.76671000  0.29197000  0.70803000  1
  Cu  Cu56  1  0.23322000  0.33538000  0.96779000  1
  Cu  Cu57  1  0.76678000  0.33538000  0.96779000  1
  Cu  Cu58  1  0.26678000  0.46779000  0.16462000  1
  Cu  Cu59  1  0.73322000  0.46779000  0.16462000  1
  Cu  Cu60  1  0.26678000  0.53221000  0.83538000  1
  Cu  Cu61  1  0.73322000  0.53221000  0.83538000  1
  Cu  Cu62  1  0.23322000  0.66462000  0.03221000  1
  Cu  Cu63  1  0.76678000  0.66462000  0.03221000  1
  Cu  Cu64  1  0.23329000  0.70803000  0.29197000  1
  Cu  Cu65  1  0.76671000  0.70803000  0.29197000  1
  Cu  Cu66  1  0.26671000  0.79197000  0.79197000  1
  Cu  Cu67  1  0.73329000  0.79197000  0.79197000  1
  Cu  Cu68  1  0.26678000  0.83538000  0.53221000  1
  Cu  Cu69  1  0.73322000  0.83538000  0.53221000  1
  Cu  Cu70  1  0.23322000  0.96779000  0.33538000  1
  Cu  Cu71  1  0.76678000  0.96779000  0.33538000  1
  H  H72  1  0.00000000  0.00690000  0.33550000  1
  H  H73  1  0.13540000  0.00890000  0.24010000  1
  H  H74  1  0.86460000  0.00890000  0.24010000  1
  H  H75  1  0.00000000  0.00980000  0.20870000  1
  H  H76  1  0.00000000  0.07840000  0.64710000  1
  H  H77  1  0.50000000  0.08580000  0.16630000  1
  H  H78  1  0.13520000  0.08830000  0.74190000  1
  H  H79  1  0.86480000  0.08830000  0.74190000  1
  H  H80  1  0.00000000  0.08950000  0.77240000  1
  H  H81  1  0.36580000  0.11190000  0.18380000  1
  H  H82  1  0.63420000  0.11190000  0.18380000  1
  H  H83  1  0.50000000  0.14710000  0.42160000  1
  H  H84  1  0.50000000  0.16450000  0.50690000  1
  H  H85  1  0.50000000  0.16630000  0.08580000  1
  H  H86  1  0.36580000  0.18380000  0.11190000  1
  H  H87  1  0.63420000  0.18380000  0.11190000  1
  H  H88  1  0.50000000  0.18540000  0.24490000  1
  H  H89  1  0.00000000  0.20870000  0.00980000  1
  H  H90  1  0.00000000  0.22760000  0.91050000  1
  H  H91  1  0.13540000  0.24010000  0.00890000  1
  H  H92  1  0.86460000  0.24010000  0.00890000  1
  H  H93  1  0.36480000  0.24190000  0.41170000  1
  H  H94  1  0.63520000  0.24190000  0.41170000  1
  H  H95  1  0.50000000  0.24490000  0.18540000  1
  H  H96  1  0.00000000  0.25510000  0.68540000  1
  H  H97  1  0.13520000  0.25810000  0.91170000  1
  H  H98  1  0.86480000  0.25810000  0.91170000  1
  H  H99  1  0.36460000  0.25990000  0.50890000  1
  H  H100  1  0.63540000  0.25990000  0.50890000  1
  H  H101  1  0.50000000  0.27240000  0.41050000  1
  H  H102  1  0.50000000  0.29130000  0.50980000  1
  H  H103  1  0.00000000  0.31460000  0.74490000  1
  H  H104  1  0.13420000  0.31620000  0.61190000  1
  H  H105  1  0.86580000  0.31620000  0.61190000  1
  H  H106  1  0.00000000  0.33370000  0.58580000  1
  H  H107  1  0.00000000  0.33550000  0.00690000  1
  H  H108  1  0.00000000  0.35290000  0.92160000  1
  H  H109  1  0.13420000  0.38810000  0.68380000  1
  H  H110  1  0.86580000  0.38810000  0.68380000  1
  H  H111  1  0.50000000  0.41050000  0.27240000  1
  H  H112  1  0.36480000  0.41170000  0.24190000  1
  H  H113  1  0.63520000  0.41170000  0.24190000  1
  H  H114  1  0.00000000  0.41420000  0.66630000  1
  H  H115  1  0.50000000  0.42160000  0.14710000  1
  H  H116  1  0.50000000  0.49020000  0.70870000  1
  H  H117  1  0.36460000  0.49110000  0.74010000  1
  H  H118  1  0.63540000  0.49110000  0.74010000  1
  H  H119  1  0.50000000  0.49310000  0.83550000  1
  H  H120  1  0.50000000  0.50690000  0.16450000  1
  H  H121  1  0.36460000  0.50890000  0.25990000  1
  H  H122  1  0.63540000  0.50890000  0.25990000  1
  H  H123  1  0.50000000  0.50980000  0.29130000  1
  H  H124  1  0.50000000  0.57840000  0.85290000  1
  H  H125  1  0.00000000  0.58580000  0.33370000  1
  H  H126  1  0.36480000  0.58830000  0.75810000  1
  H  H127  1  0.63520000  0.58830000  0.75810000  1
  H  H128  1  0.50000000  0.58950000  0.72760000  1
  H  H129  1  0.13420000  0.61190000  0.31620000  1
  H  H130  1  0.86580000  0.61190000  0.31620000  1
  H  H131  1  0.00000000  0.64710000  0.07840000  1
  H  H132  1  0.00000000  0.66450000  0.99310000  1
  H  H133  1  1.00000000  0.66630000  0.41420000  1
  H  H134  1  0.13420000  0.68380000  0.38810000  1
  H  H135  1  0.86580000  0.68380000  0.38810000  1
  H  H136  1  0.00000000  0.68540000  0.25510000  1
  H  H137  1  0.50000000  0.70870000  0.49020000  1
  H  H138  1  0.50000000  0.72760000  0.58950000  1
  H  H139  1  0.36460000  0.74010000  0.49110000  1
  H  H140  1  0.63540000  0.74010000  0.49110000  1
  H  H141  1  0.13520000  0.74190000  0.08830000  1
  H  H142  1  0.86480000  0.74190000  0.08830000  1
  H  H143  1  0.00000000  0.74490000  0.31460000  1
  H  H144  1  0.50000000  0.75510000  0.81460000  1
  H  H145  1  0.36480000  0.75810000  0.58830000  1
  H  H146  1  0.63520000  0.75810000  0.58830000  1
  H  H147  1  0.13540000  0.75990000  0.99110000  1
  H  H148  1  0.86460000  0.75990000  0.99110000  1
  H  H149  1  0.00000000  0.77240000  0.08950000  1
  H  H150  1  0.00000000  0.79130000  0.99020000  1
  H  H151  1  0.50000000  0.81460000  0.75510000  1
  H  H152  1  0.36580000  0.81620000  0.88810000  1
  H  H153  1  0.63420000  0.81620000  0.88810000  1
  H  H154  1  0.50000000  0.83370000  0.91420000  1
  H  H155  1  0.50000000  0.83550000  0.49310000  1
  H  H156  1  0.50000000  0.85290000  0.57840000  1
  H  H157  1  0.36580000  0.88810000  0.81620000  1
  H  H158  1  0.63420000  0.88810000  0.81620000  1
  H  H159  1  0.00000000  0.91050000  0.22760000  1
  H  H160  1  0.13520000  0.91170000  0.25810000  1
  H  H161  1  0.86480000  0.91170000  0.25810000  1
  H  H162  1  0.50000000  0.91420000  0.83370000  1
  H  H163  1  0.00000000  0.92160000  0.35290000  1
  H  H164  1  0.00000000  0.99020000  0.79130000  1
  H  H165  1  0.13540000  0.99110000  0.75990000  1
  H  H166  1  0.86460000  0.99110000  0.75990000  1
  H  H167  1  0.00000000  0.99310000  0.66450000  1
  C  C168  1  0.00000000  0.00736000  0.30995000  1
  C  C169  1  0.08000000  0.00775000  0.29072000  1
  C  C170  1  0.92000000  0.00775000  0.29072000  1
  C  C171  1  0.08150000  0.00862000  0.25290000  1
  C  C172  1  0.91850000  0.00862000  0.25290000  1
  C  C173  1  0.00000000  0.00910000  0.23429000  1
  C  C174  1  0.28940000  0.03848000  0.33725000  1
  C  C175  1  0.71060000  0.03848000  0.33725000  1
  C  C176  1  0.20060000  0.03992000  0.31588000  1
  C  C177  1  0.79940000  0.03992000  0.31588000  1
  C  C178  1  0.00000000  0.08088000  0.67256000  1
  C  C179  1  0.08130000  0.08269000  0.69127000  1
  C  C180  1  0.91870000  0.08269000  0.69127000  1
  C  C181  1  0.08170000  0.08656000  0.72891000  1
  C  C182  1  0.91830000  0.08656000  0.72891000  1
  C  C183  1  0.00000000  0.08780000  0.74690000  1
  C  C184  1  0.28510000  0.09734000  0.63430000  1
  C  C185  1  0.71490000  0.09734000  0.63430000  1
  C  C186  1  0.19720000  0.10592000  0.65451000  1
  C  C187  1  0.80280000  0.10592000  0.65451000  1
  C  C188  1  0.50000000  0.10650000  0.18140000  1
  C  C189  1  0.41950000  0.12150000  0.19236000  1
  C  C190  1  0.58050000  0.12150000  0.19236000  1
  C  C191  1  0.21490000  0.13430000  0.40266000  1
  C  C192  1  0.78510000  0.13430000  0.40266000  1
  C  C193  1  0.41980000  0.15085000  0.21607000  1
  C  C194  1  0.58020000  0.15085000  0.21607000  1
  C  C195  1  0.30230000  0.15298000  0.25802000  1
  C  C196  1  0.69770000  0.15298000  0.25802000  1
  C  C197  1  0.30280000  0.15451000  0.39408000  1
  C  C198  1  0.69720000  0.15451000  0.39408000  1
  C  C199  1  0.21060000  0.16275000  0.53848000  1
  C  C200  1  0.78940000  0.16275000  0.53848000  1
  C  C201  1  0.50000000  0.16579000  0.22854000  1
  C  C202  1  0.21260000  0.17037000  0.26896000  1
  C  C203  1  0.78740000  0.17037000  0.26896000  1
  C  C204  1  0.50000000  0.17256000  0.41912000  1
  C  C205  1  0.50000000  0.18140000  0.10650000  1
  C  C206  1  0.29940000  0.18412000  0.53992000  1
  C  C207  1  0.70060000  0.18412000  0.53992000  1
  C  C208  1  0.50000000  0.19005000  0.50736000  1
  C  C209  1  0.41870000  0.19127000  0.41731000  1
  C  C210  1  0.58130000  0.19127000  0.41731000  1
  C  C211  1  0.41950000  0.19236000  0.12150000  1
  C  C212  1  0.58050000  0.19236000  0.12150000  1
  C  C213  1  0.42000000  0.20928000  0.50775000  1
  C  C214  1  0.58000000  0.20928000  0.50775000  1
  C  C215  1  0.41980000  0.21607000  0.15085000  1
  C  C216  1  0.58020000  0.21607000  0.15085000  1
  C  C217  1  0.50000000  0.22854000  0.16579000  1
  C  C218  1  0.41830000  0.22891000  0.41344000  1
  C  C219  1  0.58170000  0.22891000  0.41344000  1
  C  C220  1  0.28740000  0.23104000  0.67037000  1
  C  C221  1  0.71260000  0.23104000  0.67037000  1
  C  C222  1  0.00000000  0.23429000  0.00910000  1
  C  C223  1  0.19770000  0.24198000  0.65298000  1
  C  C224  1  0.80230000  0.24198000  0.65298000  1
  C  C225  1  0.50000000  0.24690000  0.41220000  1
  C  C226  1  0.41850000  0.24710000  0.50862000  1
  C  C227  1  0.58150000  0.24710000  0.50862000  1
  C  C228  1  0.08150000  0.25290000  0.00862000  1
  C  C229  1  0.91850000  0.25290000  0.00862000  1
  C  C230  1  0.00000000  0.25310000  0.91220000  1
  C  C231  1  0.30230000  0.25802000  0.15298000  1
  C  C232  1  0.69770000  0.25802000  0.15298000  1
  C  C233  1  0.50000000  0.26571000  0.50910000  1
  C  C234  1  0.21260000  0.26896000  0.17037000  1
  C  C235  1  0.78740000  0.26896000  0.17037000  1
  C  C236  1  0.08170000  0.27109000  0.91344000  1
  C  C237  1  0.91830000  0.27109000  0.91344000  1
  C  C238  1  0.00000000  0.27146000  0.66579000  1
  C  C239  1  0.08020000  0.28393000  0.65085000  1
  C  C240  1  0.91980000  0.28393000  0.65085000  1
  C  C241  1  0.08000000  0.29072000  0.00775000  1
  C  C242  1  0.92000000  0.29072000  0.00775000  1
  C  C243  1  0.08050000  0.30764000  0.62150000  1
  C  C244  1  0.91950000  0.30764000  0.62150000  1
  C  C245  1  0.08130000  0.30873000  0.91731000  1
  C  C246  1  0.91870000  0.30873000  0.91731000  1
  C  C247  1  0.00000000  0.30995000  0.00736000  1
  C  C248  1  0.20060000  0.31588000  0.03992000  1
  C  C249  1  0.79940000  0.31588000  0.03992000  1
  C  C250  1  0.00000000  0.31860000  0.60650000  1
  C  C251  1  0.00000000  0.32744000  0.91912000  1
  C  C252  1  0.28740000  0.32963000  0.76896000  1
  C  C253  1  0.71260000  0.32963000  0.76896000  1
  C  C254  1  0.00000000  0.33421000  0.72854000  1
  C  C255  1  0.28940000  0.33725000  0.03848000  1
  C  C256  1  0.71060000  0.33725000  0.03848000  1
  C  C257  1  0.19720000  0.34549000  0.89408000  1
  C  C258  1  0.80280000  0.34549000  0.89408000  1
  C  C259  1  0.19770000  0.34702000  0.75802000  1
  C  C260  1  0.80230000  0.34702000  0.75802000  1
  C  C261  1  0.08020000  0.34915000  0.71607000  1
  C  C262  1  0.91980000  0.34915000  0.71607000  1
  C  C263  1  0.28510000  0.36570000  0.90266000  1
  C  C264  1  0.71490000  0.36570000  0.90266000  1
  C  C265  1  0.08050000  0.37850000  0.69236000  1
  C  C266  1  0.91950000  0.37850000  0.69236000  1
  C  C267  1  0.00000000  0.39350000  0.68140000  1
  C  C268  1  0.30280000  0.39408000  0.15451000  1
  C  C269  1  0.69720000  0.39408000  0.15451000  1
  C  C270  1  0.21490000  0.40266000  0.13430000  1
  C  C271  1  0.78510000  0.40266000  0.13430000  1
  C  C272  1  0.50000000  0.41220000  0.24690000  1
  C  C273  1  0.41830000  0.41344000  0.22891000  1
  C  C274  1  0.58170000  0.41344000  0.22891000  1
  C  C275  1  0.41870000  0.41731000  0.19127000  1
  C  C276  1  0.58130000  0.41731000  0.19127000  1
  C  C277  1  0.50000000  0.41912000  0.17256000  1
  C  C278  1  0.29940000  0.46008000  0.81588000  1
  C  C279  1  0.70060000  0.46008000  0.81588000  1
  C  C280  1  0.21060000  0.46152000  0.83725000  1
  C  C281  1  0.78940000  0.46152000  0.83725000  1
  C  C282  1  0.50000000  0.49090000  0.73429000  1
  C  C283  1  0.41850000  0.49138000  0.75290000  1
  C  C284  1  0.58150000  0.49138000  0.75290000  1
  C  C285  1  0.42000000  0.49225000  0.79072000  1
  C  C286  1  0.58000000  0.49225000  0.79072000  1
  C  C287  1  0.50000000  0.49264000  0.80995000  1
  C  C288  1  0.50000000  0.50736000  0.19005000  1
  C  C289  1  0.42000000  0.50775000  0.20928000  1
  C  C290  1  0.58000000  0.50775000  0.20928000  1
  C  C291  1  0.41850000  0.50862000  0.24710000  1
  C  C292  1  0.58150000  0.50862000  0.24710000  1
  C  C293  1  0.50000000  0.50910000  0.26571000  1
  C  C294  1  0.21060000  0.53848000  0.16275000  1
  C  C295  1  0.78940000  0.53848000  0.16275000  1
  C  C296  1  0.29940000  0.53992000  0.18412000  1
  C  C297  1  0.70060000  0.53992000  0.18412000  1
  C  C298  1  0.50000000  0.58088000  0.82744000  1
  C  C299  1  0.41870000  0.58269000  0.80873000  1
  C  C300  1  0.58130000  0.58269000  0.80873000  1
  C  C301  1  0.41830000  0.58656000  0.77109000  1
  C  C302  1  0.58170000  0.58656000  0.77109000  1
  C  C303  1  0.50000000  0.58780000  0.75310000  1
  C  C304  1  0.21490000  0.59734000  0.86570000  1
  C  C305  1  0.78510000  0.59734000  0.86570000  1
  C  C306  1  0.30280000  0.60592000  0.84549000  1
  C  C307  1  0.69720000  0.60592000  0.84549000  1
  C  C308  1  0.00000000  0.60650000  0.31860000  1
  C  C309  1  0.08050000  0.62150000  0.30764000  1
  C  C310  1  0.91950000  0.62150000  0.30764000  1
  C  C311  1  0.28510000  0.63430000  0.09734000  1
  C  C312  1  0.71490000  0.63430000  0.09734000  1
  C  C313  1  0.08020000  0.65085000  0.28393000  1
  C  C314  1  0.91980000  0.65085000  0.28393000  1
  C  C315  1  0.19770000  0.65298000  0.24198000  1
  C  C316  1  0.80230000  0.65298000  0.24198000  1
  C  C317  1  0.19720000  0.65451000  0.10592000  1
  C  C318  1  0.80280000  0.65451000  0.10592000  1
  C  C319  1  0.28940000  0.66275000  0.96152000  1
  C  C320  1  0.71060000  0.66275000  0.96152000  1
  C  C321  1  0.00000000  0.66579000  0.27146000  1
  C  C322  1  0.28740000  0.67037000  0.23104000  1
  C  C323  1  0.71260000  0.67037000  0.23104000  1
  C  C324  1  0.00000000  0.67256000  0.08088000  1
  C  C325  1  0.00000000  0.68140000  0.39350000  1
  C  C326  1  0.20060000  0.68412000  0.96008000  1
  C  C327  1  0.79940000  0.68412000  0.96008000  1
  C  C328  1  1.00000000  0.69005000  0.99264000  1
  C  C329  1  0.08130000  0.69127000  0.08269000  1
  C  C330  1  0.91870000  0.69127000  0.08269000  1
  C  C331  1  0.08050000  0.69236000  0.37850000  1
  C  C332  1  0.91950000  0.69236000  0.37850000  1
  C  C333  1  0.08000000  0.70928000  0.99225000  1
  C  C334  1  0.92000000  0.70928000  0.99225000  1
  C  C335  1  0.08020000  0.71607000  0.34915000  1
  C  C336  1  0.91980000  0.71607000  0.34915000  1
  C  C337  1  0.00000000  0.72854000  0.33421000  1
  C  C338  1  0.08170000  0.72891000  0.08656000  1
  C  C339  1  0.91830000  0.72891000  0.08656000  1
  C  C340  1  0.21260000  0.73104000  0.82963000  1
  C  C341  1  0.78740000  0.73104000  0.82963000  1
  C  C342  1  0.50000000  0.73429000  0.49090000  1
  C  C343  1  0.30230000  0.74198000  0.84702000  1
  C  C344  1  0.69770000  0.74198000  0.84702000  1
  C  C345  1  0.00000000  0.74690000  0.08780000  1
  C  C346  1  0.08150000  0.74710000  0.99138000  1
  C  C347  1  0.91850000  0.74710000  0.99138000  1
  C  C348  1  0.41850000  0.75290000  0.49138000  1
  C  C349  1  0.58150000  0.75290000  0.49138000  1
  C  C350  1  0.50000000  0.75310000  0.58780000  1
  C  C351  1  0.19770000  0.75802000  0.34702000  1
  C  C352  1  0.80230000  0.75802000  0.34702000  1
  C  C353  1  0.00000000  0.76571000  0.99090000  1
  C  C354  1  0.28740000  0.76896000  0.32963000  1
  C  C355  1  0.71260000  0.76896000  0.32963000  1
  C  C356  1  0.41830000  0.77109000  0.58656000  1
  C  C357  1  0.58170000  0.77109000  0.58656000  1
  C  C358  1  0.50000000  0.77146000  0.83421000  1
  C  C359  1  0.41980000  0.78393000  0.84915000  1
  C  C360  1  0.58020000  0.78393000  0.84915000  1
  C  C361  1  0.42000000  0.79072000  0.49225000  1
  C  C362  1  0.58000000  0.79072000  0.49225000  1
  C  C363  1  0.41950000  0.80764000  0.87850000  1
  C  C364  1  0.58050000  0.80764000  0.87850000  1
  C  C365  1  0.41870000  0.80873000  0.58269000  1
  C  C366  1  0.58130000  0.80873000  0.58269000  1
  C  C367  1  0.50000000  0.80995000  0.49264000  1
  C  C368  1  0.29940000  0.81588000  0.46008000  1
  C  C369  1  0.70060000  0.81588000  0.46008000  1
  C  C370  1  0.50000000  0.81860000  0.89350000  1
  C  C371  1  0.50000000  0.82744000  0.58088000  1
  C  C372  1  0.21260000  0.82963000  0.73104000  1
  C  C373  1  0.78740000  0.82963000  0.73104000  1
  C  C374  1  0.50000000  0.83421000  0.77146000  1
  C  C375  1  0.21060000  0.83725000  0.46152000  1
  C  C376  1  0.78940000  0.83725000  0.46152000  1
  C  C377  1  0.30280000  0.84549000  0.60592000  1
  C  C378  1  0.69720000  0.84549000  0.60592000  1
  C  C379  1  0.30230000  0.84702000  0.74198000  1
  C  C380  1  0.69770000  0.84702000  0.74198000  1
  C  C381  1  0.41980000  0.84915000  0.78393000  1
  C  C382  1  0.58020000  0.84915000  0.78393000  1
  C  C383  1  0.21490000  0.86570000  0.59734000  1
  C  C384  1  0.78510000  0.86570000  0.59734000  1
  C  C385  1  0.41950000  0.87850000  0.80764000  1
  C  C386  1  0.58050000  0.87850000  0.80764000  1
  C  C387  1  0.50000000  0.89350000  0.81860000  1
  C  C388  1  0.19720000  0.89408000  0.34549000  1
  C  C389  1  0.80280000  0.89408000  0.34549000  1
  C  C390  1  0.28510000  0.90266000  0.36570000  1
  C  C391  1  0.71490000  0.90266000  0.36570000  1
  C  C392  1  0.00000000  0.91220000  0.25310000  1
  C  C393  1  0.08170000  0.91344000  0.27109000  1
  C  C394  1  0.91830000  0.91344000  0.27109000  1
  C  C395  1  0.08130000  0.91731000  0.30873000  1
  C  C396  1  0.91870000  0.91731000  0.30873000  1
  C  C397  1  0.00000000  0.91912000  0.32744000  1
  C  C398  1  0.20060000  0.96008000  0.68412000  1
  C  C399  1  0.79940000  0.96008000  0.68412000  1
  C  C400  1  0.28940000  0.96152000  0.66275000  1
  C  C401  1  0.71060000  0.96152000  0.66275000  1
  C  C402  1  0.00000000  0.99090000  0.76571000  1
  C  C403  1  0.08150000  0.99138000  0.74710000  1
  C  C404  1  0.91850000  0.99138000  0.74710000  1
  C  C405  1  0.08000000  0.99225000  0.70928000  1
  C  C406  1  0.92000000  0.99225000  0.70928000  1
  C  C407  1  0.00000000  0.99264000  0.69005000  1
  N  N408  1  0.16380000  0.00807000  0.31029000  1
  N  N409  1  0.83620000  0.00807000  0.31029000  1
  N  N410  1  0.16340000  0.07788000  0.67229000  1
  N  N411  1  0.83660000  0.07788000  0.67229000  1
  N  N412  1  0.33697000  0.16666000  0.22811000  1
  N  N413  1  0.66303000  0.16666000  0.22811000  1
  N  N414  1  0.33660000  0.17229000  0.42212000  1
  N  N415  1  0.66340000  0.17229000  0.42212000  1
  N  N416  1  0.33620000  0.18971000  0.50807000  1
  N  N417  1  0.66380000  0.18971000  0.50807000  1
  N  N418  1  0.33697000  0.22811000  0.16666000  1
  N  N419  1  0.66303000  0.22811000  0.16666000  1
  N  N420  1  0.16303000  0.27189000  0.66666667  1
  N  N421  1  0.83697000  0.27189000  0.66666667  1
  N  N422  1  0.16380000  0.31029000  0.00807000  1
  N  N423  1  0.83620000  0.31029000  0.00807000  1
  N  N424  1  0.16340000  0.32771000  0.92212000  1
  N  N425  1  0.83660000  0.32771000  0.92212000  1
  N  N426  1  0.16303000  0.33333333  0.72811000  1
  N  N427  1  0.83697000  0.33333333  0.72811000  1
  N  N428  1  0.33660000  0.42212000  0.17229000  1
  N  N429  1  0.66340000  0.42212000  0.17229000  1
  N  N430  1  0.33620000  0.49193000  0.81029000  1
  N  N431  1  0.66380000  0.49193000  0.81029000  1
  N  N432  1  0.33620000  0.50807000  0.18971000  1
  N  N433  1  0.66380000  0.50807000  0.18971000  1
  N  N434  1  0.33660000  0.57788000  0.82771000  1
  N  N435  1  0.66340000  0.57788000  0.82771000  1
  N  N436  1  0.16303000  0.66666667  0.27189000  1
  N  N437  1  0.83697000  0.66666667  0.27189000  1
  N  N438  1  0.16340000  0.67229000  0.07788000  1
  N  N439  1  0.83660000  0.67229000  0.07788000  1
  N  N440  1  0.16380000  0.68971000  0.99193000  1
  N  N441  1  0.83620000  0.68971000  0.99193000  1
  N  N442  1  0.16303000  0.72811000  0.33333333  1
  N  N443  1  0.83697000  0.72811000  0.33333333  1
  N  N444  1  0.33697000  0.77189000  0.83334000  1
  N  N445  1  0.66303000  0.77189000  0.83334000  1
  N  N446  1  0.33620000  0.81029000  0.49193000  1
  N  N447  1  0.66380000  0.81029000  0.49193000  1
  N  N448  1  0.33660000  0.82771000  0.57788000  1
  N  N449  1  0.66340000  0.82771000  0.57788000  1
  N  N450  1  0.33697000  0.83334000  0.77189000  1
  N  N451  1  0.66303000  0.83334000  0.77189000  1
  N  N452  1  0.16340000  0.92212000  0.32771000  1
  N  N453  1  0.83660000  0.92212000  0.32771000  1
  N  N454  1  0.16380000  0.99193000  0.68971000  1
  N  N455  1  0.83620000  0.99193000  0.68971000  1
  O  O456  1  0.31660000  0.00781000  0.34875000  1
  O  O457  1  0.68340000  0.00781000  0.34875000  1
  O  O458  1  0.31460000  0.06503000  0.63661000  1
  O  O459  1  0.68540000  0.06503000  0.63661000  1
  O  O460  1  0.32894000  0.06814000  0.34254000  1
  O  O461  1  0.67106000  0.06814000  0.34254000  1
  O  O462  1  0.17042000  0.07150000  0.30650000  1
  O  O463  1  0.82958000  0.07150000  0.30650000  1
  O  O464  1  0.17840000  0.11742000  0.37718000  1
  O  O465  1  0.82160000  0.11742000  0.37718000  1
  O  O466  1  0.32160000  0.12282000  0.61742000  1
  O  O467  1  0.67840000  0.12282000  0.61742000  1
  O  O468  1  0.33232000  0.12761000  0.27835000  1
  O  O469  1  0.66768000  0.12761000  0.27835000  1
  O  O470  1  0.18540000  0.13661000  0.43497000  1
  O  O471  1  0.81460000  0.13661000  0.43497000  1
  O  O472  1  0.16671000  0.13848000  0.65247000  1
  O  O473  1  0.83329000  0.13848000  0.65247000  1
  O  O474  1  0.18340000  0.15125000  0.50781000  1
  O  O475  1  0.81660000  0.15125000  0.50781000  1
  O  O476  1  0.33329000  0.15247000  0.36152000  1
  O  O477  1  0.66666667  0.15247000  0.36152000  1
  O  O478  1  0.17106000  0.15746000  0.56814000  1
  O  O479  1  0.82894000  0.15746000  0.56814000  1
  O  O480  1  0.17459000  0.15833000  0.29689000  1
  O  O481  1  0.82541000  0.15833000  0.29689000  1
  O  O482  1  0.32958000  0.19350000  0.57150000  1
  O  O483  1  0.67042000  0.19350000  0.57150000  1
  O  O484  1  0.18337000  0.19580000  0.24911000  1
  O  O485  1  0.81663000  0.19580000  0.24911000  1
  O  O486  1  0.32541000  0.20311000  0.65833000  1
  O  O487  1  0.67459000  0.20311000  0.65833000  1
  O  O488  1  0.16768000  0.22165000  0.62761000  1
  O  O489  1  0.83232000  0.22165000  0.62761000  1
  O  O490  1  0.18337000  0.24911000  0.19580000  1
  O  O491  1  0.81663000  0.24911000  0.19580000  1
  O  O492  1  0.31663000  0.25089000  0.69580000  1
  O  O493  1  0.68337000  0.25089000  0.69580000  1
  O  O494  1  0.33232000  0.27835000  0.12761000  1
  O  O495  1  0.66768000  0.27835000  0.12761000  1
  O  O496  1  0.17459000  0.29689000  0.15833000  1
  O  O497  1  0.82541000  0.29689000  0.15833000  1
  O  O498  1  0.31663000  0.30420000  0.74911000  1
  O  O499  1  0.68337000  0.30420000  0.74911000  1
  O  O500  1  0.17042000  0.30650000  0.07150000  1
  O  O501  1  0.82958000  0.30650000  0.07150000  1
  O  O502  1  0.32541000  0.34167000  0.79689000  1
  O  O503  1  0.67459000  0.34167000  0.79689000  1
  O  O504  1  0.32894000  0.34254000  0.06814000  1
  O  O505  1  0.67106000  0.34254000  0.06814000  1
  O  O506  1  0.16671000  0.34753000  0.86152000  1
  O  O507  1  0.83329000  0.34753000  0.86152000  1
  O  O508  1  0.31660000  0.34875000  0.00781000  1
  O  O509  1  0.68340000  0.34875000  0.00781000  1
  O  O510  1  0.33329000  0.36152000  0.15247000  1
  O  O511  1  0.66666667  0.36152000  0.15247000  1
  O  O512  1  0.31460000  0.36339000  0.93497000  1
  O  O513  1  0.68540000  0.36339000  0.93497000  1
  O  O514  1  0.16768000  0.37239000  0.77835000  1
  O  O515  1  0.83232000  0.37239000  0.77835000  1
  O  O516  1  0.17840000  0.37718000  0.11742000  1
  O  O517  1  0.82160000  0.37718000  0.11742000  1
  O  O518  1  0.32160000  0.38258000  0.87718000  1
  O  O519  1  0.67840000  0.38258000  0.87718000  1
  O  O520  1  0.32958000  0.42850000  0.80650000  1
  O  O521  1  0.67042000  0.42850000  0.80650000  1
  O  O522  1  0.17106000  0.43186000  0.84254000  1
  O  O523  1  0.82894000  0.43186000  0.84254000  1
  O  O524  1  0.18540000  0.43497000  0.13661000  1
  O  O525  1  0.81460000  0.43497000  0.13661000  1
  O  O526  1  0.18340000  0.49219000  0.84875000  1
  O  O527  1  0.81660000  0.49219000  0.84875000  1
  O  O528  1  0.18340000  0.50781000  0.15125000  1
  O  O529  1  0.81660000  0.50781000  0.15125000  1
  O  O530  1  0.18540000  0.56503000  0.86339000  1
  O  O531  1  0.81460000  0.56503000  0.86339000  1
  O  O532  1  0.17106000  0.56814000  0.15746000  1
  O  O533  1  0.82894000  0.56814000  0.15746000  1
  O  O534  1  0.32958000  0.57150000  0.19350000  1
  O  O535  1  0.67042000  0.57150000  0.19350000  1
  O  O536  1  0.32160000  0.61742000  0.12282000  1
  O  O537  1  0.67840000  0.61742000  0.12282000  1
  O  O538  1  0.17840000  0.62282000  0.88258000  1
  O  O539  1  0.82160000  0.62282000  0.88258000  1
  O  O540  1  0.16768000  0.62761000  0.22165000  1
  O  O541  1  0.83232000  0.62761000  0.22165000  1
  O  O542  1  0.31460000  0.63661000  0.06503000  1
  O  O543  1  0.68540000  0.63661000  0.06503000  1
  O  O544  1  0.33329000  0.63848000  0.84753000  1
  O  O545  1  0.66666667  0.63848000  0.84753000  1
  O  O546  1  0.31660000  0.65125000  0.99219000  1
  O  O547  1  0.68340000  0.65125000  0.99219000  1
  O  O548  1  0.16671000  0.65247000  0.13848000  1
  O  O549  1  0.83329000  0.65247000  0.13848000  1
  O  O550  1  0.32894000  0.65746000  0.93186000  1
  O  O551  1  0.67106000  0.65746000  0.93186000  1
  O  O552  1  0.32541000  0.65833000  0.20311000  1
  O  O553  1  0.67459000  0.65833000  0.20311000  1
  O  O554  1  0.17042000  0.69350000  0.92850000  1
  O  O555  1  0.82958000  0.69350000  0.92850000  1
  O  O556  1  0.31663000  0.69580000  0.25089000  1
  O  O557  1  0.68337000  0.69580000  0.25089000  1
  O  O558  1  0.17459000  0.70311000  0.84167000  1
  O  O559  1  0.82541000  0.70311000  0.84167000  1
  O  O560  1  0.33232000  0.72165000  0.87239000  1
  O  O561  1  0.66768000  0.72165000  0.87239000  1
  O  O562  1  0.31663000  0.74911000  0.30420000  1
  O  O563  1  0.68337000  0.74911000  0.30420000  1
  O  O564  1  0.18337000  0.75089000  0.80420000  1
  O  O565  1  0.81663000  0.75089000  0.80420000  1
  O  O566  1  0.16768000  0.77835000  0.37239000  1
  O  O567  1  0.83232000  0.77835000  0.37239000  1
  O  O568  1  0.32541000  0.79689000  0.34167000  1
  O  O569  1  0.67459000  0.79689000  0.34167000  1
  O  O570  1  0.18337000  0.80420000  0.75089000  1
  O  O571  1  0.81663000  0.80420000  0.75089000  1
  O  O572  1  0.32958000  0.80650000  0.42850000  1
  O  O573  1  0.67042000  0.80650000  0.42850000  1
  O  O574  1  0.17459000  0.84167000  0.70311000  1
  O  O575  1  0.82541000  0.84167000  0.70311000  1
  O  O576  1  0.17106000  0.84254000  0.43186000  1
  O  O577  1  0.82894000  0.84254000  0.43186000  1
  O  O578  1  0.33329000  0.84753000  0.63848000  1
  O  O579  1  0.66666667  0.84753000  0.63848000  1
  O  O580  1  0.18340000  0.84875000  0.49219000  1
  O  O581  1  0.81660000  0.84875000  0.49219000  1
  O  O582  1  0.16671000  0.86152000  0.34753000  1
  O  O583  1  0.83329000  0.86152000  0.34753000  1
  O  O584  1  0.18540000  0.86339000  0.56503000  1
  O  O585  1  0.81460000  0.86339000  0.56503000  1
  O  O586  1  0.33232000  0.87239000  0.72165000  1
  O  O587  1  0.66768000  0.87239000  0.72165000  1
  O  O588  1  0.32160000  0.87718000  0.38258000  1
  O  O589  1  0.67840000  0.87718000  0.38258000  1
  O  O590  1  0.17840000  0.88258000  0.62282000  1
  O  O591  1  0.82160000  0.88258000  0.62282000  1
  O  O592  1  0.17042000  0.92850000  0.69350000  1
  O  O593  1  0.82958000  0.92850000  0.69350000  1
  O  O594  1  0.32894000  0.93186000  0.65746000  1
  O  O595  1  0.67106000  0.93186000  0.65746000  1
  O  O596  1  0.31460000  0.93497000  0.36339000  1
  O  O597  1  0.68540000  0.93497000  0.36339000  1
  O  O598  1  0.31660000  0.99219000  0.65125000  1
  O  O599  1  0.68340000  0.99219000  0.65125000  1
