# generated using pymatgen
data_Co2H6C16O9
_symmetry_space_group_name_H-M   'P 1'
_cell_length_a   10.81730000
_cell_length_b   13.58200000
_cell_length_c   14.70370000
_cell_angle_alpha   110.62800000
_cell_angle_beta   90.00000000
_cell_angle_gamma   90.00000000
_symmetry_Int_Tables_number   1
_chemical_formula_structural   Co2H6C16O9
_chemical_formula_sum   'Co8 H24 C64 O36'
_cell_volume   2021.77523223
_cell_formula_units_Z   4
loop_
 _symmetry_equiv_pos_site_id
 _symmetry_equiv_pos_as_xyz
  1  'x, y, z'
loop_
 _atom_site_type_symbol
 _atom_site_label
 _atom_site_symmetry_multiplicity
 _atom_site_fract_x
 _atom_site_fract_y
 _atom_site_fract_z
 _atom_site_occupancy
  Co  Co0  1  0.40254000  0.59059000  0.03886000  1
  Co  Co1  1  0.09746000  0.59059000  0.53886000  1
  Co  Co2  1  0.48954000  0.50410000  0.79235000  1
  Co  Co3  1  0.01046000  0.50410000  0.29235000  1
  Co  Co4  1  0.98954000  0.49590000  0.70765000  1
  Co  Co5  1  0.51046000  0.49590000  0.20765000  1
  Co  Co6  1  0.90254000  0.40941000  0.46114000  1
  Co  Co7  1  0.59746000  0.40941000  0.96114000  1
  H  H8  1  0.93190000  0.99880000  0.28940000  1
  H  H9  1  0.56810000  0.99880000  0.78940000  1
  H  H10  1  0.81800000  0.94970000  0.54400000  1
  H  H11  1  0.68200000  0.94970000  0.04400000  1
  H  H12  1  0.35840000  0.91150000  0.00730000  1
  H  H13  1  0.14160000  0.91150000  0.50730000  1
  H  H14  1  0.86990000  0.86120000  0.64200000  1
  H  H15  1  0.63010000  0.86120000  0.14200000  1
  H  H16  1  0.95670000  0.86010000  0.34350000  1
  H  H17  1  0.54330000  0.86010000  0.84350000  1
  H  H18  1  0.33280000  0.85030000  0.21030000  1
  H  H19  1  0.16720000  0.85030000  0.71030000  1
  H  H20  1  0.83280000  0.14970000  0.28970000  1
  H  H21  1  0.66720000  0.14970000  0.78970000  1
  H  H22  1  0.45670000  0.13990000  0.15650000  1
  H  H23  1  0.04330000  0.13990000  0.65650000  1
  H  H24  1  0.36990000  0.13880000  0.85800000  1
  H  H25  1  0.13010000  0.13880000  0.35800000  1
  H  H26  1  0.85840000  0.08850000  0.49270000  1
  H  H27  1  0.64160000  0.08850000  0.99270000  1
  H  H28  1  0.31800000  0.05030000  0.95600000  1
  H  H29  1  0.18200000  0.05030000  0.45600000  1
  H  H30  1  0.43190000  0.00120000  0.21060000  1
  H  H31  1  0.06810000  0.00120000  0.71060000  1
  C  C32  1  0.29700000  0.98228000  0.91637000  1
  C  C33  1  0.20300000  0.98228000  0.41637000  1
  C  C34  1  0.25880000  0.96545000  0.32628000  1
  C  C35  1  0.24120000  0.96545000  0.82628000  1
  C  C36  1  0.77770000  0.94581000  0.20946000  1
  C  C37  1  0.72230000  0.94581000  0.70946000  1
  C  C38  1  0.87570000  0.94352000  0.27036000  1
  C  C39  1  0.62430000  0.94352000  0.77036000  1
  C  C40  1  0.32130000  0.89896000  0.94720000  1
  C  C41  1  0.17870000  0.89896000  0.44720000  1
  C  C42  1  0.29380000  0.86282000  0.26968000  1
  C  C43  1  0.20620000  0.86282000  0.76968000  1
  C  C44  1  0.80410000  0.86135000  0.68269000  1
  C  C45  1  0.69590000  0.86135000  0.18269000  1
  C  C46  1  0.89060000  0.85986000  0.30299000  1
  C  C47  1  0.60940000  0.85986000  0.80299000  1
  C  C48  1  0.29083000  0.79689000  0.88915000  1
  C  C49  1  0.20917000  0.79689000  0.38915000  1
  C  C50  1  0.27067000  0.77952000  0.30137000  1
  C  C51  1  0.22933000  0.77952000  0.80137000  1
  C  C52  1  0.79040000  0.77699000  0.71490000  1
  C  C53  1  0.70960000  0.77699000  0.21490000  1
  C  C54  1  0.80820000  0.77556000  0.27598000  1
  C  C55  1  0.69180000  0.77556000  0.77598000  1
  C  C56  1  0.33324000  0.70345000  0.91314000  1
  C  C57  1  0.16676000  0.70345000  0.41314000  1
  C  C58  1  0.88274000  0.68887000  0.68079000  1
  C  C59  1  0.61726000  0.68887000  0.18079000  1
  C  C60  1  0.83170000  0.68520000  0.31211000  1
  C  C61  1  0.66830000  0.68520000  0.81211000  1
  C  C62  1  0.31693000  0.67144000  0.24067000  1
  C  C63  1  0.18307000  0.67144000  0.74067000  1
  C  C64  1  0.81693000  0.32856000  0.25933000  1
  C  C65  1  0.68307000  0.32856000  0.75933000  1
  C  C66  1  0.33170000  0.31480000  0.18789000  1
  C  C67  1  0.16830000  0.31480000  0.68789000  1
  C  C68  1  0.38274000  0.31113000  0.81921000  1
  C  C69  1  0.11726000  0.31113000  0.31921000  1
  C  C70  1  0.83324000  0.29655000  0.58686000  1
  C  C71  1  0.66676000  0.29655000  0.08686000  1
  C  C72  1  0.30820000  0.22444000  0.22402000  1
  C  C73  1  0.19180000  0.22444000  0.72402000  1
  C  C74  1  0.29040000  0.22301000  0.78510000  1
  C  C75  1  0.20960000  0.22301000  0.28510000  1
  C  C76  1  0.77067000  0.22048000  0.19863000  1
  C  C77  1  0.72933000  0.22048000  0.69863000  1
  C  C78  1  0.79083000  0.20311000  0.61085000  1
  C  C79  1  0.70917000  0.20311000  0.11085000  1
  C  C80  1  0.39060000  0.14014000  0.19701000  1
  C  C81  1  0.10940000  0.14014000  0.69701000  1
  C  C82  1  0.30410000  0.13865000  0.81731000  1
  C  C83  1  0.19590000  0.13865000  0.31731000  1
  C  C84  1  0.79380000  0.13718000  0.23032000  1
  C  C85  1  0.70620000  0.13718000  0.73032000  1
  C  C86  1  0.82130000  0.10104000  0.55280000  1
  C  C87  1  0.67870000  0.10104000  0.05280000  1
  C  C88  1  0.37570000  0.05648000  0.22964000  1
  C  C89  1  0.12430000  0.05648000  0.72964000  1
  C  C90  1  0.27770000  0.05419000  0.29054000  1
  C  C91  1  0.22230000  0.05419000  0.79054000  1
  C  C92  1  0.75880000  0.03455000  0.17372000  1
  C  C93  1  0.74120000  0.03455000  0.67372000  1
  C  C94  1  0.79700000  0.01772000  0.58363000  1
  C  C95  1  0.70300000  0.01772000  0.08363000  1
  O  O96  1  0.34683000  0.71553000  0.00142000  1
  O  O97  1  0.15317000  0.71553000  0.50142000  1
  O  O98  1  0.96917000  0.69828000  0.62840000  1
  O  O99  1  0.53083000  0.69828000  0.12840000  1
  O  O100  1  0.78408000  0.68858000  0.39056000  1
  O  O101  1  0.71592000  0.68858000  0.89056000  1
  O  O102  1  0.27725000  0.63364000  0.15496000  1
  O  O103  1  0.22275000  0.63364000  0.65496000  1
  O  O104  1  0.39602000  0.62982000  0.27882000  1
  O  O105  1  0.10398000  0.62982000  0.77882000  1
  O  O106  1  0.35284000  0.62142000  0.84224000  1
  O  O107  1  0.14716000  0.62142000  0.34224000  1
  O  O108  1  0.90418000  0.61553000  0.26072000  1
  O  O109  1  0.59582000  0.61553000  0.76072000  1
  O  O110  1  0.86370000  0.61123000  0.70765000  1
  O  O111  1  0.63630000  0.61123000  0.20765000  1
  O  O112  1  0.95816000  0.53886000  0.43238000  1
  O  O113  1  0.54184000  0.53886000  0.93238000  1
  O  O114  1  0.45816000  0.46114000  0.06762000  1
  O  O115  1  0.04184000  0.46114000  0.56762000  1
  O  O116  1  0.36370000  0.38877000  0.79235000  1
  O  O117  1  0.13630000  0.38877000  0.29235000  1
  O  O118  1  0.40418000  0.38447000  0.23928000  1
  O  O119  1  0.09582000  0.38447000  0.73928000  1
  O  O120  1  0.85284000  0.37858000  0.65776000  1
  O  O121  1  0.64716000  0.37858000  0.15776000  1
  O  O122  1  0.89602000  0.37018000  0.22118000  1
  O  O123  1  0.60398000  0.37018000  0.72118000  1
  O  O124  1  0.77725000  0.36636000  0.34504000  1
  O  O125  1  0.72275000  0.36636000  0.84504000  1
  O  O126  1  0.28408000  0.31142000  0.10944000  1
  O  O127  1  0.21592000  0.31142000  0.60944000  1
  O  O128  1  0.46917000  0.30172000  0.87160000  1
  O  O129  1  0.03083000  0.30172000  0.37160000  1
  O  O130  1  0.84683000  0.28447000  0.49858000  1
  O  O131  1  0.65317000  0.28447000  0.99858000  1
