# generated using pymatgen
data_Cu3H24C54(N7O6)2
_symmetry_space_group_name_H-M   'P 1'
_cell_length_a   37.29110000
_cell_length_b   37.29110000
_cell_length_c   37.51320000
_cell_angle_alpha   60.19570000
_cell_angle_beta   60.19570000
_cell_angle_gamma   60.00000000
_symmetry_Int_Tables_number   1
_chemical_formula_structural   Cu3H24C54(N7O6)2
_chemical_formula_sum   'Cu24 H192 C432 N112 O96'
_cell_volume   36996.26100424
_cell_formula_units_Z   8
loop_
 _symmetry_equiv_pos_site_id
 _symmetry_equiv_pos_as_xyz
  1  'x, y, z'
loop_
 _atom_site_type_symbol
 _atom_site_label
 _atom_site_symmetry_multiplicity
 _atom_site_fract_x
 _atom_site_fract_y
 _atom_site_fract_z
 _atom_site_occupancy
  Cu  Cu0  1  0.90833000  0.90833000  0.81001000  1
  Cu  Cu1  1  0.37333000  0.90833000  0.81001000  1
  Cu  Cu2  1  0.44329000  0.90805000  0.27597000  1
  Cu  Cu3  1  0.37269000  0.90805000  0.27597000  1
  Cu  Cu4  1  0.90708000  0.90708000  0.74115000  1
  Cu  Cu5  1  0.44469000  0.90708000  0.74115000  1
  Cu  Cu6  1  0.55671000  0.62731000  0.72403000  1
  Cu  Cu7  1  0.09195000  0.62731000  0.72403000  1
  Cu  Cu8  1  0.09167000  0.62667000  0.18999000  1
  Cu  Cu9  1  0.62731000  0.55671000  0.72403000  1
  Cu  Cu10  1  0.09195000  0.55671000  0.72403000  1
  Cu  Cu11  1  0.09293000  0.55531000  0.25883000  1
  Cu  Cu12  1  0.90708000  0.44469000  0.74115000  1
  Cu  Cu13  1  0.90805000  0.44329000  0.27597000  1
  Cu  Cu14  1  0.37269000  0.44329000  0.27597000  1
  Cu  Cu15  1  0.90833000  0.37333000  0.81001000  1
  Cu  Cu16  1  0.90805000  0.37269000  0.27597000  1
  Cu  Cu17  1  0.44329000  0.37269000  0.27597000  1
  Cu  Cu18  1  0.55531000  0.09293000  0.25883000  1
  Cu  Cu19  1  0.09293000  0.09293000  0.25883000  1
  Cu  Cu20  1  0.62731000  0.09195000  0.72403000  1
  Cu  Cu21  1  0.55671000  0.09195000  0.72403000  1
  Cu  Cu22  1  0.62667000  0.09167000  0.18999000  1
  Cu  Cu23  1  0.09167000  0.09167000  0.18999000  1
  H  H24  1  0.70410000  0.96240000  0.73510000  1
  H  H25  1  0.59840000  0.96240000  0.73510000  1
  H  H26  1  0.59740000  0.95810000  0.33870000  1
  H  H27  1  0.10580000  0.95810000  0.33870000  1
  H  H28  1  0.70010000  0.95640000  0.23160000  1
  H  H29  1  0.11190000  0.95640000  0.23160000  1
  H  H30  1  0.69620000  0.93990000  0.91990000  1
  H  H31  1  0.44400000  0.93990000  0.91990000  1
  H  H32  1  0.69560000  0.93930000  0.81220000  1
  H  H33  1  0.55290000  0.93930000  0.81220000  1
  H  H34  1  0.55220000  0.93850000  0.06570000  1
  H  H35  1  0.44360000  0.93850000  0.06570000  1
  H  H36  1  0.76820000  0.93190000  0.78040000  1
  H  H37  1  0.51950000  0.93190000  0.78040000  1
  H  H38  1  0.51840000  0.92970000  0.14010000  1
  H  H39  1  0.41180000  0.92970000  0.14010000  1
  H  H40  1  0.77210000  0.92490000  0.88930000  1
  H  H41  1  0.41370000  0.92490000  0.88930000  1
  H  H42  1  0.40260000  0.89420000  0.66130000  1
  H  H43  1  0.04190000  0.89420000  0.66130000  1
  H  H44  1  0.73900000  0.89080000  0.73510000  1
  H  H45  1  0.63510000  0.89080000  0.73510000  1
  H  H46  1  0.29990000  0.88810000  0.76840000  1
  H  H47  1  0.04360000  0.88810000  0.76840000  1
  H  H48  1  0.36850000  0.88650000  0.48670000  1
  H  H49  1  0.25830000  0.88650000  0.48670000  1
  H  H50  1  0.62740000  0.88440000  0.36810000  1
  H  H51  1  0.12010000  0.88440000  0.36810000  1
  H  H52  1  0.40600000  0.88340000  0.41110000  1
  H  H53  1  0.29950000  0.88340000  0.41110000  1
  H  H54  1  0.26660000  0.88320000  0.73150000  1
  H  H55  1  0.11870000  0.88320000  0.73150000  1
  H  H56  1  0.73340000  0.88130000  0.26850000  1
  H  H57  1  0.11680000  0.88130000  0.26850000  1
  H  H58  1  0.37260000  0.87990000  0.63190000  1
  H  H59  1  0.11560000  0.87990000  0.63190000  1
  H  H60  1  0.51910000  0.77960000  0.29040000  1
  H  H61  1  0.41090000  0.77960000  0.29040000  1
  H  H62  1  0.92490000  0.77210000  0.88930000  1
  H  H63  1  0.41370000  0.77210000  0.88930000  1
  H  H64  1  0.93190000  0.76820000  0.78040000  1
  H  H65  1  0.51950000  0.76820000  0.78040000  1
  H  H66  1  0.63150000  0.74170000  0.51330000  1
  H  H67  1  0.11350000  0.74170000  0.51330000  1
  H  H68  1  0.89080000  0.73900000  0.73510000  1
  H  H69  1  0.63510000  0.73900000  0.73510000  1
  H  H70  1  0.88130000  0.73340000  0.26850000  1
  H  H71  1  0.11680000  0.73340000  0.26850000  1
  H  H72  1  0.55240000  0.70670000  0.29550000  1
  H  H73  1  0.44540000  0.70670000  0.29550000  1
  H  H74  1  0.96240000  0.70410000  0.73510000  1
  H  H75  1  0.59840000  0.70410000  0.73510000  1
  H  H76  1  0.59400000  0.70050000  0.58890000  1
  H  H77  1  0.11660000  0.70050000  0.58890000  1
  H  H78  1  0.95640000  0.70010000  0.23160000  1
  H  H79  1  0.11190000  0.70010000  0.23160000  1
  H  H80  1  0.93990000  0.69620000  0.91990000  1
  H  H81  1  0.44400000  0.69620000  0.91990000  1
  H  H82  1  0.93930000  0.69560000  0.81220000  1
  H  H83  1  0.55290000  0.69560000  0.81220000  1
  H  H84  1  0.89080000  0.63510000  0.73510000  1
  H  H85  1  0.73900000  0.63510000  0.73510000  1
  H  H86  1  0.74170000  0.63150000  0.51330000  1
  H  H87  1  0.11350000  0.63150000  0.51330000  1
  H  H88  1  0.88440000  0.62740000  0.36810000  1
  H  H89  1  0.12010000  0.62740000  0.36810000  1
  H  H90  1  0.96240000  0.59840000  0.73510000  1
  H  H91  1  0.70410000  0.59840000  0.73510000  1
  H  H92  1  0.95810000  0.59740000  0.33870000  1
  H  H93  1  0.10580000  0.59740000  0.33870000  1
  H  H94  1  0.70050000  0.59400000  0.58890000  1
  H  H95  1  0.11660000  0.59400000  0.58890000  1
  H  H96  1  0.48090000  0.58910000  0.70960000  1
  H  H97  1  0.22040000  0.58910000  0.70960000  1
  H  H98  1  0.48160000  0.58820000  0.85990000  1
  H  H99  1  0.07030000  0.58820000  0.85990000  1
  H  H100  1  0.22790000  0.58630000  0.11070000  1
  H  H101  1  0.07510000  0.58630000  0.11070000  1
  H  H102  1  0.44780000  0.55640000  0.93430000  1
  H  H103  1  0.06150000  0.55640000  0.93430000  1
  H  H104  1  0.30380000  0.55600000  0.08010000  1
  H  H105  1  0.06010000  0.55600000  0.08010000  1
  H  H106  1  0.44760000  0.55460000  0.70450000  1
  H  H107  1  0.29330000  0.55460000  0.70450000  1
  H  H108  1  0.93930000  0.55290000  0.81220000  1
  H  H109  1  0.69560000  0.55290000  0.81220000  1
  H  H110  1  0.70670000  0.55240000  0.29550000  1
  H  H111  1  0.44540000  0.55240000  0.29550000  1
  H  H112  1  0.93850000  0.55220000  0.06570000  1
  H  H113  1  0.44360000  0.55220000  0.06570000  1
  H  H114  1  0.93190000  0.51950000  0.78040000  1
  H  H115  1  0.76820000  0.51950000  0.78040000  1
  H  H116  1  0.77960000  0.51910000  0.29040000  1
  H  H117  1  0.41090000  0.51910000  0.29040000  1
  H  H118  1  0.92970000  0.51840000  0.14010000  1
  H  H119  1  0.41180000  0.51840000  0.14010000  1
  H  H120  1  0.58820000  0.48160000  0.85990000  1
  H  H121  1  0.07030000  0.48160000  0.85990000  1
  H  H122  1  0.58910000  0.48090000  0.70960000  1
  H  H123  1  0.22040000  0.48090000  0.70960000  1
  H  H124  1  0.23180000  0.48050000  0.21960000  1
  H  H125  1  0.06810000  0.48050000  0.21960000  1
  H  H126  1  0.55640000  0.44780000  0.93430000  1
  H  H127  1  0.06150000  0.44780000  0.93430000  1
  H  H128  1  0.55460000  0.44760000  0.70450000  1
  H  H129  1  0.29330000  0.44760000  0.70450000  1
  H  H130  1  0.30440000  0.44710000  0.18780000  1
  H  H131  1  0.06070000  0.44710000  0.18780000  1
  H  H132  1  0.70670000  0.44540000  0.29550000  1
  H  H133  1  0.55240000  0.44540000  0.29550000  1
  H  H134  1  0.93990000  0.44400000  0.91990000  1
  H  H135  1  0.69620000  0.44400000  0.91990000  1
  H  H136  1  0.93850000  0.44360000  0.06570000  1
  H  H137  1  0.55220000  0.44360000  0.06570000  1
  H  H138  1  0.92490000  0.41370000  0.88930000  1
  H  H139  1  0.77210000  0.41370000  0.88930000  1
  H  H140  1  0.92970000  0.41180000  0.14010000  1
  H  H141  1  0.51840000  0.41180000  0.14010000  1
  H  H142  1  0.77960000  0.41090000  0.29040000  1
  H  H143  1  0.51910000  0.41090000  0.29040000  1
  H  H144  1  0.88340000  0.40600000  0.41110000  1
  H  H145  1  0.29950000  0.40600000  0.41110000  1
  H  H146  1  0.89420000  0.40260000  0.66130000  1
  H  H147  1  0.04190000  0.40260000  0.66130000  1
  H  H148  1  0.29590000  0.40160000  0.26490000  1
  H  H149  1  0.03760000  0.40160000  0.26490000  1
  H  H150  1  0.87990000  0.37260000  0.63190000  1
  H  H151  1  0.11560000  0.37260000  0.63190000  1
  H  H152  1  0.88650000  0.36850000  0.48670000  1
  H  H153  1  0.25830000  0.36850000  0.48670000  1
  H  H154  1  0.26100000  0.36490000  0.26490000  1
  H  H155  1  0.10920000  0.36490000  0.26490000  1
  H  H156  1  0.44710000  0.30440000  0.18780000  1
  H  H157  1  0.06070000  0.30440000  0.18780000  1
  H  H158  1  0.55600000  0.30380000  0.08010000  1
  H  H159  1  0.06010000  0.30380000  0.08010000  1
  H  H160  1  0.88810000  0.29990000  0.76840000  1
  H  H161  1  0.04360000  0.29990000  0.76840000  1
  H  H162  1  0.88340000  0.29950000  0.41110000  1
  H  H163  1  0.40600000  0.29950000  0.41110000  1
  H  H164  1  0.40160000  0.29590000  0.26490000  1
  H  H165  1  0.03760000  0.29590000  0.26490000  1
  H  H166  1  0.55460000  0.29330000  0.70450000  1
  H  H167  1  0.44760000  0.29330000  0.70450000  1
  H  H168  1  0.88320000  0.26660000  0.73150000  1
  H  H169  1  0.11870000  0.26660000  0.73150000  1
  H  H170  1  0.36490000  0.26100000  0.26490000  1
  H  H171  1  0.10920000  0.26100000  0.26490000  1
  H  H172  1  0.88650000  0.25830000  0.48670000  1
  H  H173  1  0.36850000  0.25830000  0.48670000  1
  H  H174  1  0.48050000  0.23180000  0.21960000  1
  H  H175  1  0.06810000  0.23180000  0.21960000  1
  H  H176  1  0.58630000  0.22790000  0.11070000  1
  H  H177  1  0.07510000  0.22790000  0.11070000  1
  H  H178  1  0.58910000  0.22040000  0.70960000  1
  H  H179  1  0.48090000  0.22040000  0.70960000  1
  H  H180  1  0.88440000  0.12010000  0.36810000  1
  H  H181  1  0.62740000  0.12010000  0.36810000  1
  H  H182  1  0.88320000  0.11870000  0.73150000  1
  H  H183  1  0.26660000  0.11870000  0.73150000  1
  H  H184  1  0.88130000  0.11680000  0.26850000  1
  H  H185  1  0.73340000  0.11680000  0.26850000  1
  H  H186  1  0.70050000  0.11660000  0.58890000  1
  H  H187  1  0.59400000  0.11660000  0.58890000  1
  H  H188  1  0.87990000  0.11560000  0.63190000  1
  H  H189  1  0.37260000  0.11560000  0.63190000  1
  H  H190  1  0.74170000  0.11350000  0.51330000  1
  H  H191  1  0.63150000  0.11350000  0.51330000  1
  H  H192  1  0.95640000  0.11190000  0.23160000  1
  H  H193  1  0.70010000  0.11190000  0.23160000  1
  H  H194  1  0.36490000  0.10920000  0.26490000  1
  H  H195  1  0.26100000  0.10920000  0.26490000  1
  H  H196  1  0.95810000  0.10580000  0.33870000  1
  H  H197  1  0.59740000  0.10580000  0.33870000  1
  H  H198  1  0.58630000  0.07510000  0.11070000  1
  H  H199  1  0.22790000  0.07510000  0.11070000  1
  H  H200  1  0.58820000  0.07030000  0.85990000  1
  H  H201  1  0.48160000  0.07030000  0.85990000  1
  H  H202  1  0.48050000  0.06810000  0.21960000  1
  H  H203  1  0.23180000  0.06810000  0.21960000  1
  H  H204  1  0.55640000  0.06150000  0.93430000  1
  H  H205  1  0.44780000  0.06150000  0.93430000  1
  H  H206  1  0.44710000  0.06070000  0.18780000  1
  H  H207  1  0.30440000  0.06070000  0.18780000  1
  H  H208  1  0.55600000  0.06010000  0.08010000  1
  H  H209  1  0.30380000  0.06010000  0.08010000  1
  H  H210  1  0.88810000  0.04360000  0.76840000  1
  H  H211  1  0.29990000  0.04360000  0.76840000  1
  H  H212  1  0.89420000  0.04190000  0.66130000  1
  H  H213  1  0.40260000  0.04190000  0.66130000  1
  H  H214  1  0.40160000  0.03760000  0.26490000  1
  H  H215  1  0.29590000  0.03760000  0.26490000  1
  C  C216  1  0.37210000  0.99510000  0.26070000  1
  C  C217  1  0.89530000  0.98810000  0.74470000  1
  C  C218  1  0.37190000  0.98810000  0.74470000  1
  C  C219  1  0.64320000  0.96680000  0.28110000  1
  C  C220  1  0.10890000  0.96680000  0.28110000  1
  C  C221  1  0.64830000  0.95930000  0.74410000  1
  C  C222  1  0.57965000  0.95200000  0.88870000  1
  C  C223  1  0.52090000  0.94860000  0.00960000  1
  C  C224  1  0.64550000  0.94820000  0.89140000  1
  C  C225  1  0.58190000  0.94820000  0.94870000  1
  C  C226  1  0.52120000  0.94820000  0.94870000  1
  C  C227  1  0.51490000  0.94820000  0.89140000  1
  C  C228  1  0.68990000  0.94560000  0.73870000  1
  C  C229  1  0.62580000  0.94560000  0.73870000  1
  C  C230  1  0.68940000  0.94540000  0.86830000  1
  C  C231  1  0.49690000  0.94540000  0.86830000  1
  C  C232  1  0.62460000  0.94360000  0.32190000  1
  C  C233  1  0.10990000  0.94360000  0.32190000  1
  C  C234  1  0.68480000  0.94300000  0.26010000  1
  C  C235  1  0.11210000  0.94300000  0.26010000  1
  C  C236  1  0.49985000  0.94000000  0.06030000  1
  C  C237  1  0.71080000  0.93930000  0.82570000  1
  C  C238  1  0.52420000  0.93930000  0.82570000  1
  C  C239  1  0.71100000  0.93890000  0.89170000  1
  C  C240  1  0.45840000  0.93890000  0.89170000  1
  C  C241  1  0.52410000  0.93700000  0.08070000  1
  C  C242  1  0.45820000  0.93700000  0.08070000  1
  C  C243  1  0.75310000  0.93370000  0.80830000  1
  C  C244  1  0.50490000  0.93370000  0.80830000  1
  C  C245  1  0.50460000  0.93160000  0.12390000  1
  C  C246  1  0.43990000  0.93160000  0.12390000  1
  C  C247  1  0.77590000  0.93040000  0.83140000  1
  C  C248  1  0.46230000  0.93040000  0.83140000  1
  C  C249  1  0.75590000  0.93030000  0.87370000  1
  C  C250  1  0.44010000  0.93030000  0.87370000  1
  C  C251  1  0.46465000  0.92910000  0.14160000  1
  C  C252  1  0.43980000  0.92660000  0.19380000  1
  C  C253  1  0.82790000  0.92140000  0.81010000  1
  C  C254  1  0.44060000  0.92140000  0.81010000  1
  C  C255  1  0.37420000  0.90800000  0.34360000  1
  C  C256  1  0.70910000  0.90410000  0.73900000  1
  C  C257  1  0.64780000  0.90410000  0.73900000  1
  C  C258  1  0.64430000  0.89800000  0.34110000  1
  C  C259  1  0.11660000  0.89800000  0.34110000  1
  C  C260  1  0.70490000  0.89580000  0.28320000  1
  C  C261  1  0.11610000  0.89580000  0.28320000  1
  C  C262  1  0.98810000  0.89530000  0.74470000  1
  C  C263  1  0.37190000  0.89530000  0.74470000  1
  C  C264  1  0.35680000  0.89110000  0.71890000  1
  C  C265  1  0.03320000  0.89110000  0.71890000  1
  C  C266  1  0.37540000  0.89010000  0.67810000  1
  C  C267  1  0.05640000  0.89010000  0.67810000  1
  C  C268  1  0.31125000  0.88810000  0.48940000  1
  C  C269  1  0.31520000  0.88790000  0.73990000  1
  C  C270  1  0.05700000  0.88790000  0.73990000  1
  C  C271  1  0.35450000  0.88650000  0.47200000  1
  C  C272  1  0.28700000  0.88650000  0.47200000  1
  C  C273  1  0.37690000  0.88460000  0.42460000  1
  C  C274  1  0.31390000  0.88460000  0.42460000  1
  C  C275  1  0.35770000  0.88430000  0.40030000  1
  C  C276  1  0.29510000  0.88390000  0.71680000  1
  C  C277  1  0.10420000  0.88390000  0.71680000  1
  C  C278  1  0.35570000  0.88340000  0.65890000  1
  C  C279  1  0.10200000  0.88340000  0.65890000  1
  C  C280  1  0.31450000  0.88130000  0.67630000  1
  C  C281  1  0.12790000  0.88130000  0.67630000  1
  C  C282  1  0.68760000  0.88010000  0.74470000  1
  C  C283  1  0.29540000  0.87990000  0.60010000  1
  C  C284  1  0.22460000  0.87990000  0.60010000  1
  C  C285  1  0.29445000  0.87970000  0.53140000  1
  C  C286  1  0.23195000  0.87840000  0.65770000  1
  C  C287  1  0.29140000  0.87620000  0.66220000  1
  C  C288  1  0.17020000  0.87620000  0.66220000  1
  C  C289  1  0.68550000  0.87210000  0.32370000  1
  C  C290  1  0.11870000  0.87210000  0.32370000  1
  C  C291  1  0.70860000  0.82980000  0.33780000  1
  C  C292  1  0.12380000  0.82980000  0.33780000  1
  C  C293  1  0.71230000  0.82830000  0.74710000  1
  C  C294  1  0.92140000  0.82790000  0.81010000  1
  C  C295  1  0.44060000  0.82790000  0.81010000  1
  C  C296  1  0.44480000  0.82180000  0.28860000  1
  C  C297  1  0.46430000  0.77680000  0.29460000  1
  C  C298  1  0.93040000  0.77590000  0.83140000  1
  C  C299  1  0.46230000  0.77590000  0.83140000  1
  C  C300  1  0.70460000  0.77540000  0.39990000  1
  C  C301  1  0.12010000  0.77540000  0.39990000  1
  C  C302  1  0.77175000  0.77175000  0.74770000  1
  C  C303  1  0.70880000  0.77175000  0.74770000  1
  C  C304  1  0.76805000  0.76805000  0.34230000  1
  C  C305  1  0.12160000  0.76805000  0.34230000  1
  C  C306  1  0.50550000  0.76290000  0.29280000  1
  C  C307  1  0.43880000  0.76290000  0.29280000  1
  C  C308  1  0.93030000  0.75590000  0.87370000  1
  C  C309  1  0.44010000  0.75590000  0.87370000  1
  C  C310  1  0.93370000  0.75310000  0.80830000  1
  C  C311  1  0.50490000  0.75310000  0.80830000  1
  C  C312  1  0.52360000  0.72050000  0.29550000  1
  C  C313  1  0.46040000  0.72050000  0.29550000  1
  C  C314  1  0.64550000  0.71300000  0.52800000  1
  C  C315  1  0.11350000  0.71300000  0.52800000  1
  C  C316  1  0.82830000  0.71230000  0.74710000  1
  C  C317  1  0.71230000  0.71230000  0.74710000  1
  C  C318  1  0.93890000  0.71100000  0.89170000  1
  C  C319  1  0.45840000  0.71100000  0.89170000  1
  C  C320  1  0.93930000  0.71080000  0.82570000  1
  C  C321  1  0.52420000  0.71080000  0.82570000  1
  C  C322  1  0.90410000  0.70910000  0.73900000  1
  C  C323  1  0.64780000  0.70910000  0.73900000  1
  C  C324  1  0.77175000  0.70880000  0.74770000  1
  C  C325  1  0.82980000  0.70860000  0.33780000  1
  C  C326  1  0.12380000  0.70860000  0.33780000  1
  C  C327  1  0.70555000  0.70555000  0.46860000  1
  C  C328  1  0.12030000  0.70555000  0.46860000  1
  C  C329  1  0.89580000  0.70490000  0.28320000  1
  C  C330  1  0.11610000  0.70490000  0.28320000  1
  C  C331  1  0.77540000  0.70460000  0.39990000  1
  C  C332  1  0.12010000  0.70460000  0.39990000  1
  C  C333  1  0.50390000  0.69340000  0.29880000  1
  C  C334  1  0.94560000  0.68990000  0.73870000  1
  C  C335  1  0.62580000  0.68990000  0.73870000  1
  C  C336  1  0.94540000  0.68940000  0.86830000  1
  C  C337  1  0.49690000  0.68940000  0.86830000  1
  C  C338  1  0.68875000  0.68875000  0.51060000  1
  C  C339  1  0.11190000  0.68875000  0.51060000  1
  C  C340  1  0.88010000  0.68760000  0.74470000  1
  C  C341  1  0.68760000  0.68760000  0.74470000  1
  C  C342  1  0.62310000  0.68610000  0.57540000  1
  C  C343  1  0.11540000  0.68610000  0.57540000  1
  C  C344  1  0.87210000  0.68550000  0.32370000  1
  C  C345  1  0.11870000  0.68550000  0.32370000  1
  C  C346  1  0.94300000  0.68480000  0.26010000  1
  C  C347  1  0.11210000  0.68480000  0.26010000  1
  C  C348  1  0.52140000  0.65240000  0.30480000  1
  C  C349  1  0.95930000  0.64830000  0.74410000  1
  C  C350  1  0.64830000  0.64830000  0.74410000  1
  C  C351  1  0.90410000  0.64780000  0.73900000  1
  C  C352  1  0.70910000  0.64780000  0.73900000  1
  C  C353  1  0.94820000  0.64550000  0.89140000  1
  C  C354  1  0.71300000  0.64550000  0.52800000  1
  C  C355  1  0.51490000  0.64550000  0.89140000  1
  C  C356  1  0.11350000  0.64550000  0.52800000  1
  C  C357  1  0.89800000  0.64430000  0.34110000  1
  C  C358  1  0.11660000  0.64430000  0.34110000  1
  C  C359  1  0.96680000  0.64320000  0.28110000  1
  C  C360  1  0.10890000  0.64320000  0.28110000  1
  C  C361  1  0.64230000  0.64230000  0.59970000  1
  C  C362  1  0.11570000  0.64230000  0.59970000  1
  C  C363  1  0.10470000  0.62810000  0.25530000  1
  C  C364  1  0.01190000  0.62810000  0.25530000  1
  C  C365  1  0.62790000  0.62790000  0.73930000  1
  C  C366  1  0.00490000  0.62790000  0.73930000  1
  C  C367  1  0.94560000  0.62580000  0.73870000  1
  C  C368  1  0.68990000  0.62580000  0.73870000  1
  C  C369  1  0.62580000  0.62580000  0.65640000  1
  C  C370  1  0.09200000  0.62580000  0.65640000  1
  C  C371  1  0.94360000  0.62460000  0.32190000  1
  C  C372  1  0.10990000  0.62460000  0.32190000  1
  C  C373  1  0.68610000  0.62310000  0.57540000  1
  C  C374  1  0.11540000  0.62310000  0.57540000  1
  C  C375  1  0.58750000  0.58750000  0.30390000  1
  C  C376  1  0.52110000  0.58750000  0.30390000  1
  C  C377  1  0.94820000  0.58190000  0.94870000  1
  C  C378  1  0.52120000  0.58190000  0.94870000  1
  C  C379  1  0.95200000  0.57965000  0.88870000  1
  C  C380  1  0.57965000  0.57965000  0.88870000  1
  C  C381  1  0.49450000  0.56120000  0.70720000  1
  C  C382  1  0.23710000  0.56120000  0.70720000  1
  C  C383  1  0.56020000  0.56020000  0.80620000  1
  C  C384  1  0.07340000  0.56020000  0.80620000  1
  C  C385  1  0.49540000  0.56010000  0.87610000  1
  C  C386  1  0.06840000  0.56010000  0.87610000  1
  C  C387  1  0.24410000  0.55990000  0.12630000  1
  C  C388  1  0.06970000  0.55990000  0.12630000  1
  C  C389  1  0.17210000  0.55940000  0.18990000  1
  C  C390  1  0.07860000  0.55940000  0.18990000  1
  C  C391  1  0.55520000  0.55520000  0.71140000  1
  C  C392  1  0.17820000  0.55520000  0.71140000  1
  C  C393  1  0.47590000  0.54180000  0.91930000  1
  C  C394  1  0.06300000  0.54180000  0.91930000  1
  C  C395  1  0.28900000  0.54160000  0.10830000  1
  C  C396  1  0.06110000  0.54160000  0.10830000  1
  C  C397  1  0.47640000  0.53960000  0.70450000  1
  C  C398  1  0.27950000  0.53960000  0.70450000  1
  C  C399  1  0.22410000  0.53770000  0.16860000  1
  C  C400  1  0.06960000  0.53770000  0.16860000  1
  C  C401  1  0.53570000  0.53570000  0.70540000  1
  C  C402  1  0.22320000  0.53570000  0.70540000  1
  C  C403  1  0.53535000  0.53535000  0.85840000  1
  C  C404  1  0.07090000  0.53535000  0.85840000  1
  C  C405  1  0.93930000  0.52420000  0.82570000  1
  C  C406  1  0.71080000  0.52420000  0.82570000  1
  C  C407  1  0.93700000  0.52410000  0.08070000  1
  C  C408  1  0.45820000  0.52410000  0.08070000  1
  C  C409  1  0.72050000  0.52360000  0.29550000  1
  C  C410  1  0.46040000  0.52360000  0.29550000  1
  C  C411  1  0.65240000  0.52140000  0.30480000  1
  C  C412  1  0.52140000  0.52140000  0.30480000  1
  C  C413  1  0.94820000  0.52120000  0.94870000  1
  C  C414  1  0.58190000  0.52120000  0.94870000  1
  C  C415  1  0.58750000  0.52110000  0.30390000  1
  C  C416  1  0.94860000  0.52090000  0.00960000  1
  C  C417  1  0.52090000  0.52090000  0.00960000  1
  C  C418  1  0.94820000  0.51490000  0.89140000  1
  C  C419  1  0.64550000  0.51490000  0.89140000  1
  C  C420  1  0.76290000  0.50550000  0.29280000  1
  C  C421  1  0.43880000  0.50550000  0.29280000  1
  C  C422  1  0.93370000  0.50490000  0.80830000  1
  C  C423  1  0.75310000  0.50490000  0.80830000  1
  C  C424  1  0.93160000  0.50460000  0.12390000  1
  C  C425  1  0.43990000  0.50460000  0.12390000  1
  C  C426  1  0.69340000  0.50390000  0.29880000  1
  C  C427  1  0.50390000  0.50390000  0.29880000  1
  C  C428  1  0.31060000  0.50310000  0.13170000  1
  C  C429  1  0.05460000  0.50310000  0.13170000  1
  C  C430  1  0.50015000  0.50015000  0.93970000  1
  C  C431  1  0.06000000  0.50015000  0.93970000  1
  C  C432  1  0.94000000  0.49985000  0.06030000  1
  C  C433  1  0.49985000  0.49985000  0.06030000  1
  C  C434  1  0.94540000  0.49690000  0.86830000  1
  C  C435  1  0.68940000  0.49690000  0.86830000  1
  C  C436  1  0.49610000  0.49610000  0.70120000  1
  C  C437  1  0.30660000  0.49610000  0.70120000  1
  C  C438  1  0.56010000  0.49540000  0.87610000  1
  C  C439  1  0.06840000  0.49540000  0.87610000  1
  C  C440  1  0.24690000  0.49510000  0.19170000  1
  C  C441  1  0.06630000  0.49510000  0.19170000  1
  C  C442  1  0.56120000  0.49450000  0.70720000  1
  C  C443  1  0.23710000  0.49450000  0.70720000  1
  C  C444  1  0.35450000  0.48510000  0.10860000  1
  C  C445  1  0.05180000  0.48510000  0.10860000  1
  C  C446  1  0.47910000  0.47910000  0.99040000  1
  C  C447  1  0.05140000  0.47910000  0.99040000  1
  C  C448  1  0.41250000  0.47890000  0.69610000  1
  C  C449  1  0.41810000  0.47880000  0.05130000  1
  C  C450  1  0.05180000  0.47880000  0.05130000  1
  C  C451  1  0.47860000  0.47860000  0.69520000  1
  C  C452  1  0.34760000  0.47860000  0.69520000  1
  C  C453  1  0.53960000  0.47640000  0.70450000  1
  C  C454  1  0.27950000  0.47640000  0.70450000  1
  C  C455  1  0.54180000  0.47590000  0.91930000  1
  C  C456  1  0.06300000  0.47590000  0.91930000  1
  C  C457  1  0.28920000  0.47580000  0.17430000  1
  C  C458  1  0.06070000  0.47580000  0.17430000  1
  C  C459  1  0.92910000  0.46465000  0.14160000  1
  C  C460  1  0.46465000  0.46465000  0.14160000  1
  C  C461  1  0.77680000  0.46430000  0.29460000  1
  C  C462  1  0.46430000  0.46430000  0.29460000  1
  C  C463  1  0.93040000  0.46230000  0.83140000  1
  C  C464  1  0.77590000  0.46230000  0.83140000  1
  C  C465  1  0.72050000  0.46040000  0.29550000  1
  C  C466  1  0.52360000  0.46040000  0.29550000  1
  C  C467  1  0.93890000  0.45840000  0.89170000  1
  C  C468  1  0.71100000  0.45840000  0.89170000  1
  C  C469  1  0.93700000  0.45820000  0.08070000  1
  C  C470  1  0.52410000  0.45820000  0.08070000  1
  C  C471  1  0.82180000  0.44480000  0.28860000  1
  C  C472  1  0.44480000  0.44480000  0.28860000  1
  C  C473  1  0.92140000  0.44060000  0.81010000  1
  C  C474  1  0.82790000  0.44060000  0.81010000  1
  C  C475  1  0.93030000  0.44010000  0.87370000  1
  C  C476  1  0.75590000  0.44010000  0.87370000  1
  C  C477  1  0.93160000  0.43990000  0.12390000  1
  C  C478  1  0.50460000  0.43990000  0.12390000  1
  C  C479  1  0.92660000  0.43980000  0.19380000  1
  C  C480  1  0.43980000  0.43980000  0.19380000  1
  C  C481  1  0.76290000  0.43880000  0.29280000  1
  C  C482  1  0.50550000  0.43880000  0.29280000  1
  C  C483  1  0.42035000  0.42035000  0.11130000  1
  C  C484  1  0.04800000  0.42035000  0.11130000  1
  C  C485  1  0.47880000  0.41810000  0.05130000  1
  C  C486  1  0.05180000  0.41810000  0.05130000  1
  C  C487  1  0.47890000  0.41250000  0.69610000  1
  C  C488  1  0.41250000  0.41250000  0.69610000  1
  C  C489  1  0.88460000  0.37690000  0.42460000  1
  C  C490  1  0.31390000  0.37690000  0.42460000  1
  C  C491  1  0.89010000  0.37540000  0.67810000  1
  C  C492  1  0.05640000  0.37540000  0.67810000  1
  C  C493  1  0.90800000  0.37420000  0.34360000  1
  C  C494  1  0.37420000  0.37420000  0.34360000  1
  C  C495  1  0.31010000  0.37420000  0.26130000  1
  C  C496  1  0.05440000  0.37420000  0.26130000  1
  C  C497  1  0.99510000  0.37210000  0.26070000  1
  C  C498  1  0.37210000  0.37210000  0.26070000  1
  C  C499  1  0.98810000  0.37190000  0.74470000  1
  C  C500  1  0.89530000  0.37190000  0.74470000  1
  C  C501  1  0.88430000  0.35770000  0.40030000  1
  C  C502  1  0.35770000  0.35770000  0.40030000  1
  C  C503  1  0.89110000  0.35680000  0.71890000  1
  C  C504  1  0.03320000  0.35680000  0.71890000  1
  C  C505  1  0.88340000  0.35570000  0.65890000  1
  C  C506  1  0.10200000  0.35570000  0.65890000  1
  C  C507  1  0.88650000  0.35450000  0.47200000  1
  C  C508  1  0.48510000  0.35450000  0.10860000  1
  C  C509  1  0.28700000  0.35450000  0.47200000  1
  C  C510  1  0.05180000  0.35450000  0.10860000  1
  C  C511  1  0.29090000  0.35220000  0.26100000  1
  C  C512  1  0.09590000  0.35220000  0.26100000  1
  C  C513  1  0.35170000  0.35170000  0.25590000  1
  C  C514  1  0.04070000  0.35170000  0.25590000  1
  C  C515  1  0.47860000  0.34760000  0.69520000  1
  C  C516  1  0.88790000  0.31520000  0.73990000  1
  C  C517  1  0.05700000  0.31520000  0.73990000  1
  C  C518  1  0.88130000  0.31450000  0.67630000  1
  C  C519  1  0.12790000  0.31450000  0.67630000  1
  C  C520  1  0.88460000  0.31390000  0.42460000  1
  C  C521  1  0.37690000  0.31390000  0.42460000  1
  C  C522  1  0.31240000  0.31240000  0.25530000  1
  C  C523  1  0.11990000  0.31240000  0.25530000  1
  C  C524  1  0.88810000  0.31125000  0.48940000  1
  C  C525  1  0.31125000  0.31125000  0.48940000  1
  C  C526  1  0.50310000  0.31060000  0.13170000  1
  C  C527  1  0.05460000  0.31060000  0.13170000  1
  C  C528  1  0.37420000  0.31010000  0.26130000  1
  C  C529  1  0.05440000  0.31010000  0.26130000  1
  C  C530  1  0.49610000  0.30660000  0.70120000  1
  C  C531  1  0.87990000  0.29540000  0.60010000  1
  C  C532  1  0.22460000  0.29540000  0.60010000  1
  C  C533  1  0.88390000  0.29510000  0.71680000  1
  C  C534  1  0.10420000  0.29510000  0.71680000  1
  C  C535  1  0.87970000  0.29445000  0.53140000  1
  C  C536  1  0.29445000  0.29445000  0.53140000  1
  C  C537  1  0.87620000  0.29140000  0.66220000  1
  C  C538  1  0.17020000  0.29140000  0.66220000  1
  C  C539  1  0.22825000  0.29120000  0.25230000  1
  C  C540  1  0.35220000  0.29090000  0.26100000  1
  C  C541  1  0.09590000  0.29090000  0.26100000  1
  C  C542  1  0.47580000  0.28920000  0.17430000  1
  C  C543  1  0.06070000  0.28920000  0.17430000  1
  C  C544  1  0.54160000  0.28900000  0.10830000  1
  C  C545  1  0.06110000  0.28900000  0.10830000  1
  C  C546  1  0.28770000  0.28770000  0.25290000  1
  C  C547  1  0.17170000  0.28770000  0.25290000  1
  C  C548  1  0.88650000  0.28700000  0.47200000  1
  C  C549  1  0.35450000  0.28700000  0.47200000  1
  C  C550  1  0.53960000  0.27950000  0.70450000  1
  C  C551  1  0.47640000  0.27950000  0.70450000  1
  C  C552  1  0.49510000  0.24690000  0.19170000  1
  C  C553  1  0.06630000  0.24690000  0.19170000  1
  C  C554  1  0.55990000  0.24410000  0.12630000  1
  C  C555  1  0.06970000  0.24410000  0.12630000  1
  C  C556  1  0.56120000  0.23710000  0.70720000  1
  C  C557  1  0.49450000  0.23710000  0.70720000  1
  C  C558  1  0.87840000  0.23195000  0.65770000  1
  C  C559  1  0.23195000  0.23195000  0.65770000  1
  C  C560  1  0.29120000  0.22825000  0.25230000  1
  C  C561  1  0.22825000  0.22825000  0.25230000  1
  C  C562  1  0.87990000  0.22460000  0.60010000  1
  C  C563  1  0.29540000  0.22460000  0.60010000  1
  C  C564  1  0.53770000  0.22410000  0.16860000  1
  C  C565  1  0.06960000  0.22410000  0.16860000  1
  C  C566  1  0.53570000  0.22320000  0.70540000  1
  C  C567  1  0.55520000  0.17820000  0.71140000  1
  C  C568  1  0.55940000  0.17210000  0.18990000  1
  C  C569  1  0.07860000  0.17210000  0.18990000  1
  C  C570  1  0.28770000  0.17170000  0.25290000  1
  C  C571  1  0.87620000  0.17020000  0.66220000  1
  C  C572  1  0.29140000  0.17020000  0.66220000  1
  C  C573  1  0.88130000  0.12790000  0.67630000  1
  C  C574  1  0.31450000  0.12790000  0.67630000  1
  C  C575  1  0.82980000  0.12380000  0.33780000  1
  C  C576  1  0.70860000  0.12380000  0.33780000  1
  C  C577  1  0.76805000  0.12160000  0.34230000  1
  C  C578  1  0.70555000  0.12030000  0.46860000  1
  C  C579  1  0.77540000  0.12010000  0.39990000  1
  C  C580  1  0.70460000  0.12010000  0.39990000  1
  C  C581  1  0.31240000  0.11990000  0.25530000  1
  C  C582  1  0.87210000  0.11870000  0.32370000  1
  C  C583  1  0.68550000  0.11870000  0.32370000  1
  C  C584  1  0.89800000  0.11660000  0.34110000  1
  C  C585  1  0.64430000  0.11660000  0.34110000  1
  C  C586  1  0.89580000  0.11610000  0.28320000  1
  C  C587  1  0.70490000  0.11610000  0.28320000  1
  C  C588  1  0.64230000  0.11570000  0.59970000  1
  C  C589  1  0.68610000  0.11540000  0.57540000  1
  C  C590  1  0.62310000  0.11540000  0.57540000  1
  C  C591  1  0.71300000  0.11350000  0.52800000  1
  C  C592  1  0.64550000  0.11350000  0.52800000  1
  C  C593  1  0.94300000  0.11210000  0.26010000  1
  C  C594  1  0.68480000  0.11210000  0.26010000  1
  C  C595  1  0.68875000  0.11190000  0.51060000  1
  C  C596  1  0.94360000  0.10990000  0.32190000  1
  C  C597  1  0.62460000  0.10990000  0.32190000  1
  C  C598  1  0.96680000  0.10890000  0.28110000  1
  C  C599  1  0.64320000  0.10890000  0.28110000  1
  C  C600  1  0.62810000  0.10470000  0.25530000  1
  C  C601  1  0.01190000  0.10470000  0.25530000  1
  C  C602  1  0.88390000  0.10420000  0.71680000  1
  C  C603  1  0.29510000  0.10420000  0.71680000  1
  C  C604  1  0.88340000  0.10200000  0.65890000  1
  C  C605  1  0.35570000  0.10200000  0.65890000  1
  C  C606  1  0.35220000  0.09590000  0.26100000  1
  C  C607  1  0.29090000  0.09590000  0.26100000  1
  C  C608  1  0.62580000  0.09200000  0.65640000  1
  C  C609  1  0.55940000  0.07860000  0.18990000  1
  C  C610  1  0.17210000  0.07860000  0.18990000  1
  C  C611  1  0.56020000  0.07340000  0.80620000  1
  C  C612  1  0.53535000  0.07090000  0.85840000  1
  C  C613  1  0.55990000  0.06970000  0.12630000  1
  C  C614  1  0.24410000  0.06970000  0.12630000  1
  C  C615  1  0.53770000  0.06960000  0.16860000  1
  C  C616  1  0.22410000  0.06960000  0.16860000  1
  C  C617  1  0.56010000  0.06840000  0.87610000  1
  C  C618  1  0.49540000  0.06840000  0.87610000  1
  C  C619  1  0.49510000  0.06630000  0.19170000  1
  C  C620  1  0.24690000  0.06630000  0.19170000  1
  C  C621  1  0.54180000  0.06300000  0.91930000  1
  C  C622  1  0.47590000  0.06300000  0.91930000  1
  C  C623  1  0.54160000  0.06110000  0.10830000  1
  C  C624  1  0.28900000  0.06110000  0.10830000  1
  C  C625  1  0.47580000  0.06070000  0.17430000  1
  C  C626  1  0.28920000  0.06070000  0.17430000  1
  C  C627  1  0.50015000  0.06000000  0.93970000  1
  C  C628  1  0.88790000  0.05700000  0.73990000  1
  C  C629  1  0.31520000  0.05700000  0.73990000  1
  C  C630  1  0.89010000  0.05640000  0.67810000  1
  C  C631  1  0.37540000  0.05640000  0.67810000  1
  C  C632  1  0.50310000  0.05460000  0.13170000  1
  C  C633  1  0.31060000  0.05460000  0.13170000  1
  C  C634  1  0.37420000  0.05440000  0.26130000  1
  C  C635  1  0.31010000  0.05440000  0.26130000  1
  C  C636  1  0.48510000  0.05180000  0.10860000  1
  C  C637  1  0.47880000  0.05180000  0.05130000  1
  C  C638  1  0.41810000  0.05180000  0.05130000  1
  C  C639  1  0.35450000  0.05180000  0.10860000  1
  C  C640  1  0.47910000  0.05140000  0.99040000  1
  C  C641  1  0.42035000  0.04800000  0.11130000  1
  C  C642  1  0.35170000  0.04070000  0.25590000  1
  C  C643  1  0.89110000  0.03320000  0.71890000  1
  C  C644  1  0.35680000  0.03320000  0.71890000  1
  C  C645  1  0.62810000  0.01190000  0.25530000  1
  C  C646  1  0.10470000  0.01190000  0.25530000  1
  C  C647  1  0.62790000  0.00490000  0.73930000  1
  N  N648  1  0.62180000  0.94930000  0.86980000  1
  N  N649  1  0.55910000  0.94930000  0.86980000  1
  N  N650  1  0.56170000  0.94830000  0.99130000  1
  N  N651  1  0.55975000  0.94830000  0.93220000  1
  N  N652  1  0.49870000  0.94830000  0.99130000  1
  N  N653  1  0.62180000  0.94730000  0.93400000  1
  N  N654  1  0.49690000  0.94730000  0.93400000  1
  N  N655  1  0.25210000  0.88070000  0.61510000  1
  N  N656  1  0.31580000  0.87790000  0.55390000  1
  N  N657  1  0.25240000  0.87790000  0.55390000  1
  N  N658  1  0.25150000  0.87680000  0.68020000  1
  N  N659  1  0.19150000  0.87680000  0.68020000  1
  N  N660  1  0.31800000  0.87500000  0.62200000  1
  N  N661  1  0.18500000  0.87500000  0.62200000  1
  N  N662  1  0.68200000  0.81500000  0.37800000  1
  N  N663  1  0.12500000  0.81500000  0.37800000  1
  N  N664  1  0.75350000  0.81090000  0.74770000  1
  N  N665  1  0.68790000  0.81090000  0.74770000  1
  N  N666  1  0.74850000  0.80850000  0.31980000  1
  N  N667  1  0.12320000  0.80850000  0.31980000  1
  N  N668  1  0.81090000  0.75350000  0.74770000  1
  N  N669  1  0.68790000  0.75350000  0.74770000  1
  N  N670  1  0.75087000  0.75087000  0.74739000  1
  N  N671  1  0.80850000  0.74850000  0.31980000  1
  N  N672  1  0.12320000  0.74850000  0.31980000  1
  N  N673  1  0.74790000  0.74790000  0.38490000  1
  N  N674  1  0.11930000  0.74790000  0.38490000  1
  N  N675  1  0.68420000  0.74760000  0.44610000  1
  N  N676  1  0.12210000  0.74760000  0.44610000  1
  N  N677  1  0.81090000  0.68790000  0.74770000  1
  N  N678  1  0.75350000  0.68790000  0.74770000  1
  N  N679  1  0.74760000  0.68420000  0.44610000  1
  N  N680  1  0.12210000  0.68420000  0.44610000  1
  N  N681  1  0.81500000  0.68200000  0.37800000  1
  N  N682  1  0.12500000  0.68200000  0.37800000  1
  N  N683  1  0.56050000  0.63040000  0.30240000  1
  N  N684  1  0.50670000  0.63040000  0.30240000  1
  N  N685  1  0.94930000  0.62180000  0.86980000  1
  N  N686  1  0.94730000  0.62180000  0.93400000  1
  N  N687  1  0.55910000  0.62180000  0.86980000  1
  N  N688  1  0.49690000  0.62180000  0.93400000  1
  N  N689  1  0.56497000  0.56497000  0.30509000  1
  N  N690  1  0.94830000  0.56170000  0.99130000  1
  N  N691  1  0.49870000  0.56170000  0.99130000  1
  N  N692  1  0.63040000  0.56050000  0.30240000  1
  N  N693  1  0.50670000  0.56050000  0.30240000  1
  N  N694  1  0.94830000  0.55975000  0.93220000  1
  N  N695  1  0.55975000  0.55975000  0.93220000  1
  N  N696  1  0.94930000  0.55910000  0.86980000  1
  N  N697  1  0.62180000  0.55910000  0.86980000  1
  N  N698  1  0.63040000  0.50670000  0.30240000  1
  N  N699  1  0.56050000  0.50670000  0.30240000  1
  N  N700  1  0.37820000  0.50310000  0.06600000  1
  N  N701  1  0.05270000  0.50310000  0.06600000  1
  N  N702  1  0.43830000  0.50130000  0.00870000  1
  N  N703  1  0.05170000  0.50130000  0.00870000  1
  N  N704  1  0.94830000  0.49870000  0.99130000  1
  N  N705  1  0.56170000  0.49870000  0.99130000  1
  N  N706  1  0.94730000  0.49690000  0.93400000  1
  N  N707  1  0.62180000  0.49690000  0.93400000  1
  N  N708  1  0.43950000  0.49330000  0.69760000  1
  N  N709  1  0.36960000  0.49330000  0.69760000  1
  N  N710  1  0.37820000  0.44090000  0.13020000  1
  N  N711  1  0.05070000  0.44090000  0.13020000  1
  N  N712  1  0.44025000  0.44025000  0.06780000  1
  N  N713  1  0.05170000  0.44025000  0.06780000  1
  N  N714  1  0.49330000  0.43950000  0.69760000  1
  N  N715  1  0.36960000  0.43950000  0.69760000  1
  N  N716  1  0.50130000  0.43830000  0.00870000  1
  N  N717  1  0.05170000  0.43830000  0.00870000  1
  N  N718  1  0.43503000  0.43503000  0.69491000  1
  N  N719  1  0.50310000  0.37820000  0.06600000  1
  N  N720  1  0.44090000  0.37820000  0.13020000  1
  N  N721  1  0.05270000  0.37820000  0.06600000  1
  N  N722  1  0.05070000  0.37820000  0.13020000  1
  N  N723  1  0.49330000  0.36960000  0.69760000  1
  N  N724  1  0.43950000  0.36960000  0.69760000  1
  N  N725  1  0.87500000  0.31800000  0.62200000  1
  N  N726  1  0.18500000  0.31800000  0.62200000  1
  N  N727  1  0.87790000  0.31580000  0.55390000  1
  N  N728  1  0.25240000  0.31580000  0.55390000  1
  N  N729  1  0.24650000  0.31210000  0.25230000  1
  N  N730  1  0.18910000  0.31210000  0.25230000  1
  N  N731  1  0.87790000  0.25240000  0.55390000  1
  N  N732  1  0.31580000  0.25240000  0.55390000  1
  N  N733  1  0.88070000  0.25210000  0.61510000  1
  N  N734  1  0.25210000  0.25210000  0.61510000  1
  N  N735  1  0.87680000  0.25150000  0.68020000  1
  N  N736  1  0.19150000  0.25150000  0.68020000  1
  N  N737  1  0.24913000  0.24913000  0.25261000  1
  N  N738  1  0.31210000  0.24650000  0.25230000  1
  N  N739  1  0.18910000  0.24650000  0.25230000  1
  N  N740  1  0.87680000  0.19150000  0.68020000  1
  N  N741  1  0.25150000  0.19150000  0.68020000  1
  N  N742  1  0.31210000  0.18910000  0.25230000  1
  N  N743  1  0.24650000  0.18910000  0.25230000  1
  N  N744  1  0.87500000  0.18500000  0.62200000  1
  N  N745  1  0.31800000  0.18500000  0.62200000  1
  N  N746  1  0.81500000  0.12500000  0.37800000  1
  N  N747  1  0.68200000  0.12500000  0.37800000  1
  N  N748  1  0.80850000  0.12320000  0.31980000  1
  N  N749  1  0.74850000  0.12320000  0.31980000  1
  N  N750  1  0.74760000  0.12210000  0.44610000  1
  N  N751  1  0.68420000  0.12210000  0.44610000  1
  N  N752  1  0.74790000  0.11930000  0.38490000  1
  N  N753  1  0.50310000  0.05270000  0.06600000  1
  N  N754  1  0.37820000  0.05270000  0.06600000  1
  N  N755  1  0.50130000  0.05170000  0.00870000  1
  N  N756  1  0.44025000  0.05170000  0.06780000  1
  N  N757  1  0.43830000  0.05170000  0.00870000  1
  N  N758  1  0.44090000  0.05070000  0.13020000  1
  N  N759  1  0.37820000  0.05070000  0.13020000  1
  O  O760  1  0.89704000  0.97094000  0.71848000  1
  O  O761  1  0.41354000  0.97094000  0.71848000  1
  O  O762  1  0.89710000  0.97090000  0.77980000  1
  O  O763  1  0.35220000  0.97090000  0.77980000  1
  O  O764  1  0.41540000  0.96520000  0.26640000  1
  O  O765  1  0.35300000  0.96520000  0.26640000  1
  O  O766  1  0.46270000  0.92080000  0.21240000  1
  O  O767  1  0.40410000  0.92080000  0.21240000  1
  O  O768  1  0.84560000  0.91930000  0.83230000  1
  O  O769  1  0.40280000  0.91930000  0.83230000  1
  O  O770  1  0.84500000  0.91800000  0.77410000  1
  O  O771  1  0.46290000  0.91800000  0.77410000  1
  O  O772  1  0.97090000  0.89710000  0.77980000  1
  O  O773  1  0.35220000  0.89710000  0.77980000  1
  O  O774  1  0.97094000  0.89704000  0.71848000  1
  O  O775  1  0.41354000  0.89704000  0.71848000  1
  O  O776  1  0.41510000  0.89200000  0.34060000  1
  O  O777  1  0.35230000  0.89200000  0.34060000  1
  O  O778  1  0.46340000  0.84670000  0.28380000  1
  O  O779  1  0.40610000  0.84670000  0.28380000  1
  O  O780  1  0.91930000  0.84560000  0.83230000  1
  O  O781  1  0.40280000  0.84560000  0.83230000  1
  O  O782  1  0.91800000  0.84500000  0.77410000  1
  O  O783  1  0.46290000  0.84500000  0.77410000  1
  O  O784  1  0.10290000  0.64780000  0.22020000  1
  O  O785  1  0.02910000  0.64780000  0.22020000  1
  O  O786  1  0.58490000  0.64770000  0.65940000  1
  O  O787  1  0.10800000  0.64770000  0.65940000  1
  O  O788  1  0.58460000  0.64700000  0.73360000  1
  O  O789  1  0.03480000  0.64700000  0.73360000  1
  O  O790  1  0.15440000  0.59720000  0.16770000  1
  O  O791  1  0.08070000  0.59720000  0.16770000  1
  O  O792  1  0.53730000  0.59590000  0.78760000  1
  O  O793  1  0.07920000  0.59590000  0.78760000  1
  O  O794  1  0.53660000  0.59390000  0.71620000  1
  O  O795  1  0.15330000  0.59390000  0.71620000  1
  O  O796  1  0.10296000  0.58646000  0.28152000  1
  O  O797  1  0.02906000  0.58646000  0.28152000  1
  O  O798  1  0.64770000  0.58490000  0.65940000  1
  O  O799  1  0.10800000  0.58490000  0.65940000  1
  O  O800  1  0.64700000  0.58460000  0.73360000  1
  O  O801  1  0.03480000  0.58460000  0.73360000  1
  O  O802  1  0.59590000  0.53730000  0.78760000  1
  O  O803  1  0.07920000  0.53730000  0.78760000  1
  O  O804  1  0.15500000  0.53710000  0.22590000  1
  O  O805  1  0.08200000  0.53710000  0.22590000  1
  O  O806  1  0.59390000  0.53660000  0.71620000  1
  O  O807  1  0.15330000  0.53660000  0.71620000  1
  O  O808  1  0.84670000  0.46340000  0.28380000  1
  O  O809  1  0.40610000  0.46340000  0.28380000  1
  O  O810  1  0.91800000  0.46290000  0.77410000  1
  O  O811  1  0.84500000  0.46290000  0.77410000  1
  O  O812  1  0.92080000  0.46270000  0.21240000  1
  O  O813  1  0.40410000  0.46270000  0.21240000  1
  O  O814  1  0.96520000  0.41540000  0.26640000  1
  O  O815  1  0.35300000  0.41540000  0.26640000  1
  O  O816  1  0.89200000  0.41510000  0.34060000  1
  O  O817  1  0.35230000  0.41510000  0.34060000  1
  O  O818  1  0.97094000  0.41354000  0.71848000  1
  O  O819  1  0.89704000  0.41354000  0.71848000  1
  O  O820  1  0.84670000  0.40610000  0.28380000  1
  O  O821  1  0.46340000  0.40610000  0.28380000  1
  O  O822  1  0.92080000  0.40410000  0.21240000  1
  O  O823  1  0.46270000  0.40410000  0.21240000  1
  O  O824  1  0.91930000  0.40280000  0.83230000  1
  O  O825  1  0.84560000  0.40280000  0.83230000  1
  O  O826  1  0.96520000  0.35300000  0.26640000  1
  O  O827  1  0.41540000  0.35300000  0.26640000  1
  O  O828  1  0.89200000  0.35230000  0.34060000  1
  O  O829  1  0.41510000  0.35230000  0.34060000  1
  O  O830  1  0.97090000  0.35220000  0.77980000  1
  O  O831  1  0.89710000  0.35220000  0.77980000  1
  O  O832  1  0.53710000  0.15500000  0.22590000  1
  O  O833  1  0.08200000  0.15500000  0.22590000  1
  O  O834  1  0.59720000  0.15440000  0.16770000  1
  O  O835  1  0.08070000  0.15440000  0.16770000  1
  O  O836  1  0.59390000  0.15330000  0.71620000  1
  O  O837  1  0.53660000  0.15330000  0.71620000  1
  O  O838  1  0.64770000  0.10800000  0.65940000  1
  O  O839  1  0.58490000  0.10800000  0.65940000  1
  O  O840  1  0.58646000  0.10296000  0.28152000  1
  O  O841  1  0.02906000  0.10296000  0.28152000  1
  O  O842  1  0.64780000  0.10290000  0.22020000  1
  O  O843  1  0.02910000  0.10290000  0.22020000  1
  O  O844  1  0.53710000  0.08200000  0.22590000  1
  O  O845  1  0.15500000  0.08200000  0.22590000  1
  O  O846  1  0.59720000  0.08070000  0.16770000  1
  O  O847  1  0.15440000  0.08070000  0.16770000  1
  O  O848  1  0.59590000  0.07920000  0.78760000  1
  O  O849  1  0.53730000  0.07920000  0.78760000  1
  O  O850  1  0.64700000  0.03480000  0.73360000  1
  O  O851  1  0.58460000  0.03480000  0.73360000  1
  O  O852  1  0.64780000  0.02910000  0.22020000  1
  O  O853  1  0.10290000  0.02910000  0.22020000  1
  O  O854  1  0.58646000  0.02906000  0.28152000  1
  O  O855  1  0.10296000  0.02906000  0.28152000  1
