# generated using pymatgen
data_Sr3H8C16(NO7)2
_symmetry_space_group_name_H-M   'P 1'
_cell_length_a   6.82000000
_cell_length_b   16.49300000
_cell_length_c   22.22000000
_cell_angle_alpha   90.00000000
_cell_angle_beta   90.00000000
_cell_angle_gamma   90.00000000
_symmetry_Int_Tables_number   1
_chemical_formula_structural   Sr3H8C16(NO7)2
_chemical_formula_sum   'Sr12 H32 C64 N8 O56'
_cell_volume   2499.35581720
_cell_formula_units_Z   4
loop_
 _symmetry_equiv_pos_site_id
 _symmetry_equiv_pos_as_xyz
  1  'x, y, z'
loop_
 _atom_site_type_symbol
 _atom_site_label
 _atom_site_symmetry_multiplicity
 _atom_site_fract_x
 _atom_site_fract_y
 _atom_site_fract_z
 _atom_site_occupancy
  Sr  Sr0  1  0.04403000  0.05797000  0.91306000  1
  Sr  Sr1  1  0.04403000  0.94203000  0.58694000  1
  Sr  Sr2  1  0.24167000  0.00000000  0.75000000  1
  Sr  Sr3  1  0.25833000  0.50000000  0.25000000  1
  Sr  Sr4  1  0.45597000  0.44203000  0.41306000  1
  Sr  Sr5  1  0.45597000  0.55797000  0.08694000  1
  Sr  Sr6  1  0.54403000  0.44203000  0.91306000  1
  Sr  Sr7  1  0.54403000  0.55797000  0.58694000  1
  Sr  Sr8  1  0.74167000  0.50000000  0.75000000  1
  Sr  Sr9  1  0.75833000  0.00000000  0.25000000  1
  Sr  Sr10  1  0.95597000  0.05797000  0.41306000  1
  Sr  Sr11  1  0.95597000  0.94203000  0.08694000  1
  H  H12  1  0.03340000  0.25290000  0.09060000  1
  H  H13  1  0.03340000  0.74710000  0.40940000  1
  H  H14  1  0.19500000  0.46700000  0.00760000  1
  H  H15  1  0.19500000  0.53300000  0.49240000  1
  H  H16  1  0.20050000  0.16230000  0.25030000  1
  H  H17  1  0.20050000  0.83770000  0.24970000  1
  H  H18  1  0.20500000  0.46900000  0.52600000  1
  H  H19  1  0.20500000  0.53100000  0.97400000  1
  H  H20  1  0.29500000  0.03100000  0.02600000  1
  H  H21  1  0.29500000  0.96900000  0.47400000  1
  H  H22  1  0.29950000  0.33770000  0.75030000  1
  H  H23  1  0.29950000  0.66230000  0.74970000  1
  H  H24  1  0.30500000  0.03300000  0.50760000  1
  H  H25  1  0.30500000  0.96700000  0.99240000  1
  H  H26  1  0.46660000  0.24710000  0.59060000  1
  H  H27  1  0.46660000  0.75290000  0.90940000  1
  H  H28  1  0.53340000  0.24710000  0.09060000  1
  H  H29  1  0.53340000  0.75290000  0.40940000  1
  H  H30  1  0.69500000  0.03300000  0.00760000  1
  H  H31  1  0.69500000  0.96700000  0.49240000  1
  H  H32  1  0.70050000  0.33770000  0.25030000  1
  H  H33  1  0.70050000  0.66230000  0.24970000  1
  H  H34  1  0.70500000  0.03100000  0.52600000  1
  H  H35  1  0.70500000  0.96900000  0.97400000  1
  H  H36  1  0.79500000  0.46900000  0.02600000  1
  H  H37  1  0.79500000  0.53100000  0.47400000  1
  H  H38  1  0.79950000  0.16230000  0.75030000  1
  H  H39  1  0.79950000  0.83770000  0.74970000  1
  H  H40  1  0.80500000  0.46700000  0.50760000  1
  H  H41  1  0.80500000  0.53300000  0.99240000  1
  H  H42  1  0.96660000  0.25290000  0.59060000  1
  H  H43  1  0.96660000  0.74710000  0.90940000  1
  C  C44  1  0.05860000  0.10840000  0.14480000  1
  C  C45  1  0.05860000  0.89160000  0.35520000  1
  C  C46  1  0.07670000  0.25960000  0.12990000  1
  C  C47  1  0.07670000  0.74040000  0.37010000  1
  C  C48  1  0.08380000  0.41090000  0.11280000  1
  C  C49  1  0.08380000  0.58910000  0.38720000  1
  C  C50  1  0.10630000  0.19290000  0.16650000  1
  C  C51  1  0.10630000  0.80710000  0.33350000  1
  C  C52  1  0.11220000  0.33640000  0.15240000  1
  C  C53  1  0.11220000  0.66360000  0.34760000  1
  C  C54  1  0.17630000  0.20590000  0.22480000  1
  C  C55  1  0.17630000  0.79410000  0.27520000  1
  C  C56  1  0.20810000  0.19630000  0.80600000  1
  C  C57  1  0.20810000  0.80370000  0.69400000  1
  C  C58  1  0.20920000  0.28470000  0.24410000  1
  C  C59  1  0.20920000  0.71530000  0.25590000  1
  C  C60  1  0.29080000  0.21530000  0.74410000  1
  C  C61  1  0.29080000  0.78470000  0.75590000  1
  C  C62  1  0.29190000  0.30370000  0.30600000  1
  C  C63  1  0.29190000  0.69630000  0.19400000  1
  C  C64  1  0.32370000  0.29410000  0.72480000  1
  C  C65  1  0.32370000  0.70590000  0.77520000  1
  C  C66  1  0.38780000  0.16360000  0.65240000  1
  C  C67  1  0.38780000  0.83640000  0.84760000  1
  C  C68  1  0.39370000  0.30710000  0.66650000  1
  C  C69  1  0.39370000  0.69290000  0.83350000  1
  C  C70  1  0.41620000  0.08910000  0.61280000  1
  C  C71  1  0.41620000  0.91090000  0.88720000  1
  C  C72  1  0.42330000  0.24040000  0.62990000  1
  C  C73  1  0.42330000  0.75960000  0.87010000  1
  C  C74  1  0.44140000  0.39160000  0.64480000  1
  C  C75  1  0.44140000  0.60840000  0.85520000  1
  C  C76  1  0.55860000  0.39160000  0.14480000  1
  C  C77  1  0.55860000  0.60840000  0.35520000  1
  C  C78  1  0.57670000  0.24040000  0.12990000  1
  C  C79  1  0.57670000  0.75960000  0.37010000  1
  C  C80  1  0.58380000  0.08910000  0.11280000  1
  C  C81  1  0.58380000  0.91090000  0.38720000  1
  C  C82  1  0.60630000  0.30710000  0.16650000  1
  C  C83  1  0.60630000  0.69290000  0.33350000  1
  C  C84  1  0.61220000  0.16360000  0.15240000  1
  C  C85  1  0.61220000  0.83640000  0.34760000  1
  C  C86  1  0.67630000  0.29410000  0.22480000  1
  C  C87  1  0.67630000  0.70590000  0.27520000  1
  C  C88  1  0.70810000  0.30370000  0.80600000  1
  C  C89  1  0.70810000  0.69630000  0.69400000  1
  C  C90  1  0.70920000  0.21530000  0.24410000  1
  C  C91  1  0.70920000  0.78470000  0.25590000  1
  C  C92  1  0.79080000  0.28470000  0.74410000  1
  C  C93  1  0.79080000  0.71530000  0.75590000  1
  C  C94  1  0.79190000  0.19630000  0.30600000  1
  C  C95  1  0.79190000  0.80370000  0.19400000  1
  C  C96  1  0.82370000  0.20590000  0.72480000  1
  C  C97  1  0.82370000  0.79410000  0.77520000  1
  C  C98  1  0.88780000  0.33640000  0.65240000  1
  C  C99  1  0.88780000  0.66360000  0.84760000  1
  C  C100  1  0.89370000  0.19290000  0.66650000  1
  C  C101  1  0.89370000  0.80710000  0.83350000  1
  C  C102  1  0.91620000  0.41090000  0.61280000  1
  C  C103  1  0.91620000  0.58910000  0.88720000  1
  C  C104  1  0.92330000  0.25960000  0.62990000  1
  C  C105  1  0.92330000  0.74040000  0.87010000  1
  C  C106  1  0.94140000  0.10840000  0.64480000  1
  C  C107  1  0.94140000  0.89160000  0.85520000  1
  N  N108  1  0.17620000  0.34930000  0.20877000  1
  N  N109  1  0.17620000  0.65070000  0.29123000  1
  N  N110  1  0.32380000  0.15070000  0.70877000  1
  N  N111  1  0.32380000  0.84930000  0.79123000  1
  N  N112  1  0.67620000  0.15070000  0.20877000  1
  N  N113  1  0.67620000  0.84930000  0.29123000  1
  N  N114  1  0.82380000  0.34930000  0.70877000  1
  N  N115  1  0.82380000  0.65070000  0.79123000  1
  O  O116  1  0.01740000  0.40040000  0.06154000  1
  O  O117  1  0.01740000  0.59960000  0.43846000  1
  O  O118  1  0.01850000  0.10000000  0.08977000  1
  O  O119  1  0.01850000  0.90000000  0.41023000  1
  O  O120  1  0.05580000  0.05080000  0.18172000  1
  O  O121  1  0.05580000  0.94920000  0.31828000  1
  O  O122  1  0.13650000  0.47840000  0.13488000  1
  O  O123  1  0.13650000  0.52160000  0.36512000  1
  O  O124  1  0.16790000  0.12290000  0.81654000  1
  O  O125  1  0.16790000  0.87710000  0.68346000  1
  O  O126  1  0.18230000  0.25210000  0.84167000  1
  O  O127  1  0.18230000  0.74790000  0.65833000  1
  O  O128  1  0.22870000  0.00130000  0.49277000  1
  O  O129  1  0.22870000  0.99870000  0.00723000  1
  O  O130  1  0.27130000  0.49870000  0.99277000  1
  O  O131  1  0.27130000  0.50130000  0.50723000  1
  O  O132  1  0.31770000  0.24790000  0.34167000  1
  O  O133  1  0.31770000  0.75210000  0.15833000  1
  O  O134  1  0.33210000  0.37710000  0.31654000  1
  O  O135  1  0.33210000  0.62290000  0.18346000  1
  O  O136  1  0.36350000  0.02160000  0.63488000  1
  O  O137  1  0.36350000  0.97840000  0.86512000  1
  O  O138  1  0.44420000  0.44920000  0.68172000  1
  O  O139  1  0.44420000  0.55080000  0.81828000  1
  O  O140  1  0.48150000  0.40000000  0.58977000  1
  O  O141  1  0.48150000  0.60000000  0.91023000  1
  O  O142  1  0.48260000  0.09960000  0.56154000  1
  O  O143  1  0.48260000  0.90040000  0.93846000  1
  O  O144  1  0.51740000  0.09960000  0.06154000  1
  O  O145  1  0.51740000  0.90040000  0.43846000  1
  O  O146  1  0.51850000  0.40000000  0.08977000  1
  O  O147  1  0.51850000  0.60000000  0.41023000  1
  O  O148  1  0.55580000  0.44920000  0.18172000  1
  O  O149  1  0.55580000  0.55080000  0.31828000  1
  O  O150  1  0.63650000  0.02160000  0.13488000  1
  O  O151  1  0.63650000  0.97840000  0.36512000  1
  O  O152  1  0.66790000  0.37710000  0.81654000  1
  O  O153  1  0.66790000  0.62290000  0.68346000  1
  O  O154  1  0.68230000  0.24790000  0.84167000  1
  O  O155  1  0.68230000  0.75210000  0.65833000  1
  O  O156  1  0.72870000  0.49870000  0.49277000  1
  O  O157  1  0.72870000  0.50130000  0.00723000  1
  O  O158  1  0.77130000  0.00130000  0.99277000  1
  O  O159  1  0.77130000  0.99870000  0.50723000  1
  O  O160  1  0.81770000  0.25210000  0.34167000  1
  O  O161  1  0.81770000  0.74790000  0.15833000  1
  O  O162  1  0.83210000  0.12290000  0.31654000  1
  O  O163  1  0.83210000  0.87710000  0.18346000  1
  O  O164  1  0.86350000  0.47840000  0.63488000  1
  O  O165  1  0.86350000  0.52160000  0.86512000  1
  O  O166  1  0.94420000  0.05080000  0.68172000  1
  O  O167  1  0.94420000  0.94920000  0.81828000  1
  O  O168  1  0.98150000  0.10000000  0.58977000  1
  O  O169  1  0.98150000  0.90000000  0.91023000  1
  O  O170  1  0.98260000  0.40040000  0.56154000  1
  O  O171  1  0.98260000  0.59960000  0.93846000  1
