# generated using pymatgen
data_CdH16(C13N3)2
_symmetry_space_group_name_H-M   'P 1'
_cell_length_a   17.57100000
_cell_length_b   17.57100000
_cell_length_c   23.40400000
_cell_angle_alpha   90.00000000
_cell_angle_beta   90.00000000
_cell_angle_gamma   90.00000000
_symmetry_Int_Tables_number   1
_chemical_formula_structural   CdH16(C13N3)2
_chemical_formula_sum   'Cd8 H128 C208 N48'
_cell_volume   7225.75191956
_cell_formula_units_Z   8
loop_
 _symmetry_equiv_pos_site_id
 _symmetry_equiv_pos_as_xyz
  1  'x, y, z'
loop_
 _atom_site_type_symbol
 _atom_site_label
 _atom_site_symmetry_multiplicity
 _atom_site_fract_x
 _atom_site_fract_y
 _atom_site_fract_z
 _atom_site_occupancy
  Cd  Cd0  1  0.25000000  0.25000000  0.06373000  1
  Cd  Cd1  1  0.25000000  0.25000000  0.56373000  1
  Cd  Cd2  1  0.25000000  0.75000000  0.00000000  1
  Cd  Cd3  1  0.25000000  0.75000000  0.50000000  1
  Cd  Cd4  1  0.75000000  0.25000000  0.00000000  1
  Cd  Cd5  1  0.75000000  0.25000000  0.50000000  1
  Cd  Cd6  1  0.75000000  0.75000000  0.43627000  1
  Cd  Cd7  1  0.75000000  0.75000000  0.93627000  1
  H  H8  1  0.05680000  0.10750000  0.03910000  1
  H  H9  1  0.05680000  0.39250000  0.53910000  1
  H  H10  1  0.07220000  0.60780000  0.48000000  1
  H  H11  1  0.07220000  0.89220000  0.98000000  1
  H  H12  1  0.10750000  0.05680000  0.53910000  1
  H  H13  1  0.10750000  0.44320000  0.03910000  1
  H  H14  1  0.10780000  0.57220000  0.02000000  1
  H  H15  1  0.10780000  0.92780000  0.52000000  1
  H  H16  1  0.15020000  0.19920000  0.26850000  1
  H  H17  1  0.15020000  0.30080000  0.76850000  1
  H  H18  1  0.15090000  0.19350000  0.85670000  1
  H  H19  1  0.15090000  0.30650000  0.35670000  1
  H  H20  1  0.15160000  0.69030000  0.70590000  1
  H  H21  1  0.15160000  0.80970000  0.20590000  1
  H  H22  1  0.15430000  0.19920000  0.17180000  1
  H  H23  1  0.15430000  0.30080000  0.67180000  1
  H  H24  1  0.15530000  0.69340000  0.60690000  1
  H  H25  1  0.15530000  0.80660000  0.10690000  1
  H  H26  1  0.15700000  0.19590000  0.95500000  1
  H  H27  1  0.15700000  0.30410000  0.45500000  1
  H  H28  1  0.19030000  0.65160000  0.79410000  1
  H  H29  1  0.19030000  0.84840000  0.29410000  1
  H  H30  1  0.19340000  0.65530000  0.89310000  1
  H  H31  1  0.19340000  0.84470000  0.39310000  1
  H  H32  1  0.19350000  0.15090000  0.35670000  1
  H  H33  1  0.19350000  0.34910000  0.85670000  1
  H  H34  1  0.19590000  0.15700000  0.45500000  1
  H  H35  1  0.19590000  0.34300000  0.95500000  1
  H  H36  1  0.19920000  0.15020000  0.76850000  1
  H  H37  1  0.19920000  0.15430000  0.67180000  1
  H  H38  1  0.19920000  0.34570000  0.17180000  1
  H  H39  1  0.19920000  0.34980000  0.26850000  1
  H  H40  1  0.30080000  0.15020000  0.26850000  1
  H  H41  1  0.30080000  0.15430000  0.17180000  1
  H  H42  1  0.30080000  0.34570000  0.67180000  1
  H  H43  1  0.30080000  0.34980000  0.76850000  1
  H  H44  1  0.30410000  0.15700000  0.95500000  1
  H  H45  1  0.30410000  0.34300000  0.45500000  1
  H  H46  1  0.30650000  0.15090000  0.85670000  1
  H  H47  1  0.30650000  0.34910000  0.35670000  1
  H  H48  1  0.30660000  0.65530000  0.39310000  1
  H  H49  1  0.30660000  0.84470000  0.89310000  1
  H  H50  1  0.30970000  0.65160000  0.29410000  1
  H  H51  1  0.30970000  0.84840000  0.79410000  1
  H  H52  1  0.34300000  0.19590000  0.45500000  1
  H  H53  1  0.34300000  0.30410000  0.95500000  1
  H  H54  1  0.34470000  0.69340000  0.10690000  1
  H  H55  1  0.34470000  0.80660000  0.60690000  1
  H  H56  1  0.34570000  0.19920000  0.67180000  1
  H  H57  1  0.34570000  0.30080000  0.17180000  1
  H  H58  1  0.34840000  0.69030000  0.20590000  1
  H  H59  1  0.34840000  0.80970000  0.70590000  1
  H  H60  1  0.34910000  0.19350000  0.35670000  1
  H  H61  1  0.34910000  0.30650000  0.85670000  1
  H  H62  1  0.34980000  0.19920000  0.76850000  1
  H  H63  1  0.34980000  0.30080000  0.26850000  1
  H  H64  1  0.39220000  0.57220000  0.52000000  1
  H  H65  1  0.39220000  0.92780000  0.02000000  1
  H  H66  1  0.39250000  0.05680000  0.03910000  1
  H  H67  1  0.39250000  0.44320000  0.53910000  1
  H  H68  1  0.42780000  0.60780000  0.98000000  1
  H  H69  1  0.42780000  0.89220000  0.48000000  1
  H  H70  1  0.44320000  0.10750000  0.53910000  1
  H  H71  1  0.44320000  0.39250000  0.03910000  1
  H  H72  1  0.55680000  0.60750000  0.96090000  1
  H  H73  1  0.55680000  0.89250000  0.46090000  1
  H  H74  1  0.57220000  0.10780000  0.52000000  1
  H  H75  1  0.57220000  0.39220000  0.02000000  1
  H  H76  1  0.60750000  0.55680000  0.46090000  1
  H  H77  1  0.60750000  0.94320000  0.96090000  1
  H  H78  1  0.60780000  0.07220000  0.98000000  1
  H  H79  1  0.60780000  0.42780000  0.48000000  1
  H  H80  1  0.65020000  0.69920000  0.73150000  1
  H  H81  1  0.65020000  0.80080000  0.23150000  1
  H  H82  1  0.65090000  0.69350000  0.14330000  1
  H  H83  1  0.65090000  0.80650000  0.64330000  1
  H  H84  1  0.65160000  0.19030000  0.29410000  1
  H  H85  1  0.65160000  0.30970000  0.79410000  1
  H  H86  1  0.65430000  0.69920000  0.82820000  1
  H  H87  1  0.65430000  0.80080000  0.32820000  1
  H  H88  1  0.65530000  0.19340000  0.39310000  1
  H  H89  1  0.65530000  0.30660000  0.89310000  1
  H  H90  1  0.65700000  0.69590000  0.04500000  1
  H  H91  1  0.65700000  0.80410000  0.54500000  1
  H  H92  1  0.69030000  0.15160000  0.20590000  1
  H  H93  1  0.69030000  0.34840000  0.70590000  1
  H  H94  1  0.69340000  0.15530000  0.10690000  1
  H  H95  1  0.69340000  0.34470000  0.60690000  1
  H  H96  1  0.69350000  0.65090000  0.64330000  1
  H  H97  1  0.69350000  0.84910000  0.14330000  1
  H  H98  1  0.69590000  0.65700000  0.54500000  1
  H  H99  1  0.69590000  0.84300000  0.04500000  1
  H  H100  1  0.69920000  0.65020000  0.23150000  1
  H  H101  1  0.69920000  0.65430000  0.32820000  1
  H  H102  1  0.69920000  0.84570000  0.82820000  1
  H  H103  1  0.69920000  0.84980000  0.73150000  1
  H  H104  1  0.80080000  0.65020000  0.73150000  1
  H  H105  1  0.80080000  0.65430000  0.82820000  1
  H  H106  1  0.80080000  0.84570000  0.32820000  1
  H  H107  1  0.80080000  0.84980000  0.23150000  1
  H  H108  1  0.80410000  0.65700000  0.04500000  1
  H  H109  1  0.80410000  0.84300000  0.54500000  1
  H  H110  1  0.80650000  0.65090000  0.14330000  1
  H  H111  1  0.80650000  0.84910000  0.64330000  1
  H  H112  1  0.80660000  0.15530000  0.60690000  1
  H  H113  1  0.80660000  0.34470000  0.10690000  1
  H  H114  1  0.80970000  0.15160000  0.70590000  1
  H  H115  1  0.80970000  0.34840000  0.20590000  1
  H  H116  1  0.84300000  0.69590000  0.54500000  1
  H  H117  1  0.84300000  0.80410000  0.04500000  1
  H  H118  1  0.84470000  0.19340000  0.89310000  1
  H  H119  1  0.84470000  0.30660000  0.39310000  1
  H  H120  1  0.84570000  0.69920000  0.32820000  1
  H  H121  1  0.84570000  0.80080000  0.82820000  1
  H  H122  1  0.84840000  0.19030000  0.79410000  1
  H  H123  1  0.84840000  0.30970000  0.29410000  1
  H  H124  1  0.84910000  0.69350000  0.64330000  1
  H  H125  1  0.84910000  0.80650000  0.14330000  1
  H  H126  1  0.84980000  0.69920000  0.23150000  1
  H  H127  1  0.84980000  0.80080000  0.73150000  1
  H  H128  1  0.89220000  0.07220000  0.48000000  1
  H  H129  1  0.89220000  0.42780000  0.98000000  1
  H  H130  1  0.89250000  0.55680000  0.96090000  1
  H  H131  1  0.89250000  0.94320000  0.46090000  1
  H  H132  1  0.92780000  0.10780000  0.02000000  1
  H  H133  1  0.92780000  0.39220000  0.52000000  1
  H  H134  1  0.94320000  0.60750000  0.46090000  1
  H  H135  1  0.94320000  0.89250000  0.96090000  1
  C  C136  1  0.00060000  0.07940000  0.51070000  1
  C  C137  1  0.00060000  0.42060000  0.01070000  1
  C  C138  1  0.00080000  0.16170000  0.52160000  1
  C  C139  1  0.00080000  0.33830000  0.02160000  1
  C  C140  1  0.03400000  0.06350000  0.02280000  1
  C  C141  1  0.03400000  0.43650000  0.52280000  1
  C  C142  1  0.04310000  0.56340000  0.48790000  1
  C  C143  1  0.04310000  0.93660000  0.98790000  1
  C  C144  1  0.06290000  0.70550000  0.99040000  1
  C  C145  1  0.06290000  0.79450000  0.49040000  1
  C  C146  1  0.06340000  0.54310000  0.01210000  1
  C  C147  1  0.06340000  0.95690000  0.51210000  1
  C  C148  1  0.06350000  0.03400000  0.52280000  1
  C  C149  1  0.06350000  0.46600000  0.02280000  1
  C  C150  1  0.06500000  0.19750000  0.54390000  1
  C  C151  1  0.06500000  0.30250000  0.04390000  1
  C  C152  1  0.07940000  0.00060000  0.01070000  1
  C  C153  1  0.07940000  0.49940000  0.51070000  1
  C  C154  1  0.16170000  0.00080000  0.02160000  1
  C  C155  1  0.16170000  0.49920000  0.52160000  1
  C  C156  1  0.19250000  0.71510000  0.68700000  1
  C  C157  1  0.19250000  0.78490000  0.18700000  1
  C  C158  1  0.19260000  0.21710000  0.87550000  1
  C  C159  1  0.19260000  0.28290000  0.37550000  1
  C  C160  1  0.19300000  0.22060000  0.24960000  1
  C  C161  1  0.19300000  0.27940000  0.74960000  1
  C  C162  1  0.19500000  0.71720000  0.62780000  1
  C  C163  1  0.19500000  0.78280000  0.12780000  1
  C  C164  1  0.19600000  0.22130000  0.19170000  1
  C  C165  1  0.19600000  0.27870000  0.69170000  1
  C  C166  1  0.19700000  0.21930000  0.93420000  1
  C  C167  1  0.19700000  0.28070000  0.43420000  1
  C  C168  1  0.19750000  0.06500000  0.04390000  1
  C  C169  1  0.19750000  0.43500000  0.54390000  1
  C  C170  1  0.20550000  0.56290000  0.50960000  1
  C  C171  1  0.20550000  0.93710000  0.00960000  1
  C  C172  1  0.21510000  0.69250000  0.81300000  1
  C  C173  1  0.21510000  0.80750000  0.31300000  1
  C  C174  1  0.21710000  0.19260000  0.37550000  1
  C  C175  1  0.21710000  0.30740000  0.87550000  1
  C  C176  1  0.21720000  0.69500000  0.87220000  1
  C  C177  1  0.21720000  0.80500000  0.37220000  1
  C  C178  1  0.21930000  0.19700000  0.43420000  1
  C  C179  1  0.21930000  0.30300000  0.93420000  1
  C  C180  1  0.22060000  0.19300000  0.74960000  1
  C  C181  1  0.22060000  0.30700000  0.24960000  1
  C  C182  1  0.22130000  0.19600000  0.69170000  1
  C  C183  1  0.22130000  0.30400000  0.19170000  1
  C  C184  1  0.25000000  0.25000000  0.28010000  1
  C  C185  1  0.25000000  0.25000000  0.34470000  1
  C  C186  1  0.25000000  0.25000000  0.78010000  1
  C  C187  1  0.25000000  0.25000000  0.84470000  1
  C  C188  1  0.25000000  0.75000000  0.21860000  1
  C  C189  1  0.25000000  0.75000000  0.28140000  1
  C  C190  1  0.25000000  0.75000000  0.71860000  1
  C  C191  1  0.25000000  0.75000000  0.78140000  1
  C  C192  1  0.27870000  0.19600000  0.19170000  1
  C  C193  1  0.27870000  0.30400000  0.69170000  1
  C  C194  1  0.27940000  0.19300000  0.24960000  1
  C  C195  1  0.27940000  0.30700000  0.74960000  1
  C  C196  1  0.28070000  0.19700000  0.93420000  1
  C  C197  1  0.28070000  0.30300000  0.43420000  1
  C  C198  1  0.28280000  0.69500000  0.37220000  1
  C  C199  1  0.28280000  0.80500000  0.87220000  1
  C  C200  1  0.28290000  0.19260000  0.87550000  1
  C  C201  1  0.28290000  0.30740000  0.37550000  1
  C  C202  1  0.28490000  0.69250000  0.31300000  1
  C  C203  1  0.28490000  0.80750000  0.81300000  1
  C  C204  1  0.29450000  0.56290000  0.00960000  1
  C  C205  1  0.29450000  0.93710000  0.50960000  1
  C  C206  1  0.30250000  0.06500000  0.54390000  1
  C  C207  1  0.30250000  0.43500000  0.04390000  1
  C  C208  1  0.30300000  0.21930000  0.43420000  1
  C  C209  1  0.30300000  0.28070000  0.93420000  1
  C  C210  1  0.30400000  0.22130000  0.69170000  1
  C  C211  1  0.30400000  0.27870000  0.19170000  1
  C  C212  1  0.30500000  0.71720000  0.12780000  1
  C  C213  1  0.30500000  0.78280000  0.62780000  1
  C  C214  1  0.30700000  0.22060000  0.74960000  1
  C  C215  1  0.30700000  0.27940000  0.24960000  1
  C  C216  1  0.30740000  0.21710000  0.37550000  1
  C  C217  1  0.30740000  0.28290000  0.87550000  1
  C  C218  1  0.30750000  0.71510000  0.18700000  1
  C  C219  1  0.30750000  0.78490000  0.68700000  1
  C  C220  1  0.33830000  0.00080000  0.52160000  1
  C  C221  1  0.33830000  0.49920000  0.02160000  1
  C  C222  1  0.42060000  0.00060000  0.51070000  1
  C  C223  1  0.42060000  0.49940000  0.01070000  1
  C  C224  1  0.43500000  0.19750000  0.04390000  1
  C  C225  1  0.43500000  0.30250000  0.54390000  1
  C  C226  1  0.43650000  0.03400000  0.02280000  1
  C  C227  1  0.43650000  0.46600000  0.52280000  1
  C  C228  1  0.43660000  0.54310000  0.51210000  1
  C  C229  1  0.43660000  0.95690000  0.01210000  1
  C  C230  1  0.43710000  0.70550000  0.49040000  1
  C  C231  1  0.43710000  0.79450000  0.99040000  1
  C  C232  1  0.45690000  0.56340000  0.98790000  1
  C  C233  1  0.45690000  0.93660000  0.48790000  1
  C  C234  1  0.46600000  0.06350000  0.52280000  1
  C  C235  1  0.46600000  0.43650000  0.02280000  1
  C  C236  1  0.49920000  0.16170000  0.02160000  1
  C  C237  1  0.49920000  0.33830000  0.52160000  1
  C  C238  1  0.49940000  0.07940000  0.01070000  1
  C  C239  1  0.49940000  0.42060000  0.51070000  1
  C  C240  1  0.50060000  0.57940000  0.48930000  1
  C  C241  1  0.50060000  0.92060000  0.98930000  1
  C  C242  1  0.50080000  0.66170000  0.47840000  1
  C  C243  1  0.50080000  0.83830000  0.97840000  1
  C  C244  1  0.53400000  0.56350000  0.97720000  1
  C  C245  1  0.53400000  0.93650000  0.47720000  1
  C  C246  1  0.54310000  0.06340000  0.51210000  1
  C  C247  1  0.54310000  0.43660000  0.01210000  1
  C  C248  1  0.56290000  0.20550000  0.00960000  1
  C  C249  1  0.56290000  0.29450000  0.50960000  1
  C  C250  1  0.56340000  0.04310000  0.98790000  1
  C  C251  1  0.56340000  0.45690000  0.48790000  1
  C  C252  1  0.56350000  0.53400000  0.47720000  1
  C  C253  1  0.56350000  0.96600000  0.97720000  1
  C  C254  1  0.56500000  0.69750000  0.45610000  1
  C  C255  1  0.56500000  0.80250000  0.95610000  1
  C  C256  1  0.57940000  0.50060000  0.98930000  1
  C  C257  1  0.57940000  0.99940000  0.48930000  1
  C  C258  1  0.66170000  0.50080000  0.97840000  1
  C  C259  1  0.66170000  0.99920000  0.47840000  1
  C  C260  1  0.69250000  0.21510000  0.31300000  1
  C  C261  1  0.69250000  0.28490000  0.81300000  1
  C  C262  1  0.69260000  0.71710000  0.12450000  1
  C  C263  1  0.69260000  0.78290000  0.62450000  1
  C  C264  1  0.69300000  0.72060000  0.75040000  1
  C  C265  1  0.69300000  0.77940000  0.25040000  1
  C  C266  1  0.69500000  0.21720000  0.37220000  1
  C  C267  1  0.69500000  0.28280000  0.87220000  1
  C  C268  1  0.69600000  0.72130000  0.80830000  1
  C  C269  1  0.69600000  0.77870000  0.30830000  1
  C  C270  1  0.69700000  0.71930000  0.06580000  1
  C  C271  1  0.69700000  0.78070000  0.56580000  1
  C  C272  1  0.69750000  0.56500000  0.95610000  1
  C  C273  1  0.69750000  0.93500000  0.45610000  1
  C  C274  1  0.70550000  0.06290000  0.49040000  1
  C  C275  1  0.70550000  0.43710000  0.99040000  1
  C  C276  1  0.71510000  0.19250000  0.18700000  1
  C  C277  1  0.71510000  0.30750000  0.68700000  1
  C  C278  1  0.71710000  0.69260000  0.62450000  1
  C  C279  1  0.71710000  0.80740000  0.12450000  1
  C  C280  1  0.71720000  0.19500000  0.12780000  1
  C  C281  1  0.71720000  0.30500000  0.62780000  1
  C  C282  1  0.71930000  0.69700000  0.56580000  1
  C  C283  1  0.71930000  0.80300000  0.06580000  1
  C  C284  1  0.72060000  0.69300000  0.25040000  1
  C  C285  1  0.72060000  0.80700000  0.75040000  1
  C  C286  1  0.72130000  0.69600000  0.30830000  1
  C  C287  1  0.72130000  0.80400000  0.80830000  1
  C  C288  1  0.75000000  0.25000000  0.21860000  1
  C  C289  1  0.75000000  0.25000000  0.28140000  1
  C  C290  1  0.75000000  0.25000000  0.71860000  1
  C  C291  1  0.75000000  0.25000000  0.78140000  1
  C  C292  1  0.75000000  0.75000000  0.15530000  1
  C  C293  1  0.75000000  0.75000000  0.21990000  1
  C  C294  1  0.75000000  0.75000000  0.65530000  1
  C  C295  1  0.75000000  0.75000000  0.71990000  1
  C  C296  1  0.77870000  0.69600000  0.80830000  1
  C  C297  1  0.77870000  0.80400000  0.30830000  1
  C  C298  1  0.77940000  0.69300000  0.75040000  1
  C  C299  1  0.77940000  0.80700000  0.25040000  1
  C  C300  1  0.78070000  0.69700000  0.06580000  1
  C  C301  1  0.78070000  0.80300000  0.56580000  1
  C  C302  1  0.78280000  0.19500000  0.62780000  1
  C  C303  1  0.78280000  0.30500000  0.12780000  1
  C  C304  1  0.78290000  0.69260000  0.12450000  1
  C  C305  1  0.78290000  0.80740000  0.62450000  1
  C  C306  1  0.78490000  0.19250000  0.68700000  1
  C  C307  1  0.78490000  0.30750000  0.18700000  1
  C  C308  1  0.79450000  0.06290000  0.99040000  1
  C  C309  1  0.79450000  0.43710000  0.49040000  1
  C  C310  1  0.80250000  0.56500000  0.45610000  1
  C  C311  1  0.80250000  0.93500000  0.95610000  1
  C  C312  1  0.80300000  0.71930000  0.56580000  1
  C  C313  1  0.80300000  0.78070000  0.06580000  1
  C  C314  1  0.80400000  0.72130000  0.30830000  1
  C  C315  1  0.80400000  0.77870000  0.80830000  1
  C  C316  1  0.80500000  0.21720000  0.87220000  1
  C  C317  1  0.80500000  0.28280000  0.37220000  1
  C  C318  1  0.80700000  0.72060000  0.25040000  1
  C  C319  1  0.80700000  0.77940000  0.75040000  1
  C  C320  1  0.80740000  0.71710000  0.62450000  1
  C  C321  1  0.80740000  0.78290000  0.12450000  1
  C  C322  1  0.80750000  0.21510000  0.81300000  1
  C  C323  1  0.80750000  0.28490000  0.31300000  1
  C  C324  1  0.83830000  0.50080000  0.47840000  1
  C  C325  1  0.83830000  0.99920000  0.97840000  1
  C  C326  1  0.92060000  0.50060000  0.48930000  1
  C  C327  1  0.92060000  0.99940000  0.98930000  1
  C  C328  1  0.93500000  0.69750000  0.95610000  1
  C  C329  1  0.93500000  0.80250000  0.45610000  1
  C  C330  1  0.93650000  0.53400000  0.97720000  1
  C  C331  1  0.93650000  0.96600000  0.47720000  1
  C  C332  1  0.93660000  0.04310000  0.48790000  1
  C  C333  1  0.93660000  0.45690000  0.98790000  1
  C  C334  1  0.93710000  0.20550000  0.50960000  1
  C  C335  1  0.93710000  0.29450000  0.00960000  1
  C  C336  1  0.95690000  0.06340000  0.01210000  1
  C  C337  1  0.95690000  0.43660000  0.51210000  1
  C  C338  1  0.96600000  0.56350000  0.47720000  1
  C  C339  1  0.96600000  0.93650000  0.97720000  1
  C  C340  1  0.99920000  0.66170000  0.97840000  1
  C  C341  1  0.99920000  0.83830000  0.47840000  1
  C  C342  1  0.99940000  0.57940000  0.98930000  1
  C  C343  1  0.99940000  0.92060000  0.48930000  1
  N  N344  1  0.11830000  0.73870000  0.00174000  1
  N  N345  1  0.11830000  0.76130000  0.50174000  1
  N  N346  1  0.12010000  0.22440000  0.56240000  1
  N  N347  1  0.12010000  0.27560000  0.06240000  1
  N  N348  1  0.22440000  0.12010000  0.06240000  1
  N  N349  1  0.22440000  0.37990000  0.56240000  1
  N  N350  1  0.23870000  0.61830000  0.49826000  1
  N  N351  1  0.23870000  0.88170000  0.99826000  1
  N  N352  1  0.25000000  0.25000000  0.16100000  1
  N  N353  1  0.25000000  0.25000000  0.46320000  1
  N  N354  1  0.25000000  0.25000000  0.66100000  1
  N  N355  1  0.25000000  0.25000000  0.96320000  1
  N  N356  1  0.25000000  0.75000000  0.09930000  1
  N  N357  1  0.25000000  0.75000000  0.40070000  1
  N  N358  1  0.25000000  0.75000000  0.59930000  1
  N  N359  1  0.25000000  0.75000000  0.90070000  1
  N  N360  1  0.26130000  0.61830000  0.99826000  1
  N  N361  1  0.26130000  0.88170000  0.49826000  1
  N  N362  1  0.27560000  0.12010000  0.56240000  1
  N  N363  1  0.27560000  0.37990000  0.06240000  1
  N  N364  1  0.37990000  0.22440000  0.06240000  1
  N  N365  1  0.37990000  0.27560000  0.56240000  1
  N  N366  1  0.38170000  0.73870000  0.50174000  1
  N  N367  1  0.38170000  0.76130000  0.00174000  1
  N  N368  1  0.61830000  0.23870000  0.99826000  1
  N  N369  1  0.61830000  0.26130000  0.49826000  1
  N  N370  1  0.62010000  0.72440000  0.43760000  1
  N  N371  1  0.62010000  0.77560000  0.93760000  1
  N  N372  1  0.72440000  0.62010000  0.93760000  1
  N  N373  1  0.72440000  0.87990000  0.43760000  1
  N  N374  1  0.73870000  0.11830000  0.50174000  1
  N  N375  1  0.73870000  0.38170000  0.00174000  1
  N  N376  1  0.75000000  0.25000000  0.09930000  1
  N  N377  1  0.75000000  0.25000000  0.40070000  1
  N  N378  1  0.75000000  0.25000000  0.59930000  1
  N  N379  1  0.75000000  0.25000000  0.90070000  1
  N  N380  1  0.75000000  0.75000000  0.03680000  1
  N  N381  1  0.75000000  0.75000000  0.33900000  1
  N  N382  1  0.75000000  0.75000000  0.53680000  1
  N  N383  1  0.75000000  0.75000000  0.83900000  1
  N  N384  1  0.76130000  0.11830000  0.00174000  1
  N  N385  1  0.76130000  0.38170000  0.50174000  1
  N  N386  1  0.77560000  0.62010000  0.43760000  1
  N  N387  1  0.77560000  0.87990000  0.93760000  1
  N  N388  1  0.87990000  0.72440000  0.93760000  1
  N  N389  1  0.87990000  0.77560000  0.43760000  1
  N  N390  1  0.88170000  0.23870000  0.49826000  1
  N  N391  1  0.88170000  0.26130000  0.99826000  1
