# generated using pymatgen
data_CdH26C25S2(NO)4
_symmetry_space_group_name_H-M   'P 1'
_cell_length_a   12.27310000
_cell_length_b   12.27310000
_cell_length_c   25.13500000
_cell_angle_alpha   90.00000000
_cell_angle_beta   90.00000000
_cell_angle_gamma   90.00000000
_symmetry_Int_Tables_number   1
_chemical_formula_structural   CdH26C25S2(NO)4
_chemical_formula_sum   'Cd4 H104 C100 S8 N16 O16'
_cell_volume   3786.05950304
_cell_formula_units_Z   4
loop_
 _symmetry_equiv_pos_site_id
 _symmetry_equiv_pos_as_xyz
  1  'x, y, z'
loop_
 _atom_site_type_symbol
 _atom_site_label
 _atom_site_symmetry_multiplicity
 _atom_site_fract_x
 _atom_site_fract_y
 _atom_site_fract_z
 _atom_site_occupancy
  Cd  Cd0  1  0.25000000  0.25000000  0.07678000  1
  Cd  Cd1  1  0.25000000  0.25000000  0.42322000  1
  Cd  Cd2  1  0.75000000  0.75000000  0.57678000  1
  Cd  Cd3  1  0.75000000  0.75000000  0.92322000  1
  H  H4  1  0.00020000  0.05640000  0.56600000  1
  H  H5  1  0.00460000  0.36650000  0.25900000  1
  H  H6  1  0.00870000  0.27080000  0.05250000  1
  H  H7  1  0.04030000  0.62130000  0.43270000  1
  H  H8  1  0.05640000  0.49980000  0.93400000  1
  H  H9  1  0.06480000  0.56500000  0.19190000  1
  H  H10  1  0.06500000  0.93520000  0.69190000  1
  H  H11  1  0.07300000  0.08100000  0.36940000  1
  H  H12  1  0.07700000  0.37830000  0.00230000  1
  H  H13  1  0.08060000  0.38630000  0.49720000  1
  H  H14  1  0.08100000  0.42700000  0.13060000  1
  H  H15  1  0.09210000  0.69320000  0.81440000  1
  H  H16  1  0.10170000  0.67350000  0.33910000  1
  H  H17  1  0.11370000  0.08060000  0.00280000  1
  H  H18  1  0.12130000  0.95970000  0.93270000  1
  H  H19  1  0.12170000  0.07700000  0.49770000  1
  H  H20  1  0.12600000  0.13790000  0.17710000  1
  H  H21  1  0.13350000  0.00460000  0.24100000  1
  H  H22  1  0.13790000  0.37400000  0.32290000  1
  H  H23  1  0.14770000  0.82470000  0.27220000  1
  H  H24  1  0.15720000  0.81850000  0.88760000  1
  H  H25  1  0.17350000  0.89830000  0.83910000  1
  H  H26  1  0.17530000  0.64770000  0.77220000  1
  H  H27  1  0.18150000  0.65720000  0.38760000  1
  H  H28  1  0.19320000  0.90790000  0.31440000  1
  H  H29  1  0.22920000  0.00870000  0.44750000  1
  H  H30  1  0.27080000  0.49130000  0.44750000  1
  H  H31  1  0.30680000  0.59210000  0.31440000  1
  H  H32  1  0.31850000  0.84280000  0.38760000  1
  H  H33  1  0.32470000  0.85230000  0.77220000  1
  H  H34  1  0.32650000  0.60170000  0.83910000  1
  H  H35  1  0.34280000  0.68150000  0.88760000  1
  H  H36  1  0.35230000  0.67530000  0.27220000  1
  H  H37  1  0.36210000  0.12600000  0.32290000  1
  H  H38  1  0.36650000  0.49540000  0.24100000  1
  H  H39  1  0.37400000  0.36210000  0.17710000  1
  H  H40  1  0.37830000  0.42300000  0.49770000  1
  H  H41  1  0.37870000  0.54030000  0.93270000  1
  H  H42  1  0.38630000  0.41940000  0.00280000  1
  H  H43  1  0.39830000  0.82650000  0.33910000  1
  H  H44  1  0.40790000  0.80680000  0.81440000  1
  H  H45  1  0.41900000  0.07300000  0.13060000  1
  H  H46  1  0.41940000  0.11370000  0.49720000  1
  H  H47  1  0.42300000  0.12170000  0.00230000  1
  H  H48  1  0.42700000  0.41900000  0.36940000  1
  H  H49  1  0.43500000  0.56480000  0.69190000  1
  H  H50  1  0.43520000  0.93500000  0.19190000  1
  H  H51  1  0.44360000  0.00020000  0.93400000  1
  H  H52  1  0.45970000  0.87870000  0.43270000  1
  H  H53  1  0.49130000  0.22920000  0.05250000  1
  H  H54  1  0.49540000  0.13350000  0.25900000  1
  H  H55  1  0.49980000  0.44360000  0.56600000  1
  H  H56  1  0.50020000  0.55640000  0.43400000  1
  H  H57  1  0.50460000  0.86650000  0.74100000  1
  H  H58  1  0.50870000  0.77080000  0.94750000  1
  H  H59  1  0.54030000  0.12130000  0.56730000  1
  H  H60  1  0.55640000  0.99980000  0.06600000  1
  H  H61  1  0.56480000  0.06500000  0.80810000  1
  H  H62  1  0.56500000  0.43520000  0.30810000  1
  H  H63  1  0.57300000  0.58100000  0.63060000  1
  H  H64  1  0.57700000  0.87830000  0.99770000  1
  H  H65  1  0.58060000  0.88630000  0.50280000  1
  H  H66  1  0.58100000  0.92700000  0.86940000  1
  H  H67  1  0.59210000  0.19320000  0.18560000  1
  H  H68  1  0.60170000  0.17350000  0.66090000  1
  H  H69  1  0.61370000  0.58060000  0.99720000  1
  H  H70  1  0.62130000  0.45970000  0.06730000  1
  H  H71  1  0.62170000  0.57700000  0.50230000  1
  H  H72  1  0.62600000  0.63790000  0.82290000  1
  H  H73  1  0.63350000  0.50460000  0.75900000  1
  H  H74  1  0.63790000  0.87400000  0.67710000  1
  H  H75  1  0.64770000  0.32470000  0.72780000  1
  H  H76  1  0.65720000  0.31850000  0.11240000  1
  H  H77  1  0.67350000  0.39830000  0.16090000  1
  H  H78  1  0.67530000  0.14770000  0.22780000  1
  H  H79  1  0.68150000  0.15720000  0.61240000  1
  H  H80  1  0.69320000  0.40790000  0.68560000  1
  H  H81  1  0.72920000  0.50870000  0.55250000  1
  H  H82  1  0.77080000  0.99130000  0.55250000  1
  H  H83  1  0.80680000  0.09210000  0.68560000  1
  H  H84  1  0.81850000  0.34280000  0.61240000  1
  H  H85  1  0.82470000  0.35230000  0.22780000  1
  H  H86  1  0.82650000  0.10170000  0.16090000  1
  H  H87  1  0.84280000  0.18150000  0.11240000  1
  H  H88  1  0.85230000  0.17530000  0.72780000  1
  H  H89  1  0.86210000  0.62600000  0.67710000  1
  H  H90  1  0.86650000  0.99540000  0.75900000  1
  H  H91  1  0.87400000  0.86210000  0.82290000  1
  H  H92  1  0.87830000  0.92300000  0.50230000  1
  H  H93  1  0.87870000  0.04030000  0.06730000  1
  H  H94  1  0.88630000  0.91940000  0.99720000  1
  H  H95  1  0.89830000  0.32650000  0.66090000  1
  H  H96  1  0.90790000  0.30680000  0.18560000  1
  H  H97  1  0.91900000  0.57300000  0.86940000  1
  H  H98  1  0.91940000  0.61370000  0.50280000  1
  H  H99  1  0.92300000  0.62170000  0.99770000  1
  H  H100  1  0.92700000  0.91900000  0.63060000  1
  H  H101  1  0.93500000  0.06480000  0.30810000  1
  H  H102  1  0.93520000  0.43500000  0.80810000  1
  H  H103  1  0.94360000  0.50020000  0.06600000  1
  H  H104  1  0.95970000  0.37870000  0.56730000  1
  H  H105  1  0.99130000  0.72920000  0.94750000  1
  H  H106  1  0.99540000  0.63350000  0.74100000  1
  H  H107  1  0.99980000  0.94360000  0.43400000  1
  C  C108  1  0.01030000  0.68470000  0.44660000  1
  C  C109  1  0.01460000  0.12540000  0.55240000  1
  C  C110  1  0.01600000  0.30740000  0.28140000  1
  C  C111  1  0.02490000  0.87110000  0.68970000  1
  C  C112  1  0.03730000  0.78390000  0.42728000  1
  C  C113  1  0.04610000  0.78520000  0.72319000  1
  C  C114  1  0.05790000  0.14010000  0.34754000  1
  C  C115  1  0.06440000  0.31840000  0.51160000  1
  C  C116  1  0.08820000  0.13880000  0.51150000  1
  C  C117  1  0.09620000  0.31100000  0.32030000  1
  C  C118  1  0.12540000  0.48540000  0.94760000  1
  C  C119  1  0.12890000  0.52490000  0.18970000  1
  C  C120  1  0.13880000  0.41180000  0.98850000  1
  C  C121  1  0.14010000  0.44210000  0.15246000  1
  C  C122  1  0.15440000  0.71170000  0.79247000  1
  C  C123  1  0.15570000  0.70910000  0.36132000  1
  C  C124  1  0.18160000  0.06440000  0.98840000  1
  C  C125  1  0.18470000  0.98970000  0.94660000  1
  C  C126  1  0.18900000  0.09620000  0.17970000  1
  C  C127  1  0.19260000  0.01600000  0.21860000  1
  C  C128  1  0.20910000  0.84430000  0.86132000  1
  C  C129  1  0.21170000  0.84560000  0.29247000  1
  C  C130  1  0.21480000  0.54610000  0.22319000  1
  C  C131  1  0.21610000  0.53730000  0.92728000  1
  C  C132  1  0.25000000  0.75000000  0.32750000  1
  C  C133  1  0.25000000  0.75000000  0.82750000  1
  C  C134  1  0.28390000  0.96270000  0.92728000  1
  C  C135  1  0.28520000  0.95390000  0.22319000  1
  C  C136  1  0.28830000  0.65440000  0.29247000  1
  C  C137  1  0.29090000  0.65570000  0.86132000  1
  C  C138  1  0.30740000  0.48400000  0.21860000  1
  C  C139  1  0.31100000  0.40380000  0.17970000  1
  C  C140  1  0.31530000  0.51030000  0.94660000  1
  C  C141  1  0.31840000  0.43560000  0.98840000  1
  C  C142  1  0.34430000  0.79090000  0.36132000  1
  C  C143  1  0.34560000  0.78830000  0.79247000  1
  C  C144  1  0.35990000  0.05790000  0.15246000  1
  C  C145  1  0.36120000  0.08820000  0.98850000  1
  C  C146  1  0.37110000  0.97510000  0.18970000  1
  C  C147  1  0.37460000  0.01460000  0.94760000  1
  C  C148  1  0.40380000  0.18900000  0.32030000  1
  C  C149  1  0.41180000  0.36120000  0.51150000  1
  C  C150  1  0.43560000  0.18160000  0.51160000  1
  C  C151  1  0.44210000  0.35990000  0.34754000  1
  C  C152  1  0.45390000  0.71480000  0.72319000  1
  C  C153  1  0.46270000  0.71610000  0.42728000  1
  C  C154  1  0.47510000  0.62890000  0.68970000  1
  C  C155  1  0.48400000  0.19260000  0.28140000  1
  C  C156  1  0.48540000  0.37460000  0.55240000  1
  C  C157  1  0.48970000  0.81530000  0.44660000  1
  C  C158  1  0.51030000  0.18470000  0.55340000  1
  C  C159  1  0.51460000  0.62540000  0.44760000  1
  C  C160  1  0.51600000  0.80740000  0.71860000  1
  C  C161  1  0.52490000  0.37110000  0.31030000  1
  C  C162  1  0.53730000  0.28390000  0.57272000  1
  C  C163  1  0.54610000  0.28520000  0.27681000  1
  C  C164  1  0.55790000  0.64010000  0.65246000  1
  C  C165  1  0.56440000  0.81840000  0.48840000  1
  C  C166  1  0.58820000  0.63880000  0.48850000  1
  C  C167  1  0.59620000  0.81100000  0.67970000  1
  C  C168  1  0.62540000  0.98540000  0.05240000  1
  C  C169  1  0.62890000  0.02490000  0.81030000  1
  C  C170  1  0.63880000  0.91180000  0.01150000  1
  C  C171  1  0.64010000  0.94210000  0.84754000  1
  C  C172  1  0.65440000  0.21170000  0.20753000  1
  C  C173  1  0.65570000  0.20910000  0.63868000  1
  C  C174  1  0.68160000  0.56440000  0.01160000  1
  C  C175  1  0.68470000  0.48970000  0.05340000  1
  C  C176  1  0.68900000  0.59620000  0.82030000  1
  C  C177  1  0.69260000  0.51600000  0.78140000  1
  C  C178  1  0.70910000  0.34430000  0.13868000  1
  C  C179  1  0.71170000  0.34560000  0.70753000  1
  C  C180  1  0.71480000  0.04610000  0.77681000  1
  C  C181  1  0.71610000  0.03730000  0.07272000  1
  C  C182  1  0.75000000  0.25000000  0.17250000  1
  C  C183  1  0.75000000  0.25000000  0.67250000  1
  C  C184  1  0.78390000  0.46270000  0.07272000  1
  C  C185  1  0.78520000  0.45390000  0.77681000  1
  C  C186  1  0.78830000  0.15440000  0.70753000  1
  C  C187  1  0.79090000  0.15570000  0.13868000  1
  C  C188  1  0.80740000  0.98400000  0.78140000  1
  C  C189  1  0.81100000  0.90380000  0.82030000  1
  C  C190  1  0.81530000  0.01030000  0.05340000  1
  C  C191  1  0.81840000  0.93560000  0.01160000  1
  C  C192  1  0.84430000  0.29090000  0.63868000  1
  C  C193  1  0.84560000  0.28830000  0.20753000  1
  C  C194  1  0.85990000  0.55790000  0.84754000  1
  C  C195  1  0.86120000  0.58820000  0.01150000  1
  C  C196  1  0.87110000  0.47510000  0.81030000  1
  C  C197  1  0.87460000  0.51460000  0.05240000  1
  C  C198  1  0.90380000  0.68900000  0.67970000  1
  C  C199  1  0.91180000  0.86120000  0.48850000  1
  C  C200  1  0.93560000  0.68160000  0.48840000  1
  C  C201  1  0.94210000  0.85990000  0.65246000  1
  C  C202  1  0.95390000  0.21480000  0.27681000  1
  C  C203  1  0.96270000  0.21610000  0.57272000  1
  C  C204  1  0.97510000  0.12890000  0.31030000  1
  C  C205  1  0.98400000  0.69260000  0.71860000  1
  C  C206  1  0.98540000  0.87460000  0.44760000  1
  C  C207  1  0.98970000  0.31530000  0.55340000  1
  S  S208  1  0.04178000  0.22386000  0.07846000  1
  S  S209  1  0.22386000  0.45822000  0.42154000  1
  S  S210  1  0.27614000  0.04178000  0.42154000  1
  S  S211  1  0.45822000  0.27614000  0.07846000  1
  S  S212  1  0.54178000  0.72386000  0.92154000  1
  S  S213  1  0.72386000  0.95822000  0.57846000  1
  S  S214  1  0.77614000  0.54178000  0.57846000  1
  S  S215  1  0.95822000  0.77614000  0.92154000  1
  N  N216  1  0.11380000  0.23320000  0.49086000  1
  N  N217  1  0.11720000  0.23020000  0.35394000  1
  N  N218  1  0.23020000  0.38280000  0.14606000  1
  N  N219  1  0.23320000  0.38620000  0.00914000  1
  N  N220  1  0.26680000  0.11380000  0.00914000  1
  N  N221  1  0.26980000  0.11720000  0.14606000  1
  N  N222  1  0.38280000  0.26980000  0.35394000  1
  N  N223  1  0.38620000  0.26680000  0.49086000  1
  N  N224  1  0.61380000  0.73320000  0.50914000  1
  N  N225  1  0.61720000  0.73020000  0.64606000  1
  N  N226  1  0.73020000  0.88280000  0.85394000  1
  N  N227  1  0.73320000  0.88620000  0.99086000  1
  N  N228  1  0.76680000  0.61380000  0.99086000  1
  N  N229  1  0.76980000  0.61720000  0.85394000  1
  N  N230  1  0.88280000  0.76980000  0.64606000  1
  N  N231  1  0.88620000  0.76680000  0.50914000  1
  O  O232  1  0.10920000  0.80250000  0.38710000  1
  O  O233  1  0.12770000  0.79930000  0.75742000  1
  O  O234  1  0.19750000  0.60920000  0.88710000  1
  O  O235  1  0.20070000  0.62770000  0.25742000  1
  O  O236  1  0.29930000  0.87230000  0.25742000  1
  O  O237  1  0.30250000  0.89080000  0.88710000  1
  O  O238  1  0.37230000  0.70070000  0.75742000  1
  O  O239  1  0.39080000  0.69750000  0.38710000  1
  O  O240  1  0.60920000  0.30250000  0.61290000  1
  O  O241  1  0.62770000  0.29930000  0.24258000  1
  O  O242  1  0.69750000  0.10920000  0.11290000  1
  O  O243  1  0.70070000  0.12770000  0.74258000  1
  O  O244  1  0.79930000  0.37230000  0.74258000  1
  O  O245  1  0.80250000  0.39080000  0.11290000  1
  O  O246  1  0.87230000  0.20070000  0.24258000  1
  O  O247  1  0.89080000  0.19750000  0.61290000  1
