# generated using pymatgen
data_Co3H26C46S3(N2O)8
_symmetry_space_group_name_H-M   'P 1'
_cell_length_a   11.79140000
_cell_length_b   17.05040000
_cell_length_c   20.79500000
_cell_angle_alpha   104.72600000
_cell_angle_beta   106.36000000
_cell_angle_gamma   103.48100000
_symmetry_Int_Tables_number   1
_chemical_formula_structural   Co3H26C46S3(N2O)8
_chemical_formula_sum   'Co6 H52 C92 S6 N32 O16'
_cell_volume   3664.61769227
_cell_formula_units_Z   2
loop_
 _symmetry_equiv_pos_site_id
 _symmetry_equiv_pos_as_xyz
  1  'x, y, z'
loop_
 _atom_site_type_symbol
 _atom_site_label
 _atom_site_symmetry_multiplicity
 _atom_site_fract_x
 _atom_site_fract_y
 _atom_site_fract_z
 _atom_site_occupancy
  Co  Co0  1  0.00000000  0.00000000  0.00000000  1
  Co  Co1  1  0.00000000  0.50000000  0.50000000  1
  Co  Co2  1  0.00007000  0.25188000  0.24835000  1
  Co  Co3  1  0.50000000  0.00000000  0.00000000  1
  Co  Co4  1  0.50000000  0.50000000  0.50000000  1
  Co  Co5  1  0.99993000  0.74812000  0.75165000  1
  H  H6  1  0.09000000  0.31370000  0.01750000  1
  H  H7  1  0.10370000  0.81550000  0.51560000  1
  H  H8  1  0.11370000  0.55930000  0.89880000  1
  H  H9  1  0.12130000  0.19710000  0.04800000  1
  H  H10  1  0.12520000  0.06780000  0.39850000  1
  H  H11  1  0.12630000  0.69940000  0.54980000  1
  H  H12  1  0.14300000  0.67200000  0.85840000  1
  H  H13  1  0.14590000  0.18180000  0.35810000  1
  H  H14  1  0.19880000  0.44940000  0.59530000  1
  H  H15  1  0.19970000  0.95480000  0.09950000  1
  H  H16  1  0.21150000  0.87630000  0.72680000  1
  H  H17  1  0.21560000  0.37590000  0.22410000  1
  H  H18  1  0.23220000  0.33500000  0.62990000  1
  H  H19  1  0.23660000  0.84320000  0.13520000  1
  H  H20  1  0.24280000  0.99180000  0.68910000  1
  H  H21  1  0.25320000  0.49150000  0.18510000  1
  H  H22  1  0.31720000  0.81250000  0.85350000  1
  H  H23  1  0.32180000  0.32340000  0.34500000  1
  H  H24  1  0.42170000  0.20880000  0.53310000  1
  H  H25  1  0.42730000  0.30890000  0.47630000  1
  H  H26  1  0.47320000  0.82850000  0.02680000  1
  H  H27  1  0.47370000  0.59820000  0.28300000  1
  H  H28  1  0.47490000  0.50340000  0.34670000  1
  H  H29  1  0.48970000  0.77190000  0.11870000  1
  H  H30  1  0.49310000  0.04900000  0.15230000  1
  H  H31  1  0.49330000  0.00110000  0.75340000  1
  H  H32  1  0.50670000  0.99890000  0.24660000  1
  H  H33  1  0.50690000  0.95100000  0.84770000  1
  H  H34  1  0.51030000  0.22810000  0.88130000  1
  H  H35  1  0.52510000  0.49660000  0.65330000  1
  H  H36  1  0.52630000  0.40180000  0.71700000  1
  H  H37  1  0.52680000  0.17150000  0.97320000  1
  H  H38  1  0.57270000  0.69110000  0.52370000  1
  H  H39  1  0.57830000  0.79120000  0.46690000  1
  H  H40  1  0.67820000  0.67660000  0.65500000  1
  H  H41  1  0.68280000  0.18750000  0.14650000  1
  H  H42  1  0.74680000  0.50850000  0.81490000  1
  H  H43  1  0.75720000  0.00820000  0.31090000  1
  H  H44  1  0.76340000  0.15680000  0.86480000  1
  H  H45  1  0.76780000  0.66500000  0.37010000  1
  H  H46  1  0.78440000  0.62410000  0.77590000  1
  H  H47  1  0.78850000  0.12370000  0.27320000  1
  H  H48  1  0.80030000  0.04520000  0.90050000  1
  H  H49  1  0.80120000  0.55060000  0.40470000  1
  H  H50  1  0.85410000  0.81820000  0.64190000  1
  H  H51  1  0.85700000  0.32800000  0.14160000  1
  H  H52  1  0.87370000  0.30060000  0.45020000  1
  H  H53  1  0.87480000  0.93220000  0.60150000  1
  H  H54  1  0.87870000  0.80290000  0.95200000  1
  H  H55  1  0.88630000  0.44070000  0.10120000  1
  H  H56  1  0.89630000  0.18450000  0.48440000  1
  H  H57  1  0.91000000  0.68630000  0.98250000  1
  C  C58  1  0.01100000  0.61000000  0.64190000  1
  C  C59  1  0.01180000  0.11240000  0.14100000  1
  C  C60  1  0.02900000  0.25840000  0.99210000  1
  C  C61  1  0.03970000  0.76120000  0.49180000  1
  C  C62  1  0.04310000  0.56950000  0.87120000  1
  C  C63  1  0.04680000  0.18870000  0.01030000  1
  C  C64  1  0.05280000  0.07630000  0.37100000  1
  C  C65  1  0.05310000  0.69130000  0.51140000  1
  C  C66  1  0.05980000  0.63670000  0.84710000  1
  C  C67  1  0.06230000  0.97800000  0.64410000  1
  C  C68  1  0.06400000  0.14390000  0.34590000  1
  C  C69  1  0.06630000  0.24830000  0.56230000  1
  C  C70  1  0.07350000  0.48300000  0.14400000  1
  C  C71  1  0.07730000  0.75230000  0.06270000  1
  C  C72  1  0.08530000  0.05770000  0.62580000  1
  C  C73  1  0.08580000  0.17830000  0.58970000  1
  C  C74  1  0.09780000  0.56150000  0.12450000  1
  C  C75  1  0.10100000  0.68220000  0.08900000  1
  C  C76  1  0.12210000  0.89270000  0.88250000  1
  C  C77  1  0.12290000  0.39490000  0.37920000  1
  C  C78  1  0.13570000  0.39470000  0.57220000  1
  C  C79  1  0.13900000  0.89910000  0.07540000  1
  C  C80  1  0.14060000  0.88910000  0.70280000  1
  C  C81  1  0.14660000  0.39070000  0.20040000  1
  C  C82  1  0.15590000  0.32670000  0.59360000  1
  C  C83  1  0.15990000  0.95780000  0.67980000  1
  C  C84  1  0.16200000  0.83300000  0.09680000  1
  C  C85  1  0.16980000  0.46000000  0.17750000  1
  C  C86  1  0.23070000  0.94700000  0.93640000  1
  C  C87  1  0.23190000  0.44960000  0.43390000  1
  C  C88  1  0.26510000  0.52550000  0.49910000  1
  C  C89  1  0.26630000  0.02860000  0.99580000  1
  C  C90  1  0.27230000  0.84680000  0.87130000  1
  C  C91  1  0.27580000  0.35490000  0.36480000  1
  C  C92  1  0.44590000  0.26800000  0.55990000  1
  C  C93  1  0.44940000  0.32870000  0.52660000  1
  C  C94  1  0.47720000  0.29450000  0.63070000  1
  C  C95  1  0.48080000  0.23270000  0.66970000  1
  C  C96  1  0.48290000  0.86420000  0.07270000  1
  C  C97  1  0.49070000  0.82950000  0.12690000  1
  C  C98  1  0.49140000  0.15430000  0.74880000  1
  C  C99  1  0.49360000  0.61900000  0.33310000  1
  C  C100  1  0.49370000  0.56270000  0.37150000  1
  C  C101  1  0.49410000  0.99200000  0.14550000  1
  C  C102  1  0.49890000  0.03740000  0.79800000  1
  C  C103  1  0.49990000  0.88000000  0.19220000  1
  C  C104  1  0.50010000  0.12000000  0.80780000  1
  C  C105  1  0.50110000  0.96260000  0.20200000  1
  C  C106  1  0.50590000  0.00800000  0.85450000  1
  C  C107  1  0.50630000  0.43730000  0.62850000  1
  C  C108  1  0.50640000  0.38100000  0.66690000  1
  C  C109  1  0.50860000  0.84570000  0.25120000  1
  C  C110  1  0.50930000  0.17050000  0.87310000  1
  C  C111  1  0.51710000  0.13580000  0.92730000  1
  C  C112  1  0.51920000  0.76730000  0.33030000  1
  C  C113  1  0.52280000  0.70550000  0.36930000  1
  C  C114  1  0.55060000  0.67130000  0.47340000  1
  C  C115  1  0.55410000  0.73200000  0.44010000  1
  C  C116  1  0.72420000  0.64510000  0.63520000  1
  C  C117  1  0.72770000  0.15320000  0.12870000  1
  C  C118  1  0.73370000  0.97140000  0.00420000  1
  C  C119  1  0.73490000  0.47450000  0.50090000  1
  C  C120  1  0.76810000  0.55040000  0.56610000  1
  C  C121  1  0.76930000  0.05300000  0.06360000  1
  C  C122  1  0.83020000  0.54000000  0.82250000  1
  C  C123  1  0.83800000  0.16700000  0.90320000  1
  C  C124  1  0.84010000  0.04220000  0.32020000  1
  C  C125  1  0.84410000  0.67330000  0.40640000  1
  C  C126  1  0.85340000  0.60930000  0.79960000  1
  C  C127  1  0.85940000  0.11090000  0.29720000  1
  C  C128  1  0.86100000  0.10090000  0.92460000  1
  C  C129  1  0.86430000  0.60530000  0.42780000  1
  C  C130  1  0.87710000  0.60510000  0.62080000  1
  C  C131  1  0.87790000  0.10730000  0.11750000  1
  C  C132  1  0.89900000  0.31780000  0.91100000  1
  C  C133  1  0.90220000  0.43850000  0.87550000  1
  C  C134  1  0.91420000  0.82170000  0.41030000  1
  C  C135  1  0.91470000  0.94230000  0.37420000  1
  C  C136  1  0.92270000  0.24770000  0.93730000  1
  C  C137  1  0.92650000  0.51700000  0.85600000  1
  C  C138  1  0.93370000  0.75170000  0.43770000  1
  C  C139  1  0.93600000  0.85610000  0.65410000  1
  C  C140  1  0.93770000  0.02200000  0.35590000  1
  C  C141  1  0.94020000  0.36330000  0.15290000  1
  C  C142  1  0.94690000  0.30870000  0.48860000  1
  C  C143  1  0.94720000  0.92370000  0.62900000  1
  C  C144  1  0.95320000  0.81130000  0.98970000  1
  C  C145  1  0.95690000  0.43050000  0.12880000  1
  C  C146  1  0.96030000  0.23880000  0.50820000  1
  C  C147  1  0.97100000  0.74160000  0.00790000  1
  C  C148  1  0.98820000  0.88760000  0.85900000  1
  C  C149  1  0.98900000  0.39000000  0.35810000  1
  S  S150  1  0.01620000  0.40978000  0.92662000  1
  S  S151  1  0.02590000  0.91509000  0.42763000  1
  S  S152  1  0.49530000  0.25684000  0.75621000  1
  S  S153  1  0.50470000  0.74316000  0.24379000  1
  S  S154  1  0.97410000  0.08491000  0.57237000  1
  S  S155  1  0.98380000  0.59022000  0.07338000  1
  N  N156  1  0.02960000  0.84020000  0.69340000  1
  N  N157  1  0.03140000  0.38630000  0.52070000  1
  N  N158  1  0.03310000  0.34430000  0.19110000  1
  N  N159  1  0.03570000  0.88960000  0.02260000  1
  N  N160  1  0.15020000  0.82870000  0.84050000  1
  N  N161  1  0.15260000  0.33460000  0.33610000  1
  N  N162  1  0.19150000  0.11600000  0.65260000  1
  N  N163  1  0.19250000  0.18410000  0.63050000  1
  N  N164  1  0.20630000  0.61580000  0.14700000  1
  N  N165  1  0.20860000  0.68580000  0.12600000  1
  N  N166  1  0.32700000  0.91710000  0.92930000  1
  N  N167  1  0.32830000  0.42320000  0.42360000  1
  N  N168  1  0.47260000  0.15340000  0.63940000  1
  N  N169  1  0.47890000  0.10810000  0.68490000  1
  N  N170  1  0.48120000  0.41150000  0.55950000  1
  N  N171  1  0.48870000  0.94570000  0.08270000  1
  N  N172  1  0.51130000  0.05430000  0.91730000  1
  N  N173  1  0.51880000  0.58850000  0.44050000  1
  N  N174  1  0.52110000  0.89190000  0.31510000  1
  N  N175  1  0.52740000  0.84660000  0.36060000  1
  N  N176  1  0.67170000  0.57680000  0.57640000  1
  N  N177  1  0.67300000  0.08290000  0.07070000  1
  N  N178  1  0.79140000  0.31420000  0.87400000  1
  N  N179  1  0.79370000  0.38420000  0.85300000  1
  N  N180  1  0.80750000  0.81590000  0.36950000  1
  N  N181  1  0.80850000  0.88400000  0.34740000  1
  N  N182  1  0.84740000  0.66540000  0.66390000  1
  N  N183  1  0.84980000  0.17130000  0.15950000  1
  N  N184  1  0.96430000  0.11040000  0.97740000  1
  N  N185  1  0.96690000  0.65570000  0.80890000  1
  N  N186  1  0.96860000  0.61370000  0.47930000  1
  N  N187  1  0.97040000  0.15980000  0.30660000  1
  O  O188  1  0.04870000  0.05960000  0.10740000  1
  O  O189  1  0.04960000  0.55880000  0.60780000  1
  O  O190  1  0.08430000  0.17430000  0.19740000  1
  O  O191  1  0.08440000  0.67090000  0.69980000  1
  O  O192  1  0.18510000  0.55400000  0.51470000  1
  O  O193  1  0.18560000  0.05600000  0.01270000  1
  O  O194  1  0.38020000  0.55850000  0.53650000  1
  O  O195  1  0.38180000  0.06710000  0.02740000  1
  O  O196  1  0.61820000  0.93290000  0.97260000  1
  O  O197  1  0.61980000  0.44150000  0.46350000  1
  O  O198  1  0.81440000  0.94400000  0.98730000  1
  O  O199  1  0.81490000  0.44600000  0.48530000  1
  O  O200  1  0.91560000  0.32910000  0.30020000  1
  O  O201  1  0.91570000  0.82570000  0.80260000  1
  O  O202  1  0.95040000  0.44120000  0.39220000  1
  O  O203  1  0.95130000  0.94040000  0.89260000  1
