# generated using pymatgen
data_Zn3H24C48O13
_symmetry_space_group_name_H-M   'P 1'
_cell_length_a   15.57800000
_cell_length_b   15.57800000
_cell_length_c   16.52100000
_cell_angle_alpha   90.00000000
_cell_angle_beta   90.00000000
_cell_angle_gamma   120.00000000
_symmetry_Int_Tables_number   1
_chemical_formula_structural   Zn3H24C48O13
_chemical_formula_sum   'Zn6 H48 C96 O26'
_cell_volume   3472.08510649
_cell_formula_units_Z   2
loop_
 _symmetry_equiv_pos_site_id
 _symmetry_equiv_pos_as_xyz
  1  'x, y, z'
loop_
 _atom_site_type_symbol
 _atom_site_label
 _atom_site_symmetry_multiplicity
 _atom_site_fract_x
 _atom_site_fract_y
 _atom_site_fract_z
 _atom_site_occupancy
  Zn  Zn0  1  0.74092000  0.25908000  0.25000000  1
  Zn  Zn1  1  0.74092000  0.48184000  0.25000000  1
  Zn  Zn2  1  0.51816000  0.25908000  0.25000000  1
  Zn  Zn3  1  0.48184000  0.74092000  0.75000000  1
  Zn  Zn4  1  0.25908000  0.51816000  0.75000000  1
  Zn  Zn5  1  0.25908000  0.74092000  0.75000000  1
  H  H6  1  0.98670000  0.42240000  0.80500000  1
  H  H7  1  0.98670000  0.56430000  0.69500000  1
  H  H8  1  0.83050000  0.28940000  0.78850000  1
  H  H9  1  0.83050000  0.54110000  0.71150000  1
  H  H10  1  0.76640000  0.28480000  0.60240000  1
  H  H11  1  0.76640000  0.48160000  0.89760000  1
  H  H12  1  0.76190000  0.30800000  0.02200000  1
  H  H13  1  0.76190000  0.45390000  0.47800000  1
  H  H14  1  0.71520000  0.23360000  0.89760000  1
  H  H15  1  0.71520000  0.48160000  0.60240000  1
  H  H16  1  0.71060000  0.16950000  0.71150000  1
  H  H17  1  0.71060000  0.54110000  0.78850000  1
  H  H18  1  0.69200000  0.23810000  0.47800000  1
  H  H19  1  0.69200000  0.45390000  0.02200000  1
  H  H20  1  0.57760000  0.01330000  0.69500000  1
  H  H21  1  0.57760000  0.56430000  0.80500000  1
  H  H22  1  0.56430000  0.57760000  0.30500000  1
  H  H23  1  0.56430000  0.98670000  0.19500000  1
  H  H24  1  0.54610000  0.23810000  0.02200000  1
  H  H25  1  0.54610000  0.30800000  0.47800000  1
  H  H26  1  0.54110000  0.71060000  0.28850000  1
  H  H27  1  0.54110000  0.83050000  0.21150000  1
  H  H28  1  0.51840000  0.23360000  0.60240000  1
  H  H29  1  0.51840000  0.28480000  0.89760000  1
  H  H30  1  0.48160000  0.71520000  0.10240000  1
  H  H31  1  0.48160000  0.76640000  0.39760000  1
  H  H32  1  0.45890000  0.16950000  0.78850000  1
  H  H33  1  0.45890000  0.28940000  0.71150000  1
  H  H34  1  0.45390000  0.69200000  0.52200000  1
  H  H35  1  0.45390000  0.76190000  0.97800000  1
  H  H36  1  0.43570000  0.01330000  0.80500000  1
  H  H37  1  0.43570000  0.42240000  0.69500000  1
  H  H38  1  0.42240000  0.43570000  0.19500000  1
  H  H39  1  0.42240000  0.98670000  0.30500000  1
  H  H40  1  0.30800000  0.54610000  0.97800000  1
  H  H41  1  0.30800000  0.76190000  0.52200000  1
  H  H42  1  0.28940000  0.45890000  0.21150000  1
  H  H43  1  0.28940000  0.83050000  0.28850000  1
  H  H44  1  0.28480000  0.51840000  0.39760000  1
  H  H45  1  0.28480000  0.76640000  0.10240000  1
  H  H46  1  0.23810000  0.54610000  0.52200000  1
  H  H47  1  0.23810000  0.69200000  0.97800000  1
  H  H48  1  0.23360000  0.51840000  0.10240000  1
  H  H49  1  0.23360000  0.71520000  0.39760000  1
  H  H50  1  0.16950000  0.45890000  0.28850000  1
  H  H51  1  0.16950000  0.71060000  0.21150000  1
  H  H52  1  0.01330000  0.43570000  0.30500000  1
  H  H53  1  0.01330000  0.57760000  0.19500000  1
  C  C54  1  0.97260000  0.45090000  0.92453000  1
  C  C55  1  0.97260000  0.52170000  0.57547000  1
  C  C56  1  0.94170000  0.40050000  0.84930000  1
  C  C57  1  0.94170000  0.54120000  0.65070000  1
  C  C58  1  0.93210000  0.46520000  0.43531000  1
  C  C59  1  0.93210000  0.46690000  0.06469000  1
  C  C60  1  0.90350000  0.41760000  0.99056000  1
  C  C61  1  0.90350000  0.48590000  0.50944000  1
  C  C62  1  0.86080000  0.42730000  0.36538000  1
  C  C63  1  0.86080000  0.43350000  0.13462000  1
  C  C64  1  0.84950000  0.32210000  0.83930000  1
  C  C65  1  0.84950000  0.52740000  0.66070000  1
  C  C66  1  0.80750000  0.33300000  0.97817000  1
  C  C67  1  0.80750000  0.47450000  0.52183000  1
  C  C68  1  0.78030000  0.28800000  0.90520000  1
  C  C69  1  0.78030000  0.49230000  0.59480000  1
  C  C70  1  0.71200000  0.21970000  0.59480000  1
  C  C71  1  0.71200000  0.49230000  0.90520000  1
  C  C72  1  0.67790000  0.15050000  0.66070000  1
  C  C73  1  0.67790000  0.52740000  0.83930000  1
  C  C74  1  0.66700000  0.19250000  0.52183000  1
  C  C75  1  0.66700000  0.47450000  0.97817000  1
  C  C76  1  0.59950000  0.05830000  0.65070000  1
  C  C77  1  0.59950000  0.54120000  0.84930000  1
  C  C78  1  0.58240000  0.09650000  0.50944000  1
  C  C79  1  0.58240000  0.48590000  0.99056000  1
  C  C80  1  0.57270000  0.13920000  0.13462000  1
  C  C81  1  0.57270000  0.43350000  0.36538000  1
  C  C82  1  0.56650000  0.13920000  0.36538000  1
  C  C83  1  0.56650000  0.42730000  0.13462000  1
  C  C84  1  0.54910000  0.02740000  0.57547000  1
  C  C85  1  0.54910000  0.52170000  0.92453000  1
  C  C86  1  0.54120000  0.59950000  0.34930000  1
  C  C87  1  0.54120000  0.94170000  0.15070000  1
  C  C88  1  0.53480000  0.06790000  0.06469000  1
  C  C89  1  0.53480000  0.46690000  0.43531000  1
  C  C90  1  0.53310000  0.06790000  0.43531000  1
  C  C91  1  0.53310000  0.46520000  0.06469000  1
  C  C92  1  0.52740000  0.67790000  0.33930000  1
  C  C93  1  0.52740000  0.84950000  0.16070000  1
  C  C94  1  0.52550000  0.19250000  0.97817000  1
  C  C95  1  0.52550000  0.33300000  0.52183000  1
  C  C96  1  0.52170000  0.54910000  0.42453000  1
  C  C97  1  0.52170000  0.97260000  0.07547000  1
  C  C98  1  0.51410000  0.09650000  0.99056000  1
  C  C99  1  0.51410000  0.41760000  0.50944000  1
  C  C100  1  0.50770000  0.21970000  0.90520000  1
  C  C101  1  0.50770000  0.28800000  0.59480000  1
  C  C102  1  0.49230000  0.71200000  0.40520000  1
  C  C103  1  0.49230000  0.78030000  0.09480000  1
  C  C104  1  0.48590000  0.58240000  0.49056000  1
  C  C105  1  0.48590000  0.90350000  0.00944000  1
  C  C106  1  0.47830000  0.02740000  0.92453000  1
  C  C107  1  0.47830000  0.45090000  0.57547000  1
  C  C108  1  0.47450000  0.66700000  0.47817000  1
  C  C109  1  0.47450000  0.80750000  0.02183000  1
  C  C110  1  0.47260000  0.15050000  0.83930000  1
  C  C111  1  0.47260000  0.32210000  0.66070000  1
  C  C112  1  0.46690000  0.53480000  0.93531000  1
  C  C113  1  0.46690000  0.93210000  0.56469000  1
  C  C114  1  0.46520000  0.53310000  0.56469000  1
  C  C115  1  0.46520000  0.93210000  0.93531000  1
  C  C116  1  0.45880000  0.05830000  0.84930000  1
  C  C117  1  0.45880000  0.40050000  0.65070000  1
  C  C118  1  0.45090000  0.47830000  0.07547000  1
  C  C119  1  0.45090000  0.97260000  0.42453000  1
  C  C120  1  0.43350000  0.57270000  0.86538000  1
  C  C121  1  0.43350000  0.86080000  0.63462000  1
  C  C122  1  0.42730000  0.56650000  0.63462000  1
  C  C123  1  0.42730000  0.86080000  0.86538000  1
  C  C124  1  0.41760000  0.51410000  0.00944000  1
  C  C125  1  0.41760000  0.90350000  0.49056000  1
  C  C126  1  0.40050000  0.45880000  0.15070000  1
  C  C127  1  0.40050000  0.94170000  0.34930000  1
  C  C128  1  0.33300000  0.52550000  0.02183000  1
  C  C129  1  0.33300000  0.80750000  0.47817000  1
  C  C130  1  0.32210000  0.47260000  0.16070000  1
  C  C131  1  0.32210000  0.84950000  0.33930000  1
  C  C132  1  0.28800000  0.50770000  0.09480000  1
  C  C133  1  0.28800000  0.78030000  0.40520000  1
  C  C134  1  0.21970000  0.50770000  0.40520000  1
  C  C135  1  0.21970000  0.71200000  0.09480000  1
  C  C136  1  0.19250000  0.52550000  0.47817000  1
  C  C137  1  0.19250000  0.66700000  0.02183000  1
  C  C138  1  0.15050000  0.47260000  0.33930000  1
  C  C139  1  0.15050000  0.67790000  0.16070000  1
  C  C140  1  0.13920000  0.56650000  0.86538000  1
  C  C141  1  0.13920000  0.57270000  0.63462000  1
  C  C142  1  0.09650000  0.51410000  0.49056000  1
  C  C143  1  0.09650000  0.58240000  0.00944000  1
  C  C144  1  0.06790000  0.53310000  0.93531000  1
  C  C145  1  0.06790000  0.53480000  0.56469000  1
  C  C146  1  0.05830000  0.45880000  0.34930000  1
  C  C147  1  0.05830000  0.59950000  0.15070000  1
  C  C148  1  0.02740000  0.47830000  0.42453000  1
  C  C149  1  0.02740000  0.54910000  0.07547000  1
  O  O150  1  0.85248000  0.36017000  0.17465000  1
  O  O151  1  0.85248000  0.49231000  0.32535000  1
  O  O152  1  0.81693000  0.33558000  0.35266000  1
  O  O153  1  0.81693000  0.48135000  0.14734000  1
  O  O154  1  0.66666667  0.33333333  0.25000000  1
  O  O155  1  0.66442000  0.18307000  0.14734000  1
  O  O156  1  0.66442000  0.48135000  0.35266000  1
  O  O157  1  0.63983000  0.14752000  0.32535000  1
  O  O158  1  0.63983000  0.49231000  0.17465000  1
  O  O159  1  0.51865000  0.18307000  0.35266000  1
  O  O160  1  0.51865000  0.33558000  0.14734000  1
  O  O161  1  0.50769000  0.14752000  0.17465000  1
  O  O162  1  0.50769000  0.36017000  0.32535000  1
  O  O163  1  0.49231000  0.63983000  0.67465000  1
  O  O164  1  0.49231000  0.85248000  0.82535000  1
  O  O165  1  0.48135000  0.66442000  0.85266000  1
  O  O166  1  0.48135000  0.81693000  0.64734000  1
  O  O167  1  0.36017000  0.50769000  0.82535000  1
  O  O168  1  0.36017000  0.85248000  0.67465000  1
  O  O169  1  0.33558000  0.51865000  0.64734000  1
  O  O170  1  0.33558000  0.81693000  0.85266000  1
  O  O171  1  0.33333333  0.66666667  0.75000000  1
  O  O172  1  0.18307000  0.51865000  0.85266000  1
  O  O173  1  0.18307000  0.66442000  0.64734000  1
  O  O174  1  0.14752000  0.50769000  0.67465000  1
  O  O175  1  0.14752000  0.63983000  0.82535000  1
