# generated using pymatgen
data_ZnH8C14N2O5
_symmetry_space_group_name_H-M   'P 1'
_cell_length_a   13.26500000
_cell_length_b   13.98300000
_cell_length_c   14.18900000
_cell_angle_alpha   112.06600000
_cell_angle_beta   90.00000000
_cell_angle_gamma   90.00000000
_symmetry_Int_Tables_number   1
_chemical_formula_structural   ZnH8C14N2O5
_chemical_formula_sum   'Zn4 H32 C56 N8 O20'
_cell_volume   2439.06179271
_cell_formula_units_Z   4
loop_
 _symmetry_equiv_pos_site_id
 _symmetry_equiv_pos_as_xyz
  1  'x, y, z'
loop_
 _atom_site_type_symbol
 _atom_site_label
 _atom_site_symmetry_multiplicity
 _atom_site_fract_x
 _atom_site_fract_y
 _atom_site_fract_z
 _atom_site_occupancy
  Zn  Zn0  1  0.05314000  0.59967000  0.55103000  1
  Zn  Zn1  1  0.44686000  0.59967000  0.05103000  1
  Zn  Zn2  1  0.55314000  0.40033000  0.94897000  1
  Zn  Zn3  1  0.94686000  0.40033000  0.44897000  1
  H  H4  1  0.00680000  0.98600000  0.71510000  1
  H  H5  1  0.04250000  0.18570000  0.34050000  1
  H  H6  1  0.06010000  0.25680000  0.63550000  1
  H  H7  1  0.07050000  0.11770000  0.69920000  1
  H  H8  1  0.20590000  0.89490000  0.15380000  1
  H  H9  1  0.21010000  0.51780000  0.79080000  1
  H  H10  1  0.23820000  0.26010000  0.34790000  1
  H  H11  1  0.24230000  0.72250000  0.58780000  1
  H  H12  1  0.25770000  0.72250000  0.08780000  1
  H  H13  1  0.26180000  0.26010000  0.84790000  1
  H  H14  1  0.28990000  0.51780000  0.29080000  1
  H  H15  1  0.29410000  0.89490000  0.65380000  1
  H  H16  1  0.42950000  0.11770000  0.19920000  1
  H  H17  1  0.43990000  0.25680000  0.13550000  1
  H  H18  1  0.45750000  0.18570000  0.84050000  1
  H  H19  1  0.49320000  0.98600000  0.21510000  1
  H  H20  1  0.50680000  0.01400000  0.78490000  1
  H  H21  1  0.54250000  0.81430000  0.15950000  1
  H  H22  1  0.56010000  0.74320000  0.86450000  1
  H  H23  1  0.57050000  0.88230000  0.80080000  1
  H  H24  1  0.70590000  0.10510000  0.34620000  1
  H  H25  1  0.71010000  0.48220000  0.70920000  1
  H  H26  1  0.73820000  0.73990000  0.15210000  1
  H  H27  1  0.74230000  0.27750000  0.91220000  1
  H  H28  1  0.75770000  0.27750000  0.41220000  1
  H  H29  1  0.76180000  0.73990000  0.65210000  1
  H  H30  1  0.78990000  0.48220000  0.20920000  1
  H  H31  1  0.79410000  0.10510000  0.84620000  1
  H  H32  1  0.92950000  0.88230000  0.30080000  1
  H  H33  1  0.93990000  0.74320000  0.36450000  1
  H  H34  1  0.95750000  0.81430000  0.65950000  1
  H  H35  1  0.99320000  0.01400000  0.28490000  1
  C  C36  1  0.02520000  0.83050000  0.65690000  1
  C  C37  1  0.05420000  0.93340000  0.69140000  1
  C  C38  1  0.07630000  0.44380000  0.63730000  1
  C  C39  1  0.10670000  0.29250000  0.68530000  1
  C  C40  1  0.12520000  0.39590000  0.70450000  1
  C  C41  1  0.15550000  0.24180000  0.73830000  1
  C  C42  1  0.15600000  0.95530000  0.68940000  1
  C  C43  1  0.16700000  0.44810000  0.40210000  1
  C  C44  1  0.19530000  0.06560000  0.72540000  1
  C  C45  1  0.19530000  0.77510000  0.61520000  1
  C  C46  1  0.19690000  0.44870000  0.77780000  1
  C  C47  1  0.22610000  0.87860000  0.65320000  1
  C  C48  1  0.22790000  0.29390000  0.81200000  1
  C  C49  1  0.24810000  0.39960000  0.83080000  1
  C  C50  1  0.25190000  0.39960000  0.33080000  1
  C  C51  1  0.27210000  0.29390000  0.31200000  1
  C  C52  1  0.27390000  0.87860000  0.15320000  1
  C  C53  1  0.30310000  0.44870000  0.27780000  1
  C  C54  1  0.30470000  0.06560000  0.22540000  1
  C  C55  1  0.30470000  0.77510000  0.11520000  1
  C  C56  1  0.33300000  0.44810000  0.90210000  1
  C  C57  1  0.34400000  0.95530000  0.18940000  1
  C  C58  1  0.34450000  0.24180000  0.23830000  1
  C  C59  1  0.37480000  0.39590000  0.20450000  1
  C  C60  1  0.39330000  0.29250000  0.18530000  1
  C  C61  1  0.42370000  0.44380000  0.13730000  1
  C  C62  1  0.44580000  0.93340000  0.19140000  1
  C  C63  1  0.47480000  0.83050000  0.15690000  1
  C  C64  1  0.52520000  0.16950000  0.84310000  1
  C  C65  1  0.55420000  0.06660000  0.80860000  1
  C  C66  1  0.57630000  0.55620000  0.86270000  1
  C  C67  1  0.60670000  0.70750000  0.81470000  1
  C  C68  1  0.62520000  0.60410000  0.79550000  1
  C  C69  1  0.65550000  0.75820000  0.76170000  1
  C  C70  1  0.65600000  0.04470000  0.81060000  1
  C  C71  1  0.66700000  0.55190000  0.09790000  1
  C  C72  1  0.69530000  0.22490000  0.88480000  1
  C  C73  1  0.69530000  0.93440000  0.77460000  1
  C  C74  1  0.69690000  0.55130000  0.72220000  1
  C  C75  1  0.72610000  0.12140000  0.84680000  1
  C  C76  1  0.72790000  0.70610000  0.68800000  1
  C  C77  1  0.74810000  0.60040000  0.66920000  1
  C  C78  1  0.75190000  0.60040000  0.16920000  1
  C  C79  1  0.77210000  0.70610000  0.18800000  1
  C  C80  1  0.77390000  0.12140000  0.34680000  1
  C  C81  1  0.80310000  0.55130000  0.22220000  1
  C  C82  1  0.80470000  0.22490000  0.38480000  1
  C  C83  1  0.80470000  0.93440000  0.27460000  1
  C  C84  1  0.83300000  0.55190000  0.59790000  1
  C  C85  1  0.84400000  0.04470000  0.31060000  1
  C  C86  1  0.84450000  0.75820000  0.26170000  1
  C  C87  1  0.87480000  0.60410000  0.29550000  1
  C  C88  1  0.89330000  0.70750000  0.31470000  1
  C  C89  1  0.92370000  0.55620000  0.36270000  1
  C  C90  1  0.94580000  0.06660000  0.30860000  1
  C  C91  1  0.97480000  0.16950000  0.34310000  1
  N  N92  1  0.09410000  0.75188000  0.61883000  1
  N  N93  1  0.13124000  0.13713000  0.71792000  1
  N  N94  1  0.36876000  0.13713000  0.21792000  1
  N  N95  1  0.40590000  0.75188000  0.11883000  1
  N  N96  1  0.59410000  0.24812000  0.88117000  1
  N  N97  1  0.63124000  0.86287000  0.78208000  1
  N  N98  1  0.86876000  0.86287000  0.28208000  1
  N  N99  1  0.90590000  0.24812000  0.38117000  1
  O  O100  1  0.01328000  0.39067000  0.57609000  1
  O  O101  1  0.09174000  0.39407000  0.39768000  1
  O  O102  1  0.10276000  0.53440000  0.64920000  1
  O  O103  1  0.17653000  0.54068000  0.46151000  1
  O  O104  1  0.21672000  0.08200000  0.25248000  1
  O  O105  1  0.28328000  0.08200000  0.75248000  1
  O  O106  1  0.32347000  0.54068000  0.96151000  1
  O  O107  1  0.39724000  0.53440000  0.14920000  1
  O  O108  1  0.40826000  0.39407000  0.89768000  1
  O  O109  1  0.48672000  0.39067000  0.07609000  1
  O  O110  1  0.51328000  0.60933000  0.92391000  1
  O  O111  1  0.59174000  0.60593000  0.10232000  1
  O  O112  1  0.60276000  0.46560000  0.85080000  1
  O  O113  1  0.67653000  0.45932000  0.03849000  1
  O  O114  1  0.71672000  0.91800000  0.24752000  1
  O  O115  1  0.78328000  0.91800000  0.74752000  1
  O  O116  1  0.82347000  0.45932000  0.53849000  1
  O  O117  1  0.89724000  0.46560000  0.35080000  1
  O  O118  1  0.90826000  0.60593000  0.60232000  1
  O  O119  1  0.98672000  0.60933000  0.42391000  1
