# generated using pymatgen
data_MgH8C12(NO2)2
_symmetry_space_group_name_H-M   'P 1'
_cell_length_a   9.88360000
_cell_length_b   10.98170000
_cell_length_c   12.86810000
_cell_angle_alpha   90.00000000
_cell_angle_beta   90.00000000
_cell_angle_gamma   99.38400000
_symmetry_Int_Tables_number   1
_chemical_formula_structural   MgH8C12(NO2)2
_chemical_formula_sum   'Mg4 H32 C48 N8 O16'
_cell_volume   1377.99639068
_cell_formula_units_Z   4
loop_
 _symmetry_equiv_pos_site_id
 _symmetry_equiv_pos_as_xyz
  1  'x, y, z'
loop_
 _atom_site_type_symbol
 _atom_site_label
 _atom_site_symmetry_multiplicity
 _atom_site_fract_x
 _atom_site_fract_y
 _atom_site_fract_z
 _atom_site_occupancy
  Mg  Mg0  1  0.12500000  0.75260000  0.76430000  1
  Mg  Mg1  1  0.37210000  0.25030000  0.26510000  1
  Mg  Mg2  1  0.62790000  0.74970000  0.76510000  1
  Mg  Mg3  1  0.87500000  0.24740000  0.26430000  1
  H  H4  1  0.05040000  0.49610000  0.93370000  1
  H  H5  1  0.05340000  0.36350000  0.07220000  1
  H  H6  1  0.08650000  0.13860000  0.39990000  1
  H  H7  1  0.09950000  0.01150000  0.53880000  1
  H  H8  1  0.30520000  0.87640000  0.94180000  1
  H  H9  1  0.30660000  0.00290000  0.08210000  1
  H  H10  1  0.33310000  0.64880000  0.06480000  1
  H  H11  1  0.33333333  0.63480000  0.62810000  1
  H  H12  1  0.34640000  0.50180000  0.49260000  1
  H  H13  1  0.35050000  0.52440000  0.20130000  1
  H  H14  1  0.37660000  0.24660000  0.01810000  1
  H  H15  1  0.38150000  0.98050000  0.32260000  1
  H  H16  1  0.38390000  0.37360000  0.87570000  1
  H  H17  1  0.38450000  0.25790000  0.50730000  1
  H  H18  1  0.39290000  0.84760000  0.46110000  1
  H  H19  1  0.39820000  0.13510000  0.65060000  1
  H  H20  1  0.60180000  0.86490000  0.15060000  1
  H  H21  1  0.60710000  0.15240000  0.96110000  1
  H  H22  1  0.61550000  0.74210000  0.00730000  1
  H  H23  1  0.61610000  0.62640000  0.37570000  1
  H  H24  1  0.61850000  0.01950000  0.82260000  1
  H  H25  1  0.62340000  0.75340000  0.51810000  1
  H  H26  1  0.64950000  0.47560000  0.70130000  1
  H  H27  1  0.65360000  0.49820000  0.99260000  1
  H  H28  1  0.66666667  0.36520000  0.12810000  1
  H  H29  1  0.66690000  0.35120000  0.56480000  1
  H  H30  1  0.69340000  0.99710000  0.58210000  1
  H  H31  1  0.69480000  0.12360000  0.44180000  1
  H  H32  1  0.90050000  0.98850000  0.03880000  1
  H  H33  1  0.91350000  0.86140000  0.89990000  1
  H  H34  1  0.94660000  0.63650000  0.57220000  1
  H  H35  1  0.94960000  0.50390000  0.43370000  1
  C  C36  1  0.00690000  0.10790000  0.43620000  1
  C  C37  1  0.01530000  0.03180000  0.51960000  1
  C  C38  1  0.02780000  0.60750000  0.55740000  1
  C  C39  1  0.02860000  0.52860000  0.47260000  1
  C  C40  1  0.09650000  0.10100000  0.16610000  1
  C  C41  1  0.10430000  0.01590000  0.07640000  1
  C  C42  1  0.15090000  0.48790000  0.44790000  1
  C  C43  1  0.15290000  0.39710000  0.35900000  1
  C  C44  1  0.22330000  0.90120000  0.96130000  1
  C  C45  1  0.22550000  0.97740000  0.04590000  1
  C  C46  1  0.25420000  0.60650000  0.59030000  1
  C  C47  1  0.26350000  0.52760000  0.50750000  1
  C  C48  1  0.34360000  0.56720000  0.05370000  1
  C  C49  1  0.34820000  0.60700000  0.85930000  1
  C  C50  1  0.35050000  0.52210000  0.95230000  1
  C  C51  1  0.35220000  0.49190000  0.13460000  1
  C  C52  1  0.37040000  0.40470000  0.94140000  1
  C  C53  1  0.37080000  0.32940000  0.02860000  1
  C  C54  1  0.38460000  0.01200000  0.38980000  1
  C  C55  1  0.38670000  0.17430000  0.49770000  1
  C  C56  1  0.39040000  0.93060000  0.47330000  1
  C  C57  1  0.39230000  0.97590000  0.57430000  1
  C  C58  1  0.39320000  0.09990000  0.58470000  1
  C  C59  1  0.40360000  0.89350000  0.66550000  1
  C  C60  1  0.59640000  0.10650000  0.16550000  1
  C  C61  1  0.60680000  0.90010000  0.08470000  1
  C  C62  1  0.60770000  0.02410000  0.07430000  1
  C  C63  1  0.60960000  0.06940000  0.97330000  1
  C  C64  1  0.61330000  0.82570000  0.99770000  1
  C  C65  1  0.61540000  0.98800000  0.88980000  1
  C  C66  1  0.62920000  0.67060000  0.52860000  1
  C  C67  1  0.62960000  0.59530000  0.44140000  1
  C  C68  1  0.64780000  0.50810000  0.63460000  1
  C  C69  1  0.64950000  0.47790000  0.45230000  1
  C  C70  1  0.65180000  0.39300000  0.35930000  1
  C  C71  1  0.65640000  0.43280000  0.55370000  1
  C  C72  1  0.73650000  0.47240000  0.00750000  1
  C  C73  1  0.74580000  0.39350000  0.09030000  1
  C  C74  1  0.77450000  0.02260000  0.54590000  1
  C  C75  1  0.77670000  0.09880000  0.46130000  1
  C  C76  1  0.84710000  0.60290000  0.85900000  1
  C  C77  1  0.84910000  0.51210000  0.94790000  1
  C  C78  1  0.89570000  0.98410000  0.57640000  1
  C  C79  1  0.90350000  0.89900000  0.66610000  1
  C  C80  1  0.97140000  0.47140000  0.97260000  1
  C  C81  1  0.97220000  0.39250000  0.05740000  1
  C  C82  1  0.98470000  0.96820000  0.01960000  1
  C  C83  1  0.99310000  0.89210000  0.93620000  1
  N  N84  1  0.11190000  0.86020000  0.90510000  1
  N  N85  1  0.13640000  0.64450000  0.61910000  1
  N  N86  1  0.36360000  0.36780000  0.12420000  1
  N  N87  1  0.38350000  0.13050000  0.40240000  1
  N  N88  1  0.61650000  0.86950000  0.90240000  1
  N  N89  1  0.63640000  0.63220000  0.62420000  1
  N  N90  1  0.86360000  0.35550000  0.11910000  1
  N  N91  1  0.88810000  0.13980000  0.40510000  1
  O  O92  1  0.01760000  0.86470000  0.68320000  1
  O  O93  1  0.05030000  0.37130000  0.30640000  1
  O  O94  1  0.20400000  0.13370000  0.21950000  1
  O  O95  1  0.23620000  0.64100000  0.84580000  1
  O  O96  1  0.26460000  0.35760000  0.35090000  1
  O  O97  1  0.30260000  0.87120000  0.72750000  1
  O  O98  1  0.45290000  0.63000000  0.80730000  1
  O  O99  1  0.48500000  0.14600000  0.17540000  1
  O  O100  1  0.51500000  0.85400000  0.67540000  1
  O  O101  1  0.54710000  0.37000000  0.30730000  1
  O  O102  1  0.69740000  0.12880000  0.22750000  1
  O  O103  1  0.73540000  0.64240000  0.85090000  1
  O  O104  1  0.76380000  0.35900000  0.34580000  1
  O  O105  1  0.79600000  0.86630000  0.71950000  1
  O  O106  1  0.94970000  0.62870000  0.80640000  1
  O  O107  1  0.98240000  0.13530000  0.18320000  1
