# generated using pymatgen
data_Co2H9C17O9
_symmetry_space_group_name_H-M   'P 1'
_cell_length_a   11.06600000
_cell_length_b   13.82140000
_cell_length_c   16.83870000
_cell_angle_alpha   90.00000000
_cell_angle_beta   103.31000000
_cell_angle_gamma   90.00000000
_symmetry_Int_Tables_number   1
_chemical_formula_structural   Co2H9C17O9
_chemical_formula_sum   'Co8 H36 C68 O36'
_cell_volume   2506.25933962
_cell_formula_units_Z   4
loop_
 _symmetry_equiv_pos_site_id
 _symmetry_equiv_pos_as_xyz
  1  'x, y, z'
loop_
 _atom_site_type_symbol
 _atom_site_label
 _atom_site_symmetry_multiplicity
 _atom_site_fract_x
 _atom_site_fract_y
 _atom_site_fract_z
 _atom_site_occupancy
  Co  Co0  1  0.05672000  0.08925000  0.17407000  1
  Co  Co1  1  0.14177000  0.99727000  0.99494000  1
  Co  Co2  1  0.35823000  0.49727000  0.50506000  1
  Co  Co3  1  0.44328000  0.58925000  0.32593000  1
  Co  Co4  1  0.55672000  0.41075000  0.67407000  1
  Co  Co5  1  0.64177000  0.50273000  0.49494000  1
  Co  Co6  1  0.85823000  0.00273000  0.00506000  1
  Co  Co7  1  0.94328000  0.91075000  0.82593000  1
  H  H8  1  0.03480000  0.46160000  0.59950000  1
  H  H9  1  0.03800000  0.94100000  0.09800000  1
  H  H10  1  0.04870000  0.59540000  0.88350000  1
  H  H11  1  0.05700000  0.37700000  0.93500000  1
  H  H12  1  0.08890000  0.58120000  0.19480000  1
  H  H13  1  0.19200000  0.36500000  0.93650000  1
  H  H14  1  0.22000000  0.92370000  0.68320000  1
  H  H15  1  0.22970000  0.72620000  0.09260000  1
  H  H16  1  0.23440000  0.93790000  0.43610000  1
  H  H17  1  0.26560000  0.43790000  0.06390000  1
  H  H18  1  0.27030000  0.22620000  0.40740000  1
  H  H19  1  0.28000000  0.42370000  0.81680000  1
  H  H20  1  0.30800000  0.86500000  0.56350000  1
  H  H21  1  0.41110000  0.08120000  0.30520000  1
  H  H22  1  0.44300000  0.87700000  0.56500000  1
  H  H23  1  0.45130000  0.09540000  0.61650000  1
  H  H24  1  0.46200000  0.44100000  0.40200000  1
  H  H25  1  0.46520000  0.96160000  0.90050000  1
  H  H26  1  0.53480000  0.03840000  0.09950000  1
  H  H27  1  0.53800000  0.55900000  0.59800000  1
  H  H28  1  0.54870000  0.90460000  0.38350000  1
  H  H29  1  0.55700000  0.12300000  0.43500000  1
  H  H30  1  0.58890000  0.91880000  0.69480000  1
  H  H31  1  0.69200000  0.13500000  0.43650000  1
  H  H32  1  0.72000000  0.57630000  0.18320000  1
  H  H33  1  0.72970000  0.77380000  0.59260000  1
  H  H34  1  0.73440000  0.56210000  0.93610000  1
  H  H35  1  0.76560000  0.06210000  0.56390000  1
  H  H36  1  0.77030000  0.27380000  0.90740000  1
  H  H37  1  0.78000000  0.07630000  0.31680000  1
  H  H38  1  0.80800000  0.63500000  0.06350000  1
  H  H39  1  0.91110000  0.41880000  0.80520000  1
  H  H40  1  0.94300000  0.62300000  0.06500000  1
  H  H41  1  0.95130000  0.40460000  0.11650000  1
  H  H42  1  0.96200000  0.05900000  0.90200000  1
  H  H43  1  0.96520000  0.53840000  0.40050000  1
  C  C44  1  0.02180000  0.57440000  0.22088000  1
  C  C45  1  0.04610000  0.55960000  0.30484000  1
  C  C46  1  0.05130000  0.44980000  0.65661000  1
  C  C47  1  0.08390000  0.77470000  0.95330000  1
  C  C48  1  0.10020000  0.42090000  0.82538000  1
  C  C49  1  0.10350000  0.59170000  0.93588000  1
  C  C50  1  0.12390000  0.40930000  0.91671000  1
  C  C51  1  0.13250000  0.67590000  0.98260000  1
  C  C52  1  0.15360000  0.50280000  0.96507000  1
  C  C53  1  0.16130000  0.07510000  0.32436000  1
  C  C54  1  0.17360000  0.44200000  0.70162000  1
  C  C55  1  0.17880000  0.55270000  0.35284000  1
  C  C56  1  0.19670000  0.42820000  0.78600000  1
  C  C57  1  0.21000000  0.66950000  0.06021000  1
  C  C58  1  0.22070000  0.95320000  0.84019000  1
  C  C59  1  0.23130000  0.49830000  0.04308000  1
  C  C60  1  0.24120000  0.08090000  0.40946000  1
  C  C61  1  0.25880000  0.58090000  0.09054000  1
  C  C62  1  0.26870000  0.99830000  0.45692000  1
  C  C63  1  0.27930000  0.45320000  0.65981000  1
  C  C64  1  0.29000000  0.16950000  0.43979000  1
  C  C65  1  0.30330000  0.92820000  0.71400000  1
  C  C66  1  0.32120000  0.05270000  0.14716000  1
  C  C67  1  0.32640000  0.94200000  0.79838000  1
  C  C68  1  0.33870000  0.57510000  0.17564000  1
  C  C69  1  0.34640000  0.00280000  0.53493000  1
  C  C70  1  0.36750000  0.17590000  0.51740000  1
  C  C71  1  0.37610000  0.90930000  0.58329000  1
  C  C72  1  0.39650000  0.09170000  0.56412000  1
  C  C73  1  0.39980000  0.92090000  0.67462000  1
  C  C74  1  0.41610000  0.27470000  0.54670000  1
  C  C75  1  0.44870000  0.94980000  0.84339000  1
  C  C76  1  0.45390000  0.05960000  0.19516000  1
  C  C77  1  0.47820000  0.07440000  0.27912000  1
  C  C78  1  0.52180000  0.92560000  0.72088000  1
  C  C79  1  0.54610000  0.94040000  0.80484000  1
  C  C80  1  0.55130000  0.05020000  0.15661000  1
  C  C81  1  0.58390000  0.72530000  0.45330000  1
  C  C82  1  0.60020000  0.07910000  0.32538000  1
  C  C83  1  0.60350000  0.90830000  0.43588000  1
  C  C84  1  0.62390000  0.09070000  0.41671000  1
  C  C85  1  0.63250000  0.82410000  0.48260000  1
  C  C86  1  0.65360000  0.99720000  0.46507000  1
  C  C87  1  0.66130000  0.42490000  0.82436000  1
  C  C88  1  0.67360000  0.05800000  0.20162000  1
  C  C89  1  0.67880000  0.94730000  0.85284000  1
  C  C90  1  0.69670000  0.07180000  0.28600000  1
  C  C91  1  0.71000000  0.83050000  0.56021000  1
  C  C92  1  0.72070000  0.54680000  0.34019000  1
  C  C93  1  0.73130000  0.00170000  0.54308000  1
  C  C94  1  0.74120000  0.41910000  0.90946000  1
  C  C95  1  0.75880000  0.91910000  0.59054000  1
  C  C96  1  0.76870000  0.50170000  0.95692000  1
  C  C97  1  0.77930000  0.04680000  0.15981000  1
  C  C98  1  0.79000000  0.33050000  0.93979000  1
  C  C99  1  0.80330000  0.57180000  0.21400000  1
  C  C100  1  0.82120000  0.44730000  0.64716000  1
  C  C101  1  0.82640000  0.55800000  0.29838000  1
  C  C102  1  0.83870000  0.92490000  0.67564000  1
  C  C103  1  0.84640000  0.49720000  0.03493000  1
  C  C104  1  0.86750000  0.32410000  0.01740000  1
  C  C105  1  0.87610000  0.59070000  0.08329000  1
  C  C106  1  0.89650000  0.40830000  0.06412000  1
  C  C107  1  0.89980000  0.57910000  0.17462000  1
  C  C108  1  0.91610000  0.22530000  0.04670000  1
  C  C109  1  0.94870000  0.55020000  0.34339000  1
  C  C110  1  0.95390000  0.44040000  0.69516000  1
  C  C111  1  0.97820000  0.42560000  0.77912000  1
  O  O112  1  0.00855000  0.21939000  0.10741000  1
  O  O113  1  0.03072000  0.99278000  0.08246000  1
  O  O114  1  0.11548000  0.15402000  0.29035000  1
  O  O115  1  0.11675000  0.92130000  0.80238000  1
  O  O116  1  0.13840000  0.84440000  0.99286000  1
  O  O117  1  0.14380000  0.99616000  0.28704000  1
  O  O118  1  0.19945000  0.49428000  0.41248000  1
  O  O119  1  0.24351000  0.10505000  0.17039000  1
  O  O120  1  0.24490000  0.99483000  0.90841000  1
  O  O121  1  0.25510000  0.49483000  0.59159000  1
  O  O122  1  0.25649000  0.60505000  0.32961000  1
  O  O123  1  0.30055000  0.99428000  0.08752000  1
  O  O124  1  0.35620000  0.49616000  0.21296000  1
  O  O125  1  0.36160000  0.34440000  0.50714000  1
  O  O126  1  0.38325000  0.42130000  0.69762000  1
  O  O127  1  0.38452000  0.65402000  0.20965000  1
  O  O128  1  0.46928000  0.49278000  0.41754000  1
  O  O129  1  0.49145000  0.71939000  0.39259000  1
  O  O130  1  0.50855000  0.28061000  0.60741000  1
  O  O131  1  0.53072000  0.50722000  0.58246000  1
  O  O132  1  0.61548000  0.34598000  0.79035000  1
  O  O133  1  0.61675000  0.57870000  0.30238000  1
  O  O134  1  0.63840000  0.65560000  0.49286000  1
  O  O135  1  0.64380000  0.50384000  0.78704000  1
  O  O136  1  0.69945000  0.00572000  0.91248000  1
  O  O137  1  0.74351000  0.39495000  0.67039000  1
  O  O138  1  0.74490000  0.50517000  0.40841000  1
  O  O139  1  0.75510000  0.00517000  0.09159000  1
  O  O140  1  0.75649000  0.89495000  0.82961000  1
  O  O141  1  0.80055000  0.50572000  0.58752000  1
  O  O142  1  0.85620000  0.00384000  0.71296000  1
  O  O143  1  0.86160000  0.15560000  0.00714000  1
  O  O144  1  0.88325000  0.07870000  0.19762000  1
  O  O145  1  0.88452000  0.84598000  0.70965000  1
  O  O146  1  0.96928000  0.00722000  0.91754000  1
  O  O147  1  0.99145000  0.78061000  0.89259000  1
