# generated using pymatgen
data_Zn4H22C42O13
_symmetry_space_group_name_H-M   'P 1'
_cell_length_a   17.12380000
_cell_length_b   20.11500000
_cell_length_c   27.12910000
_cell_angle_alpha   90.00000000
_cell_angle_beta   90.00000000
_cell_angle_gamma   90.00000000
_symmetry_Int_Tables_number   1
_chemical_formula_structural   Zn4H22C42O13
_chemical_formula_sum   'Zn16 H88 C168 O52'
_cell_volume   9344.48927910
_cell_formula_units_Z   4
loop_
 _symmetry_equiv_pos_site_id
 _symmetry_equiv_pos_as_xyz
  1  'x, y, z'
loop_
 _atom_site_type_symbol
 _atom_site_label
 _atom_site_symmetry_multiplicity
 _atom_site_fract_x
 _atom_site_fract_y
 _atom_site_fract_z
 _atom_site_occupancy
  Zn  Zn0  1  0.10545000  0.25000000  0.03265000  1
  Zn  Zn1  1  0.11372000  0.25000000  0.14912000  1
  Zn  Zn2  1  0.23995000  0.17138000  0.09043000  1
  Zn  Zn3  1  0.23995000  0.32862000  0.09043000  1
  Zn  Zn4  1  0.26005000  0.67138000  0.59043000  1
  Zn  Zn5  1  0.26005000  0.82862000  0.59043000  1
  Zn  Zn6  1  0.38628000  0.75000000  0.64912000  1
  Zn  Zn7  1  0.39455000  0.75000000  0.53265000  1
  Zn  Zn8  1  0.60545000  0.25000000  0.46735000  1
  Zn  Zn9  1  0.61372000  0.25000000  0.35088000  1
  Zn  Zn10  1  0.73995000  0.17138000  0.40957000  1
  Zn  Zn11  1  0.73995000  0.32862000  0.40957000  1
  Zn  Zn12  1  0.76005000  0.67138000  0.90957000  1
  Zn  Zn13  1  0.76005000  0.82862000  0.90957000  1
  Zn  Zn14  1  0.88628000  0.75000000  0.85088000  1
  Zn  Zn15  1  0.89455000  0.75000000  0.96735000  1
  H  H16  1  0.01500000  0.65420000  0.59960000  1
  H  H17  1  0.01500000  0.84580000  0.59960000  1
  H  H18  1  0.11740000  0.15290000  0.39670000  1
  H  H19  1  0.11740000  0.34710000  0.39670000  1
  H  H20  1  0.12230000  0.75000000  0.97130000  1
  H  H21  1  0.12450000  0.12560000  0.27230000  1
  H  H22  1  0.12450000  0.37440000  0.27230000  1
  H  H23  1  0.13740000  0.75000000  0.82690000  1
  H  H24  1  0.14100000  0.05710000  0.33850000  1
  H  H25  1  0.14100000  0.44290000  0.33850000  1
  H  H26  1  0.15100000  0.14880000  0.90300000  1
  H  H27  1  0.15100000  0.35120000  0.90300000  1
  H  H28  1  0.18450000  0.02270000  0.77480000  1
  H  H29  1  0.18450000  0.09520000  0.83210000  1
  H  H30  1  0.18450000  0.40480000  0.83210000  1
  H  H31  1  0.18450000  0.47730000  0.77480000  1
  H  H32  1  0.21370000  0.52900000  0.47860000  1
  H  H33  1  0.21370000  0.97100000  0.47860000  1
  H  H34  1  0.21810000  0.52710000  0.70380000  1
  H  H35  1  0.21810000  0.97290000  0.70380000  1
  H  H36  1  0.23250000  0.25000000  0.33260000  1
  H  H37  1  0.23590000  0.25000000  0.46810000  1
  H  H38  1  0.26410000  0.75000000  0.96810000  1
  H  H39  1  0.26750000  0.75000000  0.83260000  1
  H  H40  1  0.28190000  0.02710000  0.20380000  1
  H  H41  1  0.28190000  0.47290000  0.20380000  1
  H  H42  1  0.28630000  0.02900000  0.97860000  1
  H  H43  1  0.28630000  0.47100000  0.97860000  1
  H  H44  1  0.31550000  0.52270000  0.27480000  1
  H  H45  1  0.31550000  0.59520000  0.33210000  1
  H  H46  1  0.31550000  0.90480000  0.33210000  1
  H  H47  1  0.31550000  0.97730000  0.27480000  1
  H  H48  1  0.34900000  0.64880000  0.40300000  1
  H  H49  1  0.34900000  0.85120000  0.40300000  1
  H  H50  1  0.35900000  0.55710000  0.83850000  1
  H  H51  1  0.35900000  0.94290000  0.83850000  1
  H  H52  1  0.36260000  0.25000000  0.32690000  1
  H  H53  1  0.37550000  0.62560000  0.77230000  1
  H  H54  1  0.37550000  0.87440000  0.77230000  1
  H  H55  1  0.37770000  0.25000000  0.47130000  1
  H  H56  1  0.38260000  0.65290000  0.89670000  1
  H  H57  1  0.38260000  0.84710000  0.89670000  1
  H  H58  1  0.48500000  0.15420000  0.09960000  1
  H  H59  1  0.48500000  0.34580000  0.09960000  1
  H  H60  1  0.51500000  0.65420000  0.90040000  1
  H  H61  1  0.51500000  0.84580000  0.90040000  1
  H  H62  1  0.61740000  0.15290000  0.10330000  1
  H  H63  1  0.61740000  0.34710000  0.10330000  1
  H  H64  1  0.62230000  0.75000000  0.52870000  1
  H  H65  1  0.62450000  0.12560000  0.22770000  1
  H  H66  1  0.62450000  0.37440000  0.22770000  1
  H  H67  1  0.63740000  0.75000000  0.67310000  1
  H  H68  1  0.64100000  0.05710000  0.16150000  1
  H  H69  1  0.64100000  0.44290000  0.16150000  1
  H  H70  1  0.65100000  0.14880000  0.59700000  1
  H  H71  1  0.65100000  0.35120000  0.59700000  1
  H  H72  1  0.68450000  0.02270000  0.72520000  1
  H  H73  1  0.68450000  0.09520000  0.66790000  1
  H  H74  1  0.68450000  0.40480000  0.66790000  1
  H  H75  1  0.68450000  0.47730000  0.72520000  1
  H  H76  1  0.71370000  0.52900000  0.02140000  1
  H  H77  1  0.71370000  0.97100000  0.02140000  1
  H  H78  1  0.71810000  0.52710000  0.79620000  1
  H  H79  1  0.71810000  0.97290000  0.79620000  1
  H  H80  1  0.73250000  0.25000000  0.16740000  1
  H  H81  1  0.73590000  0.25000000  0.03190000  1
  H  H82  1  0.76410000  0.75000000  0.53190000  1
  H  H83  1  0.76750000  0.75000000  0.66740000  1
  H  H84  1  0.78190000  0.02710000  0.29620000  1
  H  H85  1  0.78190000  0.47290000  0.29620000  1
  H  H86  1  0.78630000  0.02900000  0.52140000  1
  H  H87  1  0.78630000  0.47100000  0.52140000  1
  H  H88  1  0.81550000  0.52270000  0.22520000  1
  H  H89  1  0.81550000  0.59520000  0.16790000  1
  H  H90  1  0.81550000  0.90480000  0.16790000  1
  H  H91  1  0.81550000  0.97730000  0.22520000  1
  H  H92  1  0.84900000  0.64880000  0.09700000  1
  H  H93  1  0.84900000  0.85120000  0.09700000  1
  H  H94  1  0.85900000  0.55710000  0.66150000  1
  H  H95  1  0.85900000  0.94290000  0.66150000  1
  H  H96  1  0.86260000  0.25000000  0.17310000  1
  H  H97  1  0.87550000  0.62560000  0.72770000  1
  H  H98  1  0.87550000  0.87440000  0.72770000  1
  H  H99  1  0.87770000  0.25000000  0.02870000  1
  H  H100  1  0.88260000  0.65290000  0.60330000  1
  H  H101  1  0.88260000  0.84710000  0.60330000  1
  H  H102  1  0.98500000  0.15420000  0.40040000  1
  H  H103  1  0.98500000  0.34580000  0.40040000  1
  C  C104  1  0.01190000  0.19430000  0.40150000  1
  C  C105  1  0.01190000  0.30570000  0.40150000  1
  C  C106  1  0.02820000  0.75000000  0.59480000  1
  C  C107  1  0.02900000  0.75000000  0.89570000  1
  C  C108  1  0.09190000  0.19350000  0.39940000  1
  C  C109  1  0.09190000  0.30650000  0.39940000  1
  C  C110  1  0.11530000  0.75000000  0.59410000  1
  C  C111  1  0.11880000  0.75000000  0.89850000  1
  C  C112  1  0.13500000  0.25000000  0.40100000  1
  C  C113  1  0.15010000  0.75000000  0.94190000  1
  C  C114  1  0.16110000  0.75000000  0.85770000  1
  C  C115  1  0.16530000  0.09510000  0.27170000  1
  C  C116  1  0.16530000  0.40490000  0.27170000  1
  C  C117  1  0.17710000  0.05530000  0.31290000  1
  C  C118  1  0.17710000  0.44470000  0.31290000  1
  C  C119  1  0.18410000  0.11230000  0.90460000  1
  C  C120  1  0.18410000  0.38770000  0.90460000  1
  C  C121  1  0.19170000  0.13120000  0.18830000  1
  C  C122  1  0.19170000  0.36880000  0.18830000  1
  C  C123  1  0.20210000  0.13500000  0.99420000  1
  C  C124  1  0.20210000  0.36500000  0.99420000  1
  C  C125  1  0.20240000  0.07880000  0.86210000  1
  C  C126  1  0.20240000  0.42120000  0.86210000  1
  C  C127  1  0.20780000  0.09180000  0.23330000  1
  C  C128  1  0.20780000  0.40820000  0.23330000  1
  C  C129  1  0.21310000  0.09340000  0.94870000  1
  C  C130  1  0.21310000  0.40660000  0.94870000  1
  C  C131  1  0.21950000  0.25000000  0.40090000  1
  C  C132  1  0.22340000  0.50670000  0.40450000  1
  C  C133  1  0.22340000  0.99330000  0.40450000  1
  C  C134  1  0.22560000  0.50750000  0.77550000  1
  C  C135  1  0.22560000  0.99250000  0.77550000  1
  C  C136  1  0.23770000  0.01470000  0.31720000  1
  C  C137  1  0.23770000  0.48530000  0.31720000  1
  C  C138  1  0.23780000  0.75000000  0.93810000  1
  C  C139  1  0.23790000  0.54180000  0.44950000  1
  C  C140  1  0.23790000  0.95820000  0.44950000  1
  C  C141  1  0.23970000  0.75000000  0.86210000  1
  C  C142  1  0.24170000  0.54020000  0.73310000  1
  C  C143  1  0.24170000  0.95980000  0.73310000  1
  C  C144  1  0.24530000  0.02300000  0.86250000  1
  C  C145  1  0.24530000  0.47700000  0.86250000  1
  C  C146  1  0.25470000  0.52300000  0.36250000  1
  C  C147  1  0.25470000  0.97700000  0.36250000  1
  C  C148  1  0.25830000  0.04020000  0.23310000  1
  C  C149  1  0.25830000  0.45980000  0.23310000  1
  C  C150  1  0.26030000  0.25000000  0.36210000  1
  C  C151  1  0.26210000  0.04180000  0.94950000  1
  C  C152  1  0.26210000  0.45820000  0.94950000  1
  C  C153  1  0.26220000  0.25000000  0.43810000  1
  C  C154  1  0.26230000  0.51470000  0.81720000  1
  C  C155  1  0.26230000  0.98530000  0.81720000  1
  C  C156  1  0.27440000  0.00750000  0.27550000  1
  C  C157  1  0.27440000  0.49250000  0.27550000  1
  C  C158  1  0.27660000  0.00670000  0.90450000  1
  C  C159  1  0.27660000  0.49330000  0.90450000  1
  C  C160  1  0.28050000  0.75000000  0.90090000  1
  C  C161  1  0.28690000  0.59340000  0.44870000  1
  C  C162  1  0.28690000  0.90660000  0.44870000  1
  C  C163  1  0.29220000  0.59180000  0.73330000  1
  C  C164  1  0.29220000  0.90820000  0.73330000  1
  C  C165  1  0.29760000  0.57880000  0.36210000  1
  C  C166  1  0.29760000  0.92120000  0.36210000  1
  C  C167  1  0.29790000  0.63500000  0.49420000  1
  C  C168  1  0.29790000  0.86500000  0.49420000  1
  C  C169  1  0.30830000  0.63120000  0.68830000  1
  C  C170  1  0.30830000  0.86880000  0.68830000  1
  C  C171  1  0.31590000  0.61230000  0.40460000  1
  C  C172  1  0.31590000  0.88770000  0.40460000  1
  C  C173  1  0.32290000  0.55530000  0.81290000  1
  C  C174  1  0.32290000  0.94470000  0.81290000  1
  C  C175  1  0.33470000  0.59510000  0.77170000  1
  C  C176  1  0.33470000  0.90490000  0.77170000  1
  C  C177  1  0.33890000  0.25000000  0.35770000  1
  C  C178  1  0.34990000  0.25000000  0.44190000  1
  C  C179  1  0.36500000  0.75000000  0.90100000  1
  C  C180  1  0.38120000  0.25000000  0.39850000  1
  C  C181  1  0.38470000  0.25000000  0.09410000  1
  C  C182  1  0.40810000  0.69350000  0.89940000  1
  C  C183  1  0.40810000  0.80650000  0.89940000  1
  C  C184  1  0.47100000  0.25000000  0.39570000  1
  C  C185  1  0.47180000  0.25000000  0.09480000  1
  C  C186  1  0.48810000  0.69430000  0.90150000  1
  C  C187  1  0.48810000  0.80570000  0.90150000  1
  C  C188  1  0.51190000  0.19430000  0.09850000  1
  C  C189  1  0.51190000  0.30570000  0.09850000  1
  C  C190  1  0.52820000  0.75000000  0.90520000  1
  C  C191  1  0.52900000  0.75000000  0.60430000  1
  C  C192  1  0.59190000  0.19350000  0.10060000  1
  C  C193  1  0.59190000  0.30650000  0.10060000  1
  C  C194  1  0.61530000  0.75000000  0.90590000  1
  C  C195  1  0.61880000  0.75000000  0.60150000  1
  C  C196  1  0.63500000  0.25000000  0.09900000  1
  C  C197  1  0.65010000  0.75000000  0.55810000  1
  C  C198  1  0.66110000  0.75000000  0.64230000  1
  C  C199  1  0.66530000  0.09510000  0.22830000  1
  C  C200  1  0.66530000  0.40490000  0.22830000  1
  C  C201  1  0.67710000  0.05530000  0.18710000  1
  C  C202  1  0.67710000  0.44470000  0.18710000  1
  C  C203  1  0.68410000  0.11230000  0.59540000  1
  C  C204  1  0.68410000  0.38770000  0.59540000  1
  C  C205  1  0.69170000  0.13120000  0.31170000  1
  C  C206  1  0.69170000  0.36880000  0.31170000  1
  C  C207  1  0.70210000  0.13500000  0.50580000  1
  C  C208  1  0.70210000  0.36500000  0.50580000  1
  C  C209  1  0.70240000  0.07880000  0.63790000  1
  C  C210  1  0.70240000  0.42120000  0.63790000  1
  C  C211  1  0.70780000  0.09180000  0.26670000  1
  C  C212  1  0.70780000  0.40820000  0.26670000  1
  C  C213  1  0.71310000  0.09340000  0.55130000  1
  C  C214  1  0.71310000  0.40660000  0.55130000  1
  C  C215  1  0.71950000  0.25000000  0.09910000  1
  C  C216  1  0.72340000  0.50670000  0.09550000  1
  C  C217  1  0.72340000  0.99330000  0.09550000  1
  C  C218  1  0.72560000  0.50750000  0.72450000  1
  C  C219  1  0.72560000  0.99250000  0.72450000  1
  C  C220  1  0.73770000  0.01470000  0.18280000  1
  C  C221  1  0.73770000  0.48530000  0.18280000  1
  C  C222  1  0.73780000  0.75000000  0.56190000  1
  C  C223  1  0.73790000  0.54180000  0.05050000  1
  C  C224  1  0.73790000  0.95820000  0.05050000  1
  C  C225  1  0.73970000  0.75000000  0.63790000  1
  C  C226  1  0.74170000  0.54020000  0.76690000  1
  C  C227  1  0.74170000  0.95980000  0.76690000  1
  C  C228  1  0.74530000  0.02300000  0.63750000  1
  C  C229  1  0.74530000  0.47700000  0.63750000  1
  C  C230  1  0.75470000  0.52300000  0.13750000  1
  C  C231  1  0.75470000  0.97700000  0.13750000  1
  C  C232  1  0.75830000  0.04020000  0.26690000  1
  C  C233  1  0.75830000  0.45980000  0.26690000  1
  C  C234  1  0.76030000  0.25000000  0.13790000  1
  C  C235  1  0.76210000  0.04180000  0.55050000  1
  C  C236  1  0.76210000  0.45820000  0.55050000  1
  C  C237  1  0.76220000  0.25000000  0.06190000  1
  C  C238  1  0.76230000  0.51470000  0.68280000  1
  C  C239  1  0.76230000  0.98530000  0.68280000  1
  C  C240  1  0.77440000  0.00750000  0.22450000  1
  C  C241  1  0.77440000  0.49250000  0.22450000  1
  C  C242  1  0.77660000  0.00670000  0.59550000  1
  C  C243  1  0.77660000  0.49330000  0.59550000  1
  C  C244  1  0.78050000  0.75000000  0.59910000  1
  C  C245  1  0.78690000  0.59340000  0.05130000  1
  C  C246  1  0.78690000  0.90660000  0.05130000  1
  C  C247  1  0.79220000  0.59180000  0.76670000  1
  C  C248  1  0.79220000  0.90820000  0.76670000  1
  C  C249  1  0.79760000  0.57880000  0.13790000  1
  C  C250  1  0.79760000  0.92120000  0.13790000  1
  C  C251  1  0.79790000  0.63500000  0.00580000  1
  C  C252  1  0.79790000  0.86500000  0.00580000  1
  C  C253  1  0.80830000  0.63120000  0.81170000  1
  C  C254  1  0.80830000  0.86880000  0.81170000  1
  C  C255  1  0.81590000  0.61230000  0.09540000  1
  C  C256  1  0.81590000  0.88770000  0.09540000  1
  C  C257  1  0.82290000  0.55530000  0.68710000  1
  C  C258  1  0.82290000  0.94470000  0.68710000  1
  C  C259  1  0.83470000  0.59510000  0.72830000  1
  C  C260  1  0.83470000  0.90490000  0.72830000  1
  C  C261  1  0.83890000  0.25000000  0.14230000  1
  C  C262  1  0.84990000  0.25000000  0.05810000  1
  C  C263  1  0.86500000  0.75000000  0.59900000  1
  C  C264  1  0.88120000  0.25000000  0.10150000  1
  C  C265  1  0.88470000  0.25000000  0.40590000  1
  C  C266  1  0.90810000  0.69350000  0.60060000  1
  C  C267  1  0.90810000  0.80650000  0.60060000  1
  C  C268  1  0.97100000  0.25000000  0.10430000  1
  C  C269  1  0.97180000  0.25000000  0.40520000  1
  C  C270  1  0.98810000  0.69430000  0.59850000  1
  C  C271  1  0.98810000  0.80570000  0.59850000  1
  O  O272  1  0.00170000  0.25000000  0.14460000  1
  O  O273  1  0.00540000  0.25000000  0.06350000  1
  O  O274  1  0.14130000  0.17610000  0.19294000  1
  O  O275  1  0.14130000  0.32390000  0.19294000  1
  O  O276  1  0.14700000  0.17610000  0.99290000  1
  O  O277  1  0.14700000  0.32390000  0.99290000  1
  O  O278  1  0.14830000  0.69620000  0.59280000  1
  O  O279  1  0.14830000  0.80380000  0.59280000  1
  O  O280  1  0.17660000  0.25000000  0.09054000  1
  O  O281  1  0.23160000  0.12020000  0.15008000  1
  O  O282  1  0.23160000  0.37980000  0.15008000  1
  O  O283  1  0.23600000  0.11620000  0.03249000  1
  O  O284  1  0.23600000  0.38380000  0.03249000  1
  O  O285  1  0.26400000  0.61620000  0.53249000  1
  O  O286  1  0.26400000  0.88380000  0.53249000  1
  O  O287  1  0.26840000  0.62020000  0.65008000  1
  O  O288  1  0.26840000  0.87980000  0.65008000  1
  O  O289  1  0.32340000  0.75000000  0.59054000  1
  O  O290  1  0.35170000  0.19620000  0.09280000  1
  O  O291  1  0.35170000  0.30380000  0.09280000  1
  O  O292  1  0.35300000  0.67610000  0.49290000  1
  O  O293  1  0.35300000  0.82390000  0.49290000  1
  O  O294  1  0.35870000  0.67610000  0.69294000  1
  O  O295  1  0.35870000  0.82390000  0.69294000  1
  O  O296  1  0.49460000  0.75000000  0.56350000  1
  O  O297  1  0.49830000  0.75000000  0.64460000  1
  O  O298  1  0.50170000  0.25000000  0.35540000  1
  O  O299  1  0.50540000  0.25000000  0.43650000  1
  O  O300  1  0.64130000  0.17610000  0.30706000  1
  O  O301  1  0.64130000  0.32390000  0.30706000  1
  O  O302  1  0.64700000  0.17610000  0.50710000  1
  O  O303  1  0.64700000  0.32390000  0.50710000  1
  O  O304  1  0.64830000  0.69620000  0.90720000  1
  O  O305  1  0.64830000  0.80380000  0.90720000  1
  O  O306  1  0.67660000  0.25000000  0.40946000  1
  O  O307  1  0.73160000  0.12020000  0.34992000  1
  O  O308  1  0.73160000  0.37980000  0.34992000  1
  O  O309  1  0.73600000  0.11620000  0.46751000  1
  O  O310  1  0.73600000  0.38380000  0.46751000  1
  O  O311  1  0.76400000  0.61620000  0.96751000  1
  O  O312  1  0.76400000  0.88380000  0.96751000  1
  O  O313  1  0.76840000  0.62020000  0.84992000  1
  O  O314  1  0.76840000  0.87980000  0.84992000  1
  O  O315  1  0.82340000  0.75000000  0.90946000  1
  O  O316  1  0.85170000  0.19620000  0.40720000  1
  O  O317  1  0.85170000  0.30380000  0.40720000  1
  O  O318  1  0.85300000  0.67610000  0.00710000  1
  O  O319  1  0.85300000  0.82390000  0.00710000  1
  O  O320  1  0.85870000  0.67610000  0.80706000  1
  O  O321  1  0.85870000  0.82390000  0.80706000  1
  O  O322  1  0.99460000  0.75000000  0.93650000  1
  O  O323  1  0.99830000  0.75000000  0.85540000  1
