# generated using pymatgen
data_Na13Fe4Sb2W18(C4O43)2
_symmetry_space_group_name_H-M   'P 1'
_cell_length_a   12.58980000
_cell_length_b   14.93390000
_cell_length_c   19.73900000
_cell_angle_alpha   111.35000000
_cell_angle_beta   101.66100000
_cell_angle_gamma   93.97700000
_symmetry_Int_Tables_number   1
_chemical_formula_structural   Na13Fe4Sb2W18(C4O43)2
_chemical_formula_sum   'Na13 Fe4 Sb2 W18 C8 O86'
_cell_volume   3343.37273709
_cell_formula_units_Z   1
loop_
 _symmetry_equiv_pos_site_id
 _symmetry_equiv_pos_as_xyz
  1  'x, y, z'
loop_
 _atom_site_type_symbol
 _atom_site_label
 _atom_site_symmetry_multiplicity
 _atom_site_fract_x
 _atom_site_fract_y
 _atom_site_fract_z
 _atom_site_occupancy
  Na  Na0  1  0.02190000  0.02680000  0.42640000  1
  Na  Na1  1  0.05710000  0.14530000  0.75820000  1
  Na  Na2  1  0.10570000  0.58970000  0.57860000  1
  Na  Na3  1  0.16950000  0.57450000  0.86360000  1
  Na  Na4  1  0.35690000  0.46180000  0.95280000  1
  Na  Na5  1  0.37870000  0.89160000  0.61280000  1
  Na  Na6  1  0.50000000  0.00000000  0.50000000  1
  Na  Na7  1  0.62130000  0.10840000  0.38720000  1
  Na  Na8  1  0.64310000  0.53820000  0.04720000  1
  Na  Na9  1  0.83050000  0.42550000  0.13640000  1
  Na  Na10  1  0.89430000  0.41030000  0.42140000  1
  Na  Na11  1  0.94290000  0.85470000  0.24180000  1
  Na  Na12  1  0.97810000  0.97320000  0.57360000  1
  Fe  Fe13  1  0.20503000  0.68359000  0.43647000  1
  Fe  Fe14  1  0.34663000  0.35335000  0.48166000  1
  Fe  Fe15  1  0.65337000  0.64665000  0.51834000  1
  Fe  Fe16  1  0.79497000  0.31641000  0.56353000  1
  Sb  Sb17  1  0.40051000  0.49158000  0.35593000  1
  Sb  Sb18  1  0.59949000  0.50842000  0.64407000  1
  W  W19  1  0.12020000  0.47793000  0.26567000  1
  W  W20  1  0.19416000  0.28243000  0.29355000  1
  W  W21  1  0.23922000  0.31884000  0.14597000  1
  W  W22  1  0.33286000  0.68093000  0.29261000  1
  W  W23  1  0.35382000  0.58929000  0.73217000  1
  W  W24  1  0.39471000  0.62529000  0.58054000  1
  W  W25  1  0.40365000  0.33528000  0.65843000  1
  W  W26  1  0.45035000  0.52270000  0.17065000  1
  W  W27  1  0.45745000  0.22825000  0.24635000  1
  W  W28  1  0.54255000  0.77175000  0.75365000  1
  W  W29  1  0.54965000  0.47730000  0.82935000  1
  W  W30  1  0.59635000  0.66472000  0.34157000  1
  W  W31  1  0.60529000  0.37471000  0.41946000  1
  W  W32  1  0.64618000  0.41071000  0.26783000  1
  W  W33  1  0.66714000  0.31907000  0.70739000  1
  W  W34  1  0.76078000  0.68116000  0.85403000  1
  W  W35  1  0.80584000  0.71757000  0.70645000  1
  W  W36  1  0.87980000  0.52207000  0.73433000  1
  C  C37  1  0.08220000  0.81860000  0.39740000  1
  C  C38  1  0.14780000  0.87430000  0.47930000  1
  C  C39  1  0.15370000  0.23430000  0.47750000  1
  C  C40  1  0.23050000  0.16380000  0.44240000  1
  C  C41  1  0.76950000  0.83620000  0.55760000  1
  C  C42  1  0.84630000  0.76570000  0.52250000  1
  C  C43  1  0.85220000  0.12570000  0.52070000  1
  C  C44  1  0.91780000  0.18140000  0.60260000  1
  O  O45  1  0.01050000  0.49530000  0.75630000  1
  O  O46  1  0.02210000  0.86120000  0.36670000  1
  O  O47  1  0.03490000  0.97180000  0.69650000  1
  O  O48  1  0.06160000  0.20250000  0.47820000  1
  O  O49  1  0.07080000  0.66220000  0.48180000  1
  O  O50  1  0.08120000  0.36090000  0.28230000  1
  O  O51  1  0.08820000  0.45810000  0.45980000  1
  O  O52  1  0.09820000  0.73090000  0.36890000  1
  O  O53  1  0.12280000  0.39630000  0.16290000  1
  O  O54  1  0.13140000  0.95630000  0.51480000  1
  O  O55  1  0.16690000  0.54800000  0.36790000  1
  O  O56  1  0.16860000  0.23650000  0.18360000  1
  O  O57  1  0.19680000  0.32460000  0.50420000  1
  O  O58  1  0.20070000  0.07540000  0.42140000  1
  O  O59  1  0.20830000  0.57930000  0.25270000  1
  O  O60  1  0.21890000  0.82770000  0.50340000  1
  O  O61  1  0.24110000  0.42090000  0.83060000  1
  O  O62  1  0.24330000  0.59790000  0.77160000  1
  O  O63  1  0.25950000  0.35970000  0.38940000  1
  O  O64  1  0.27410000  0.40770000  0.27260000  1
  O  O65  1  0.29560000  0.61600000  0.64780000  1
  O  O66  1  0.29990000  0.66700000  0.52330000  1
  O  O67  1  0.31840000  0.20410000  0.43700000  1
  O  O68  1  0.32280000  0.42920000  0.14140000  1
  O  O69  1  0.32330000  0.69640000  0.38790000  1
  O  O70  1  0.32900000  0.22950000  0.28360000  1
  O  O71  1  0.33333333  0.62290000  0.96170000  1
  O  O72  1  0.33610000  0.45380000  0.67710000  1
  O  O73  1  0.36110000  0.49580000  0.53370000  1
  O  O74  1  0.36380000  0.62630000  0.19190000  1
  O  O75  1  0.36890000  0.27280000  0.17270000  1
  O  O76  1  0.37580000  0.04440000  0.58340000  1
  O  O77  1  0.42280000  0.72420000  0.78500000  1
  O  O78  1  0.42530000  0.37780000  0.76790000  1
  O  O79  1  0.42820000  0.34310000  0.57360000  1
  O  O80  1  0.43350000  0.56170000  0.29170000  1
  O  O81  1  0.44740000  0.76020000  0.66460000  1
  O  O82  1  0.46290000  0.56580000  0.80660000  1
  O  O83  1  0.46700000  0.51320000  0.08340000  1
  O  O84  1  0.47410000  0.84770000  0.51410000  1
  O  O85  1  0.48090000  0.35910000  0.44740000  1
  O  O86  1  0.48410000  0.74540000  0.33080000  1
  O  O87  1  0.49770000  0.60360000  0.67790000  1
  O  O88  1  0.50230000  0.39640000  0.32210000  1
  O  O89  1  0.51590000  0.25460000  0.66920000  1
  O  O90  1  0.51910000  0.64090000  0.55260000  1
  O  O91  1  0.52590000  0.15230000  0.48590000  1
  O  O92  1  0.53300000  0.48680000  0.91660000  1
  O  O93  1  0.53710000  0.43420000  0.19340000  1
  O  O94  1  0.55260000  0.23980000  0.33540000  1
  O  O95  1  0.56650000  0.43830000  0.70830000  1
  O  O96  1  0.57180000  0.65690000  0.42640000  1
  O  O97  1  0.57470000  0.62220000  0.23210000  1
  O  O98  1  0.57720000  0.27580000  0.21500000  1
  O  O99  1  0.62420000  0.95560000  0.41660000  1
  O  O100  1  0.63110000  0.72720000  0.82730000  1
  O  O101  1  0.63620000  0.37370000  0.80810000  1
  O  O102  1  0.63890000  0.50420000  0.46630000  1
  O  O103  1  0.66390000  0.54620000  0.32290000  1
  O  O104  1  0.66666667  0.37710000  0.03830000  1
  O  O105  1  0.67100000  0.77050000  0.71640000  1
  O  O106  1  0.67670000  0.30360000  0.61210000  1
  O  O107  1  0.67720000  0.57080000  0.85860000  1
  O  O108  1  0.68160000  0.79590000  0.56300000  1
  O  O109  1  0.70010000  0.33300000  0.47670000  1
  O  O110  1  0.70440000  0.38400000  0.35220000  1
  O  O111  1  0.72590000  0.59230000  0.72740000  1
  O  O112  1  0.74050000  0.64030000  0.61060000  1
  O  O113  1  0.75670000  0.40210000  0.22840000  1
  O  O114  1  0.75890000  0.57910000  0.16940000  1
  O  O115  1  0.78110000  0.17230000  0.49660000  1
  O  O116  1  0.79170000  0.42070000  0.74730000  1
  O  O117  1  0.79930000  0.92460000  0.57860000  1
  O  O118  1  0.80320000  0.67540000  0.49580000  1
  O  O119  1  0.83140000  0.76350000  0.81640000  1
  O  O120  1  0.83310000  0.45200000  0.63210000  1
  O  O121  1  0.86860000  0.04370000  0.48520000  1
  O  O122  1  0.87720000  0.60370000  0.83710000  1
  O  O123  1  0.90180000  0.26910000  0.63110000  1
  O  O124  1  0.91180000  0.54190000  0.54020000  1
  O  O125  1  0.91880000  0.63910000  0.71770000  1
  O  O126  1  0.92920000  0.33780000  0.51820000  1
  O  O127  1  0.93840000  0.79750000  0.52180000  1
  O  O128  1  0.96510000  0.02820000  0.30350000  1
  O  O129  1  0.97790000  0.13880000  0.63330000  1
  O  O130  1  0.98950000  0.50470000  0.24370000  1
