# generated using pymatgen
data_CdH24C40S4NO8
_symmetry_space_group_name_H-M   'P 1'
_cell_length_a   9.00500000
_cell_length_b   12.57300000
_cell_length_c   19.67500000
_cell_angle_alpha   82.31300000
_cell_angle_beta   79.25900000
_cell_angle_gamma   86.74900000
_symmetry_Int_Tables_number   1
_chemical_formula_structural   CdH24C40S4NO8
_chemical_formula_sum   'Cd2 H48 C80 S8 N2 O16'
_cell_volume   2167.74939343
_cell_formula_units_Z   2
loop_
 _symmetry_equiv_pos_site_id
 _symmetry_equiv_pos_as_xyz
  1  'x, y, z'
loop_
 _atom_site_type_symbol
 _atom_site_label
 _atom_site_symmetry_multiplicity
 _atom_site_fract_x
 _atom_site_fract_y
 _atom_site_fract_z
 _atom_site_occupancy
  Cd  Cd0  1  0.37653000  0.34071000  0.98261000  1
  Cd  Cd1  1  0.62347000  0.65929000  0.01739000  1
  H  H2  1  0.01670000  0.88930000  0.67300000  1
  H  H3  1  0.01770000  0.02000000  0.92820000  1
  H  H4  1  0.02570000  0.77660000  0.77300000  1
  H  H5  1  0.03880000  0.15390000  0.72770000  1
  H  H6  1  0.04410000  0.73990000  0.03850000  1
  H  H7  1  0.06330000  0.40150000  0.16360000  1
  H  H8  1  0.08170000  0.27040000  0.80260000  1
  H  H9  1  0.08600000  0.08920000  0.97460000  1
  H  H10  1  0.21620000  0.51760000  0.27030000  1
  H  H11  1  0.23570000  0.65780000  0.71880000  1
  H  H12  1  0.26470000  0.64000000  0.03370000  1
  H  H13  1  0.26570000  0.63400000  0.34240000  1
  H  H14  1  0.26890000  0.93320000  0.78080000  1
  H  H15  1  0.28580000  0.05850000  0.85300000  1
  H  H16  1  0.29160000  0.00140000  0.99290000  1
  H  H17  1  0.29340000  0.04040000  0.12380000  1
  H  H18  1  0.29990000  0.92700000  0.22470000  1
  H  H19  1  0.30470000  0.54110000  0.80960000  1
  H  H20  1  0.35890000  0.26960000  0.18380000  1
  H  H21  1  0.42220000  0.15630000  0.27660000  1
  H  H22  1  0.46130000  0.65360000  0.19410000  1
  H  H23  1  0.47010000  0.13120000  0.61840000  1
  H  H24  1  0.49330000  0.25540000  0.69140000  1
  H  H25  1  0.49500000  0.10680000  0.00760000  1
  H  H26  1  0.50500000  0.89320000  0.99240000  1
  H  H27  1  0.50670000  0.74460000  0.30860000  1
  H  H28  1  0.52990000  0.86880000  0.38160000  1
  H  H29  1  0.53870000  0.34640000  0.80590000  1
  H  H30  1  0.57780000  0.84370000  0.72340000  1
  H  H31  1  0.64110000  0.73040000  0.81620000  1
  H  H32  1  0.69530000  0.45890000  0.19040000  1
  H  H33  1  0.70010000  0.07300000  0.77530000  1
  H  H34  1  0.70660000  0.95960000  0.87620000  1
  H  H35  1  0.70840000  0.99860000  0.00710000  1
  H  H36  1  0.71420000  0.94150000  0.14700000  1
  H  H37  1  0.73110000  0.06680000  0.21920000  1
  H  H38  1  0.73430000  0.36600000  0.65760000  1
  H  H39  1  0.73530000  0.36000000  0.96630000  1
  H  H40  1  0.76430000  0.34220000  0.28120000  1
  H  H41  1  0.78380000  0.48240000  0.72970000  1
  H  H42  1  0.91400000  0.91080000  0.02540000  1
  H  H43  1  0.91830000  0.72960000  0.19740000  1
  H  H44  1  0.93670000  0.59850000  0.83640000  1
  H  H45  1  0.95590000  0.26010000  0.96150000  1
  H  H46  1  0.96120000  0.84610000  0.27230000  1
  H  H47  1  0.97430000  0.22340000  0.22700000  1
  H  H48  1  0.98230000  0.98000000  0.07180000  1
  H  H49  1  0.98330000  0.11070000  0.32700000  1
  C  C50  1  0.00140000  0.04550000  0.97340000  1
  C  C51  1  0.01260000  0.28930000  0.77300000  1
  C  C52  1  0.01410000  0.78040000  0.27140000  1
  C  C53  1  0.02860000  0.53760000  0.17880000  1
  C  C54  1  0.04130000  0.16430000  0.22630000  1
  C  C55  1  0.04560000  0.09590000  0.28580000  1
  C  C56  1  0.06490000  0.61180000  0.22700000  1
  C  C57  1  0.11900000  0.75360000  0.31480000  1
  C  C58  1  0.13640000  0.77340000  0.02940000  1
  C  C59  1  0.13660000  0.14630000  0.16440000  1
  C  C60  1  0.13980000  0.00520000  0.28670000  1
  C  C61  1  0.14290000  0.88490000  0.01830000  1
  C  C62  1  0.14880000  0.22640000  0.10040000  1
  C  C63  1  0.14920000  0.93550000  0.35200000  1
  C  C64  1  0.14960000  0.82770000  0.36200000  1
  C  C65  1  0.16610000  0.58440000  0.27030000  1
  C  C66  1  0.19510000  0.65340000  0.31360000  1
  C  C67  1  0.21900000  0.88570000  0.47420000  1
  C  C68  1  0.23100000  0.05530000  0.16490000  1
  C  C69  1  0.23380000  0.98660000  0.22530000  1
  C  C70  1  0.26400000  0.88850000  0.53350000  1
  C  C71  1  0.26950000  0.71440000  0.02640000  1
  C  C72  1  0.28260000  0.92730000  0.00290000  1
  C  C73  1  0.31340000  0.99820000  0.76240000  1
  C  C74  1  0.31770000  0.67290000  0.73800000  1
  C  C75  1  0.32380000  0.07320000  0.80560000  1
  C  C76  1  0.34870000  0.94350000  0.64360000  1
  C  C77  1  0.35690000  0.83520000  0.65290000  1
  C  C78  1  0.35880000  0.60300000  0.79290000  1
  C  C79  1  0.36830000  0.01830000  0.69220000  1
  C  C80  1  0.38920000  0.17000000  0.78000000  1
  C  C81  1  0.39710000  0.76390000  0.71200000  1
  C  C82  1  0.39840000  0.25020000  0.82780000  1
  C  C83  1  0.41090000  0.86190000  0.00190000  1
  C  C84  1  0.43400000  0.11610000  0.66600000  1
  C  C85  1  0.44030000  0.28490000  0.20340000  1
  C  C86  1  0.44650000  0.19100000  0.70940000  1
  C  C87  1  0.47900000  0.62450000  0.82300000  1
  C  C88  1  0.47920000  0.21640000  0.25870000  1
  C  C89  1  0.48080000  0.44870000  0.11730000  1
  C  C90  1  0.51920000  0.55130000  0.88270000  1
  C  C91  1  0.52080000  0.78360000  0.74130000  1
  C  C92  1  0.52100000  0.37550000  0.17700000  1
  C  C93  1  0.55350000  0.80900000  0.29060000  1
  C  C94  1  0.55970000  0.71510000  0.79660000  1
  C  C95  1  0.56600000  0.88390000  0.33400000  1
  C  C96  1  0.58910000  0.13810000  0.99810000  1
  C  C97  1  0.60160000  0.74980000  0.17220000  1
  C  C98  1  0.60290000  0.23610000  0.28800000  1
  C  C99  1  0.61080000  0.83000000  0.22000000  1
  C  C100  1  0.63170000  0.98170000  0.30780000  1
  C  C101  1  0.64120000  0.39700000  0.20710000  1
  C  C102  1  0.64310000  0.16480000  0.34710000  1
  C  C103  1  0.65130000  0.05650000  0.35640000  1
  C  C104  1  0.67620000  0.92680000  0.19440000  1
  C  C105  1  0.68230000  0.32710000  0.26200000  1
  C  C106  1  0.68660000  0.00180000  0.23760000  1
  C  C107  1  0.71740000  0.07270000  0.99710000  1
  C  C108  1  0.73050000  0.28560000  0.97360000  1
  C  C109  1  0.73600000  0.11150000  0.46650000  1
  C  C110  1  0.76620000  0.01340000  0.77470000  1
  C  C111  1  0.76900000  0.94470000  0.83510000  1
  C  C112  1  0.78100000  0.11430000  0.52580000  1
  C  C113  1  0.80490000  0.34660000  0.68640000  1
  C  C114  1  0.83390000  0.41560000  0.72970000  1
  C  C115  1  0.85040000  0.17230000  0.63800000  1
  C  C116  1  0.85080000  0.06450000  0.64800000  1
  C  C117  1  0.85120000  0.77360000  0.89960000  1
  C  C118  1  0.85710000  0.11510000  0.98170000  1
  C  C119  1  0.86020000  0.99480000  0.71330000  1
  C  C120  1  0.86340000  0.85370000  0.83560000  1
  C  C121  1  0.86360000  0.22660000  0.97060000  1
  C  C122  1  0.88100000  0.24640000  0.68520000  1
  C  C123  1  0.93510000  0.38820000  0.77300000  1
  C  C124  1  0.95440000  0.90410000  0.71420000  1
  C  C125  1  0.95870000  0.83570000  0.77370000  1
  C  C126  1  0.97140000  0.46240000  0.82120000  1
  C  C127  1  0.98590000  0.21960000  0.72860000  1
  C  C128  1  0.98740000  0.71070000  0.22700000  1
  C  C129  1  0.99860000  0.95450000  0.02660000  1
  S  S130  1  0.17900000  0.00167000  0.42016000  1
  S  S131  1  0.18400000  0.76655000  0.44416000  1
  S  S132  1  0.29190000  0.00574000  0.56664000  1
  S  S133  1  0.30280000  0.77101000  0.58784000  1
  S  S134  1  0.69720000  0.22899000  0.41216000  1
  S  S135  1  0.70810000  0.99426000  0.43336000  1
  S  S136  1  0.81600000  0.23345000  0.55584000  1
  S  S137  1  0.82100000  0.99833000  0.57984000  1
  N  N138  1  0.40450000  0.75670000  0.01390000  1
  N  N139  1  0.59550000  0.24330000  0.98610000  1
  O  O140  1  0.04500000  0.43560000  0.86530000  1
  O  O141  1  0.06200000  0.31040000  0.10280000  1
  O  O142  1  0.08670000  0.44010000  0.19210000  1
  O  O143  1  0.24000000  0.20620000  0.04730000  1
  O  O144  1  0.35110000  0.23440000  0.89030000  1
  O  O145  1  0.41130000  0.41610000  0.07660000  1
  O  O146  1  0.45480000  0.34060000  0.79650000  1
  O  O147  1  0.47690000  0.45510000  0.88990000  1
  O  O148  1  0.52310000  0.54490000  0.11010000  1
  O  O149  1  0.54520000  0.65940000  0.20350000  1
  O  O150  1  0.58870000  0.58390000  0.92340000  1
  O  O151  1  0.64890000  0.76560000  0.10970000  1
  O  O152  1  0.76000000  0.79380000  0.95270000  1
  O  O153  1  0.91330000  0.55990000  0.80790000  1
  O  O154  1  0.93800000  0.68960000  0.89720000  1
  O  O155  1  0.95500000  0.56440000  0.13470000  1
