# generated using pymatgen
data_ZnH18C18(NO)4
_symmetry_space_group_name_H-M   'P 1'
_cell_length_a   16.20450000
_cell_length_b   17.60220000
_cell_length_c   17.90250000
_cell_angle_alpha   90.00000000
_cell_angle_beta   90.00000000
_cell_angle_gamma   90.00000000
_symmetry_Int_Tables_number   1
_chemical_formula_structural   ZnH18C18(NO)4
_chemical_formula_sum   'Zn8 H144 C144 N32 O32'
_cell_volume   5106.41690033
_cell_formula_units_Z   8
loop_
 _symmetry_equiv_pos_site_id
 _symmetry_equiv_pos_as_xyz
  1  'x, y, z'
loop_
 _atom_site_type_symbol
 _atom_site_label
 _atom_site_symmetry_multiplicity
 _atom_site_fract_x
 _atom_site_fract_y
 _atom_site_fract_z
 _atom_site_occupancy
  Zn  Zn0  1  0.22521000  0.39917000  0.61703000  1
  Zn  Zn1  1  0.22521000  0.60083000  0.11703000  1
  Zn  Zn2  1  0.27479000  0.10083000  0.11703000  1
  Zn  Zn3  1  0.27479000  0.89917000  0.61703000  1
  Zn  Zn4  1  0.72521000  0.10083000  0.38297000  1
  Zn  Zn5  1  0.72521000  0.89917000  0.88297000  1
  Zn  Zn6  1  0.77479000  0.39917000  0.88297000  1
  Zn  Zn7  1  0.77479000  0.60083000  0.38297000  1
  H  H8  1  0.01030000  0.32170000  0.52390000  1
  H  H9  1  0.01030000  0.67830000  0.02390000  1
  H  H10  1  0.01500000  0.06080000  0.50360000  1
  H  H11  1  0.01500000  0.93920000  0.00360000  1
  H  H12  1  0.05140000  0.00780000  0.81700000  1
  H  H13  1  0.05140000  0.99220000  0.31700000  1
  H  H14  1  0.08400000  0.26100000  0.05210000  1
  H  H15  1  0.08400000  0.73900000  0.55210000  1
  H  H16  1  0.09070000  0.40900000  0.75300000  1
  H  H17  1  0.09070000  0.59100000  0.25300000  1
  H  H18  1  0.09600000  0.08640000  0.80870000  1
  H  H19  1  0.09600000  0.91360000  0.30870000  1
  H  H20  1  0.10270000  0.04100000  0.88370000  1
  H  H21  1  0.10270000  0.95900000  0.38370000  1
  H  H22  1  0.10370000  0.40530000  0.83970000  1
  H  H23  1  0.10370000  0.59470000  0.33970000  1
  H  H24  1  0.10400000  0.12120000  0.58470000  1
  H  H25  1  0.10400000  0.87880000  0.08470000  1
  H  H26  1  0.13780000  0.34020000  0.78870000  1
  H  H27  1  0.13780000  0.65980000  0.28870000  1
  H  H28  1  0.15000000  0.00860000  0.19500000  1
  H  H29  1  0.15000000  0.99140000  0.69500000  1
  H  H30  1  0.17850000  0.35130000  0.45350000  1
  H  H31  1  0.17850000  0.64870000  0.95350000  1
  H  H32  1  0.19430000  0.31520000  0.93300000  1
  H  H33  1  0.19430000  0.68480000  0.43300000  1
  H  H34  1  0.20930000  0.17880000  0.43790000  1
  H  H35  1  0.20930000  0.82120000  0.93790000  1
  H  H36  1  0.21330000  0.42440000  0.07850000  1
  H  H37  1  0.21330000  0.57560000  0.57850000  1
  H  H38  1  0.21900000  0.37790000  0.37840000  1
  H  H39  1  0.21900000  0.62210000  0.87840000  1
  H  H40  1  0.22520000  0.14780000  0.94530000  1
  H  H41  1  0.22520000  0.85220000  0.44530000  1
  H  H42  1  0.23840000  0.31000000  0.01080000  1
  H  H43  1  0.23840000  0.69000000  0.51080000  1
  H  H44  1  0.26160000  0.19000000  0.51080000  1
  H  H45  1  0.26160000  0.81000000  0.01080000  1
  H  H46  1  0.27480000  0.35220000  0.44530000  1
  H  H47  1  0.27480000  0.64780000  0.94530000  1
  H  H48  1  0.28100000  0.12210000  0.87840000  1
  H  H49  1  0.28100000  0.87790000  0.37840000  1
  H  H50  1  0.28670000  0.07560000  0.57850000  1
  H  H51  1  0.28670000  0.92440000  0.07850000  1
  H  H52  1  0.29070000  0.32120000  0.93790000  1
  H  H53  1  0.29070000  0.67880000  0.43790000  1
  H  H54  1  0.30570000  0.18480000  0.43300000  1
  H  H55  1  0.30570000  0.81520000  0.93300000  1
  H  H56  1  0.32150000  0.14870000  0.95350000  1
  H  H57  1  0.32150000  0.85130000  0.45350000  1
  H  H58  1  0.35000000  0.49140000  0.69500000  1
  H  H59  1  0.35000000  0.50860000  0.19500000  1
  H  H60  1  0.36220000  0.15980000  0.28870000  1
  H  H61  1  0.36220000  0.84020000  0.78870000  1
  H  H62  1  0.39600000  0.37880000  0.08470000  1
  H  H63  1  0.39600000  0.62120000  0.58470000  1
  H  H64  1  0.39630000  0.09470000  0.33970000  1
  H  H65  1  0.39630000  0.90530000  0.83970000  1
  H  H66  1  0.39730000  0.45900000  0.38370000  1
  H  H67  1  0.39730000  0.54100000  0.88370000  1
  H  H68  1  0.40400000  0.41360000  0.30870000  1
  H  H69  1  0.40400000  0.58640000  0.80870000  1
  H  H70  1  0.40930000  0.09100000  0.25300000  1
  H  H71  1  0.40930000  0.90900000  0.75300000  1
  H  H72  1  0.41600000  0.23900000  0.55210000  1
  H  H73  1  0.41600000  0.76100000  0.05210000  1
  H  H74  1  0.44860000  0.49220000  0.31700000  1
  H  H75  1  0.44860000  0.50780000  0.81700000  1
  H  H76  1  0.48500000  0.43920000  0.00360000  1
  H  H77  1  0.48500000  0.56080000  0.50360000  1
  H  H78  1  0.48970000  0.17830000  0.02390000  1
  H  H79  1  0.48970000  0.82170000  0.52390000  1
  H  H80  1  0.51030000  0.17830000  0.47610000  1
  H  H81  1  0.51030000  0.82170000  0.97610000  1
  H  H82  1  0.51500000  0.43920000  0.49640000  1
  H  H83  1  0.51500000  0.56080000  0.99640000  1
  H  H84  1  0.55140000  0.49220000  0.18300000  1
  H  H85  1  0.55140000  0.50780000  0.68300000  1
  H  H86  1  0.58400000  0.23900000  0.94790000  1
  H  H87  1  0.58400000  0.76100000  0.44790000  1
  H  H88  1  0.59070000  0.09100000  0.24700000  1
  H  H89  1  0.59070000  0.90900000  0.74700000  1
  H  H90  1  0.59600000  0.41360000  0.19130000  1
  H  H91  1  0.59600000  0.58640000  0.69130000  1
  H  H92  1  0.60270000  0.45900000  0.11630000  1
  H  H93  1  0.60270000  0.54100000  0.61630000  1
  H  H94  1  0.60370000  0.09470000  0.16030000  1
  H  H95  1  0.60370000  0.90530000  0.66030000  1
  H  H96  1  0.60400000  0.37880000  0.41530000  1
  H  H97  1  0.60400000  0.62120000  0.91530000  1
  H  H98  1  0.63780000  0.15980000  0.21130000  1
  H  H99  1  0.63780000  0.84020000  0.71130000  1
  H  H100  1  0.65000000  0.49140000  0.80500000  1
  H  H101  1  0.65000000  0.50860000  0.30500000  1
  H  H102  1  0.67850000  0.14870000  0.54650000  1
  H  H103  1  0.67850000  0.85130000  0.04650000  1
  H  H104  1  0.69430000  0.18480000  0.06700000  1
  H  H105  1  0.69430000  0.81520000  0.56700000  1
  H  H106  1  0.70930000  0.32120000  0.56210000  1
  H  H107  1  0.70930000  0.67880000  0.06210000  1
  H  H108  1  0.71330000  0.07560000  0.92150000  1
  H  H109  1  0.71330000  0.92440000  0.42150000  1
  H  H110  1  0.71900000  0.12210000  0.62160000  1
  H  H111  1  0.71900000  0.87790000  0.12160000  1
  H  H112  1  0.72520000  0.35220000  0.05470000  1
  H  H113  1  0.72520000  0.64780000  0.55470000  1
  H  H114  1  0.73840000  0.19000000  0.98920000  1
  H  H115  1  0.73840000  0.81000000  0.48920000  1
  H  H116  1  0.76160000  0.31000000  0.48920000  1
  H  H117  1  0.76160000  0.69000000  0.98920000  1
  H  H118  1  0.77480000  0.14780000  0.55470000  1
  H  H119  1  0.77480000  0.85220000  0.05470000  1
  H  H120  1  0.78100000  0.37790000  0.12160000  1
  H  H121  1  0.78100000  0.62210000  0.62160000  1
  H  H122  1  0.78670000  0.42440000  0.42150000  1
  H  H123  1  0.78670000  0.57560000  0.92150000  1
  H  H124  1  0.79070000  0.17880000  0.06210000  1
  H  H125  1  0.79070000  0.82120000  0.56210000  1
  H  H126  1  0.80570000  0.31520000  0.56700000  1
  H  H127  1  0.80570000  0.68480000  0.06700000  1
  H  H128  1  0.82150000  0.35130000  0.04650000  1
  H  H129  1  0.82150000  0.64870000  0.54650000  1
  H  H130  1  0.85000000  0.00860000  0.30500000  1
  H  H131  1  0.85000000  0.99140000  0.80500000  1
  H  H132  1  0.86220000  0.34020000  0.71130000  1
  H  H133  1  0.86220000  0.65980000  0.21130000  1
  H  H134  1  0.89600000  0.12120000  0.91530000  1
  H  H135  1  0.89600000  0.87880000  0.41530000  1
  H  H136  1  0.89630000  0.40530000  0.66030000  1
  H  H137  1  0.89630000  0.59470000  0.16030000  1
  H  H138  1  0.89730000  0.04100000  0.61630000  1
  H  H139  1  0.89730000  0.95900000  0.11630000  1
  H  H140  1  0.90400000  0.08640000  0.69130000  1
  H  H141  1  0.90400000  0.91360000  0.19130000  1
  H  H142  1  0.90930000  0.40900000  0.74700000  1
  H  H143  1  0.90930000  0.59100000  0.24700000  1
  H  H144  1  0.91600000  0.26100000  0.44790000  1
  H  H145  1  0.91600000  0.73900000  0.94790000  1
  H  H146  1  0.94860000  0.00780000  0.68300000  1
  H  H147  1  0.94860000  0.99220000  0.18300000  1
  H  H148  1  0.98500000  0.06080000  0.99640000  1
  H  H149  1  0.98500000  0.93920000  0.49640000  1
  H  H150  1  0.98970000  0.32170000  0.97610000  1
  H  H151  1  0.98970000  0.67830000  0.47610000  1
  C  C152  1  0.01012000  0.26894000  0.52117000  1
  C  C153  1  0.01012000  0.73106000  0.02117000  1
  C  C154  1  0.01277000  0.11331000  0.50875000  1
  C  C155  1  0.01277000  0.88669000  0.00875000  1
  C  C156  1  0.04454000  0.15456000  0.03172000  1
  C  C157  1  0.04454000  0.84544000  0.53172000  1
  C  C158  1  0.04567000  0.23270000  0.02526000  1
  C  C159  1  0.04567000  0.76730000  0.52526000  1
  C  C160  1  0.06564000  0.22763000  0.56351000  1
  C  C161  1  0.06564000  0.77237000  0.06351000  1
  C  C162  1  0.06669000  0.14962000  0.55675000  1
  C  C163  1  0.06669000  0.85038000  0.05675000  1
  C  C164  1  0.09950000  0.03660000  0.83036000  1
  C  C165  1  0.09950000  0.96340000  0.33036000  1
  C  C166  1  0.10752000  0.11478000  0.07957000  1
  C  C167  1  0.10752000  0.88522000  0.57957000  1
  C  C168  1  0.12772000  0.26801000  0.61183000  1
  C  C169  1  0.12772000  0.73199000  0.11183000  1
  C  C170  1  0.12780000  0.39380000  0.79211000  1
  C  C171  1  0.12780000  0.60620000  0.29211000  1
  C  C172  1  0.17492000  0.00280000  0.30178000  1
  C  C173  1  0.17492000  0.99720000  0.80178000  1
  C  C174  1  0.20728000  0.43557000  0.78414000  1
  C  C175  1  0.20728000  0.56443000  0.28414000  1
  C  C176  1  0.22450000  0.37757000  0.43179000  1
  C  C177  1  0.22450000  0.62243000  0.93179000  1
  C  C178  1  0.22650000  0.45740000  0.45998000  1
  C  C179  1  0.22650000  0.54260000  0.95998000  1
  C  C180  1  0.23304000  0.41734000  0.97089000  1
  C  C181  1  0.23304000  0.58266000  0.47089000  1
  C  C182  1  0.23887000  0.47568000  0.91941000  1
  C  C183  1  0.23887000  0.52432000  0.41941000  1
  C  C184  1  0.23970000  0.33349000  0.96237000  1
  C  C185  1  0.23970000  0.66651000  0.46237000  1
  C  C186  1  0.24365000  0.03053000  0.33902000  1
  C  C187  1  0.24365000  0.96947000  0.83902000  1
  C  C188  1  0.25635000  0.46947000  0.83902000  1
  C  C189  1  0.25635000  0.53053000  0.33902000  1
  C  C190  1  0.26030000  0.16651000  0.46237000  1
  C  C191  1  0.26030000  0.83349000  0.96237000  1
  C  C192  1  0.26113000  0.02432000  0.41941000  1
  C  C193  1  0.26113000  0.97568000  0.91941000  1
  C  C194  1  0.26696000  0.08266000  0.47089000  1
  C  C195  1  0.26696000  0.91734000  0.97089000  1
  C  C196  1  0.27350000  0.04260000  0.95998000  1
  C  C197  1  0.27350000  0.95740000  0.45998000  1
  C  C198  1  0.27550000  0.12243000  0.93179000  1
  C  C199  1  0.27550000  0.87757000  0.43179000  1
  C  C200  1  0.29272000  0.06443000  0.28414000  1
  C  C201  1  0.29272000  0.93557000  0.78414000  1
  C  C202  1  0.32508000  0.49720000  0.80178000  1
  C  C203  1  0.32508000  0.50280000  0.30178000  1
  C  C204  1  0.37220000  0.10620000  0.29211000  1
  C  C205  1  0.37220000  0.89380000  0.79211000  1
  C  C206  1  0.37228000  0.23199000  0.11183000  1
  C  C207  1  0.37228000  0.76801000  0.61183000  1
  C  C208  1  0.39248000  0.38522000  0.57957000  1
  C  C209  1  0.39248000  0.61478000  0.07957000  1
  C  C210  1  0.40050000  0.46340000  0.33036000  1
  C  C211  1  0.40050000  0.53660000  0.83036000  1
  C  C212  1  0.43331000  0.35038000  0.05675000  1
  C  C213  1  0.43331000  0.64962000  0.55675000  1
  C  C214  1  0.43436000  0.27237000  0.06351000  1
  C  C215  1  0.43436000  0.72763000  0.56351000  1
  C  C216  1  0.45433000  0.26730000  0.52526000  1
  C  C217  1  0.45433000  0.73270000  0.02526000  1
  C  C218  1  0.45546000  0.34544000  0.53172000  1
  C  C219  1  0.45546000  0.65456000  0.03172000  1
  C  C220  1  0.48723000  0.38669000  0.00875000  1
  C  C221  1  0.48723000  0.61331000  0.50875000  1
  C  C222  1  0.48988000  0.23106000  0.02117000  1
  C  C223  1  0.48988000  0.76894000  0.52117000  1
  C  C224  1  0.51012000  0.23106000  0.47883000  1
  C  C225  1  0.51012000  0.76894000  0.97883000  1
  C  C226  1  0.51277000  0.38669000  0.49125000  1
  C  C227  1  0.51277000  0.61331000  0.99125000  1
  C  C228  1  0.54454000  0.34544000  0.96828000  1
  C  C229  1  0.54454000  0.65456000  0.46828000  1
  C  C230  1  0.54567000  0.26730000  0.97474000  1
  C  C231  1  0.54567000  0.73270000  0.47474000  1
  C  C232  1  0.56564000  0.27237000  0.43649000  1
  C  C233  1  0.56564000  0.72763000  0.93649000  1
  C  C234  1  0.56669000  0.35038000  0.44325000  1
  C  C235  1  0.56669000  0.64962000  0.94325000  1
  C  C236  1  0.59950000  0.46340000  0.16964000  1
  C  C237  1  0.59950000  0.53660000  0.66964000  1
  C  C238  1  0.60752000  0.38522000  0.92043000  1
  C  C239  1  0.60752000  0.61478000  0.42043000  1
  C  C240  1  0.62772000  0.23199000  0.38817000  1
  C  C241  1  0.62772000  0.76801000  0.88817000  1
  C  C242  1  0.62780000  0.10620000  0.20789000  1
  C  C243  1  0.62780000  0.89380000  0.70789000  1
  C  C244  1  0.67492000  0.49720000  0.69822000  1
  C  C245  1  0.67492000  0.50280000  0.19822000  1
  C  C246  1  0.70728000  0.06443000  0.21586000  1
  C  C247  1  0.70728000  0.93557000  0.71586000  1
  C  C248  1  0.72450000  0.12243000  0.56821000  1
  C  C249  1  0.72450000  0.87757000  0.06821000  1
  C  C250  1  0.72650000  0.04260000  0.54002000  1
  C  C251  1  0.72650000  0.95740000  0.04002000  1
  C  C252  1  0.73304000  0.08266000  0.02911000  1
  C  C253  1  0.73304000  0.91734000  0.52911000  1
  C  C254  1  0.73887000  0.02432000  0.08059000  1
  C  C255  1  0.73887000  0.97568000  0.58059000  1
  C  C256  1  0.73970000  0.16651000  0.03763000  1
  C  C257  1  0.73970000  0.83349000  0.53763000  1
  C  C258  1  0.74365000  0.46947000  0.66098000  1
  C  C259  1  0.74365000  0.53053000  0.16098000  1
  C  C260  1  0.75635000  0.03053000  0.16098000  1
  C  C261  1  0.75635000  0.96947000  0.66098000  1
  C  C262  1  0.76030000  0.33349000  0.53763000  1
  C  C263  1  0.76030000  0.66651000  0.03763000  1
  C  C264  1  0.76113000  0.47568000  0.58059000  1
  C  C265  1  0.76113000  0.52432000  0.08059000  1
  C  C266  1  0.76696000  0.41734000  0.52911000  1
  C  C267  1  0.76696000  0.58266000  0.02911000  1
  C  C268  1  0.77350000  0.45740000  0.04002000  1
  C  C269  1  0.77350000  0.54260000  0.54002000  1
  C  C270  1  0.77550000  0.37757000  0.06821000  1
  C  C271  1  0.77550000  0.62243000  0.56821000  1
  C  C272  1  0.79272000  0.43557000  0.71586000  1
  C  C273  1  0.79272000  0.56443000  0.21586000  1
  C  C274  1  0.82508000  0.00280000  0.19822000  1
  C  C275  1  0.82508000  0.99720000  0.69822000  1
  C  C276  1  0.87220000  0.39380000  0.70789000  1
  C  C277  1  0.87220000  0.60620000  0.20789000  1
  C  C278  1  0.87228000  0.26801000  0.88817000  1
  C  C279  1  0.87228000  0.73199000  0.38817000  1
  C  C280  1  0.89248000  0.11478000  0.42043000  1
  C  C281  1  0.89248000  0.88522000  0.92043000  1
  C  C282  1  0.90050000  0.03660000  0.66964000  1
  C  C283  1  0.90050000  0.96340000  0.16964000  1
  C  C284  1  0.93331000  0.14962000  0.94325000  1
  C  C285  1  0.93331000  0.85038000  0.44325000  1
  C  C286  1  0.93436000  0.22763000  0.93649000  1
  C  C287  1  0.93436000  0.77237000  0.43649000  1
  C  C288  1  0.95433000  0.23270000  0.47474000  1
  C  C289  1  0.95433000  0.76730000  0.97474000  1
  C  C290  1  0.95546000  0.15456000  0.46828000  1
  C  C291  1  0.95546000  0.84544000  0.96828000  1
  C  C292  1  0.98723000  0.11331000  0.99125000  1
  C  C293  1  0.98723000  0.88669000  0.49125000  1
  C  C294  1  0.98988000  0.26894000  0.97883000  1
  C  C295  1  0.98988000  0.73106000  0.47883000  1
  N  N296  1  0.18478000  0.02011000  0.22946000  1
  N  N297  1  0.18478000  0.97989000  0.72946000  1
  N  N298  1  0.21380000  0.47396000  0.53243000  1
  N  N299  1  0.21380000  0.52604000  0.03243000  1
  N  N300  1  0.21873000  0.44944000  0.03749000  1
  N  N301  1  0.21873000  0.55056000  0.53749000  1
  N  N302  1  0.24398000  0.44221000  0.71749000  1
  N  N303  1  0.24398000  0.55779000  0.21749000  1
  N  N304  1  0.25602000  0.05779000  0.21749000  1
  N  N305  1  0.25602000  0.94221000  0.71749000  1
  N  N306  1  0.28127000  0.05056000  0.53749000  1
  N  N307  1  0.28127000  0.94944000  0.03749000  1
  N  N308  1  0.28620000  0.02604000  0.03243000  1
  N  N309  1  0.28620000  0.97396000  0.53243000  1
  N  N310  1  0.31522000  0.47989000  0.72946000  1
  N  N311  1  0.31522000  0.52011000  0.22946000  1
  N  N312  1  0.68478000  0.47989000  0.77054000  1
  N  N313  1  0.68478000  0.52011000  0.27054000  1
  N  N314  1  0.71380000  0.02604000  0.46757000  1
  N  N315  1  0.71380000  0.97396000  0.96757000  1
  N  N316  1  0.71873000  0.05056000  0.96251000  1
  N  N317  1  0.71873000  0.94944000  0.46251000  1
  N  N318  1  0.74398000  0.05779000  0.28251000  1
  N  N319  1  0.74398000  0.94221000  0.78251000  1
  N  N320  1  0.75602000  0.44221000  0.78251000  1
  N  N321  1  0.75602000  0.55779000  0.28251000  1
  N  N322  1  0.78127000  0.44944000  0.46251000  1
  N  N323  1  0.78127000  0.55056000  0.96251000  1
  N  N324  1  0.78620000  0.47396000  0.96757000  1
  N  N325  1  0.78620000  0.52604000  0.46757000  1
  N  N326  1  0.81522000  0.02011000  0.27054000  1
  N  N327  1  0.81522000  0.97989000  0.77054000  1
  O  O328  1  0.09481000  0.04915000  0.10174000  1
  O  O329  1  0.09481000  0.95085000  0.60174000  1
  O  O330  1  0.12783000  0.33979000  0.60507000  1
  O  O331  1  0.12783000  0.66021000  0.10507000  1
  O  O332  1  0.17280000  0.15365000  0.09199000  1
  O  O333  1  0.17280000  0.84635000  0.59199000  1
  O  O334  1  0.17437000  0.23121000  0.65174000  1
  O  O335  1  0.17437000  0.76879000  0.15174000  1
  O  O336  1  0.32563000  0.26879000  0.15174000  1
  O  O337  1  0.32563000  0.73121000  0.65174000  1
  O  O338  1  0.32720000  0.34635000  0.59199000  1
  O  O339  1  0.32720000  0.65365000  0.09199000  1
  O  O340  1  0.37217000  0.16021000  0.10507000  1
  O  O341  1  0.37217000  0.83979000  0.60507000  1
  O  O342  1  0.40519000  0.45085000  0.60174000  1
  O  O343  1  0.40519000  0.54915000  0.10174000  1
  O  O344  1  0.59481000  0.45085000  0.89826000  1
  O  O345  1  0.59481000  0.54915000  0.39826000  1
  O  O346  1  0.62783000  0.16021000  0.39493000  1
  O  O347  1  0.62783000  0.83979000  0.89493000  1
  O  O348  1  0.67280000  0.34635000  0.90801000  1
  O  O349  1  0.67280000  0.65365000  0.40801000  1
  O  O350  1  0.67437000  0.26879000  0.34826000  1
  O  O351  1  0.67437000  0.73121000  0.84826000  1
  O  O352  1  0.82563000  0.23121000  0.84826000  1
  O  O353  1  0.82563000  0.76879000  0.34826000  1
  O  O354  1  0.82720000  0.15365000  0.40801000  1
  O  O355  1  0.82720000  0.84635000  0.90801000  1
  O  O356  1  0.87217000  0.33979000  0.89493000  1
  O  O357  1  0.87217000  0.66021000  0.39493000  1
  O  O358  1  0.90519000  0.04915000  0.39826000  1
  O  O359  1  0.90519000  0.95085000  0.89826000  1
