# generated using pymatgen
data_Zn9Si4H66(C56O17)2
_symmetry_space_group_name_H-M   'P 1'
_cell_length_a   25.37700000
_cell_length_b   29.78800000
_cell_length_c   38.22000000
_cell_angle_alpha   90.00000000
_cell_angle_beta   99.00500000
_cell_angle_gamma   90.00000000
_symmetry_Int_Tables_number   1
_chemical_formula_structural   Zn9Si4H66(C56O17)2
_chemical_formula_sum   'Zn36 Si16 H264 C448 O136'
_cell_volume   28535.54885852
_cell_formula_units_Z   4
loop_
 _symmetry_equiv_pos_site_id
 _symmetry_equiv_pos_as_xyz
  1  'x, y, z'
loop_
 _atom_site_type_symbol
 _atom_site_label
 _atom_site_symmetry_multiplicity
 _atom_site_fract_x
 _atom_site_fract_y
 _atom_site_fract_z
 _atom_site_occupancy
  Zn  Zn0  1  0.01952000  0.54059000  0.84008000  1
  Zn  Zn1  1  0.02557000  0.86670000  0.16750000  1
  Zn  Zn2  1  0.02850000  0.90719000  0.08324000  1
  Zn  Zn3  1  0.03040000  0.64935000  0.85958000  1
  Zn  Zn4  1  0.08935000  0.39761000  0.15875000  1
  Zn  Zn5  1  0.14905000  0.10647000  0.44695000  1
  Zn  Zn6  1  0.24041000  0.65520000  0.54879000  1
  Zn  Zn7  1  0.24051000  0.10724000  0.52119000  1
  Zn  Zn8  1  0.24332000  0.55487000  0.54995000  1
  Zn  Zn9  1  0.25668000  0.05487000  0.45005000  1
  Zn  Zn10  1  0.25949000  0.60724000  0.47881000  1
  Zn  Zn11  1  0.25959000  0.15520000  0.45121000  1
  Zn  Zn12  1  0.35095000  0.60647000  0.55305000  1
  Zn  Zn13  1  0.41065000  0.89761000  0.84125000  1
  Zn  Zn14  1  0.46960000  0.14935000  0.14042000  1
  Zn  Zn15  1  0.47150000  0.40719000  0.91676000  1
  Zn  Zn16  1  0.47443000  0.36670000  0.83250000  1
  Zn  Zn17  1  0.48048000  0.04059000  0.15992000  1
  Zn  Zn18  1  0.51952000  0.95941000  0.84008000  1
  Zn  Zn19  1  0.52557000  0.63330000  0.16750000  1
  Zn  Zn20  1  0.52850000  0.59281000  0.08324000  1
  Zn  Zn21  1  0.53040000  0.85065000  0.85958000  1
  Zn  Zn22  1  0.58935000  0.10239000  0.15875000  1
  Zn  Zn23  1  0.64905000  0.39353000  0.44695000  1
  Zn  Zn24  1  0.74041000  0.84480000  0.54879000  1
  Zn  Zn25  1  0.74051000  0.39276000  0.52119000  1
  Zn  Zn26  1  0.74332000  0.94513000  0.54995000  1
  Zn  Zn27  1  0.75668000  0.44513000  0.45005000  1
  Zn  Zn28  1  0.75949000  0.89276000  0.47881000  1
  Zn  Zn29  1  0.75959000  0.34480000  0.45121000  1
  Zn  Zn30  1  0.85095000  0.89353000  0.55305000  1
  Zn  Zn31  1  0.91065000  0.60239000  0.84125000  1
  Zn  Zn32  1  0.96960000  0.35065000  0.14042000  1
  Zn  Zn33  1  0.97150000  0.09281000  0.91676000  1
  Zn  Zn34  1  0.97443000  0.13330000  0.83250000  1
  Zn  Zn35  1  0.98048000  0.45941000  0.15992000  1
  Si  Si36  1  0.04746000  0.82624000  0.39302000  1
  Si  Si37  1  0.06527000  0.38581000  0.38258000  1
  Si  Si38  1  0.17181000  0.12292000  0.21946000  1
  Si  Si39  1  0.19108000  0.65479000  0.07810000  1
  Si  Si40  1  0.30892000  0.15479000  0.92190000  1
  Si  Si41  1  0.32819000  0.62292000  0.78054000  1
  Si  Si42  1  0.43473000  0.88581000  0.61742000  1
  Si  Si43  1  0.45254000  0.32624000  0.60698000  1
  Si  Si44  1  0.54746000  0.67376000  0.39302000  1
  Si  Si45  1  0.56527000  0.11419000  0.38258000  1
  Si  Si46  1  0.67181000  0.37708000  0.21946000  1
  Si  Si47  1  0.69108000  0.84521000  0.07810000  1
  Si  Si48  1  0.80892000  0.34521000  0.92190000  1
  Si  Si49  1  0.82819000  0.87708000  0.78054000  1
  Si  Si50  1  0.93473000  0.61419000  0.61742000  1
  Si  Si51  1  0.95254000  0.17376000  0.60698000  1
  H  H52  1  0.00080000  0.24120000  0.72420000  1
  H  H53  1  0.00120000  0.44200000  0.33360000  1
  H  H54  1  0.00220000  0.83310000  0.46180000  1
  H  H55  1  0.00580000  0.35950000  0.09300000  1
  H  H56  1  0.00600000  0.54000000  0.72660000  1
  H  H57  1  0.00900000  0.44860000  0.42260000  1
  H  H58  1  0.01010000  0.75980000  0.33780000  1
  H  H59  1  0.01620000  0.91690000  0.41240000  1
  H  H60  1  0.02160000  0.21300000  0.16150000  1
  H  H61  1  0.03020000  0.30240000  0.41410000  1
  H  H62  1  0.03240000  0.66666667  0.63100000  1
  H  H63  1  0.04380000  0.62320000  0.98980000  1
  H  H64  1  0.05360000  0.57990000  0.13370000  1
  H  H65  1  0.05850000  0.16860000  0.64280000  1
  H  H66  1  0.05950000  0.88480000  0.27620000  1
  H  H67  1  0.06100000  0.98420000  0.42860000  1
  H  H68  1  0.06660000  0.14650000  0.17990000  1
  H  H69  1  0.07030000  0.23390000  0.43260000  1
  H  H70  1  0.07040000  0.88580000  0.33810000  1
  H  H71  1  0.07580000  0.54770000  0.56090000  1
  H  H72  1  0.07640000  0.98270000  0.21560000  1
  H  H73  1  0.08180000  0.14760000  0.52480000  1
  H  H74  1  0.09010000  0.73700000  0.37680000  1
  H  H75  1  0.09170000  0.03240000  0.11900000  1
  H  H76  1  0.09510000  0.64230000  0.11260000  1
  H  H77  1  0.09560000  0.62180000  0.04610000  1
  H  H78  1  0.09640000  0.81490000  0.46440000  1
  H  H79  1  0.10410000  0.39960000  0.45690000  1
  H  H80  1  0.10820000  0.14760000  0.27370000  1
  H  H81  1  0.10840000  0.79970000  0.05750000  1
  H  H82  1  0.11360000  0.13680000  0.33480000  1
  H  H83  1  0.11490000  0.37420000  0.26390000  1
  H  H84  1  0.11730000  0.66290000  0.61450000  1
  H  H85  1  0.12020000  0.04580000  0.24250000  1
  H  H86  1  0.12210000  0.35620000  0.32410000  1
  H  H87  1  0.12780000  0.46510000  0.36770000  1
  H  H88  1  0.13060000  0.17770000  0.85430000  1
  H  H89  1  0.13510000  0.76320000  0.16090000  1
  H  H90  1  0.13560000  0.09550000  0.14590000  1
  H  H91  1  0.13590000  0.10290000  0.94330000  1
  H  H92  1  0.14190000  0.68250000  0.41020000  1
  H  H93  1  0.14250000  0.14930000  0.62940000  1
  H  H94  1  0.14820000  0.76030000  0.49780000  1
  H  H95  1  0.14890000  0.73340000  0.04240000  1
  H  H96  1  0.14920000  0.28520000  0.20750000  1
  H  H97  1  0.15090000  0.67630000  0.79840000  1
  H  H98  1  0.15750000  0.85600000  0.40710000  1
  H  H99  1  0.15820000  0.45210000  0.49120000  1
  H  H100  1  0.16630000  0.34230000  0.38010000  1
  H  H101  1  0.16780000  0.67730000  0.94930000  1
  H  H102  1  0.17560000  0.69690000  0.14580000  1
  H  H103  1  0.18060000  0.50270000  0.12070000  1
  H  H104  1  0.18180000  0.51750000  0.40200000  1
  H  H105  1  0.18310000  0.54780000  0.82930000  1
  H  H106  1  0.19430000  0.21870000  0.22580000  1
  H  H107  1  0.20230000  0.92330000  0.42320000  1
  H  H108  1  0.20640000  0.27380000  0.39860000  1
  H  H109  1  0.21970000  0.67600000  0.00560000  1
  H  H110  1  0.22210000  0.56510000  0.09960000  1
  H  H111  1  0.22310000  0.18740000  0.86650000  1
  H  H112  1  0.22840000  0.11260000  0.95550000  1
  H  H113  1  0.23300000  0.05330000  0.18850000  1
  H  H114  1  0.23480000  0.68180000  0.78060000  1
  H  H115  1  0.24360000  0.57480000  0.66250000  1
  H  H116  1  0.24560000  0.13460000  0.58730000  1
  H  H117  1  0.24890000  0.58570000  0.72360000  1
  H  H118  1  0.25110000  0.08570000  0.27640000  1
  H  H119  1  0.25440000  0.63460000  0.41270000  1
  H  H120  1  0.25640000  0.07480000  0.33750000  1
  H  H121  1  0.26520000  0.18180000  0.21940000  1
  H  H122  1  0.26700000  0.55330000  0.81150000  1
  H  H123  1  0.27160000  0.61260000  0.04450000  1
  H  H124  1  0.27690000  0.68740000  0.13350000  1
  H  H125  1  0.27790000  0.06510000  0.90040000  1
  H  H126  1  0.28030000  0.17600000  0.99440000  1
  H  H127  1  0.29360000  0.77380000  0.60140000  1
  H  H128  1  0.29770000  0.42330000  0.57680000  1
  H  H129  1  0.30570000  0.71870000  0.77420000  1
  H  H130  1  0.31690000  0.04780000  0.17070000  1
  H  H131  1  0.31820000  0.01750000  0.59800000  1
  H  H132  1  0.31940000  0.00270000  0.87930000  1
  H  H133  1  0.32440000  0.19690000  0.85420000  1
  H  H134  1  0.33220000  0.17730000  0.05070000  1
  H  H135  1  0.33370000  0.84230000  0.61990000  1
  H  H136  1  0.34180000  0.95210000  0.50880000  1
  H  H137  1  0.34250000  0.35600000  0.59290000  1
  H  H138  1  0.34910000  0.17630000  0.20160000  1
  H  H139  1  0.35080000  0.78520000  0.79250000  1
  H  H140  1  0.35110000  0.23340000  0.95760000  1
  H  H141  1  0.35180000  0.26030000  0.50220000  1
  H  H142  1  0.35750000  0.64930000  0.37060000  1
  H  H143  1  0.35810000  0.18250000  0.58980000  1
  H  H144  1  0.36410000  0.60290000  0.05670000  1
  H  H145  1  0.36440000  0.59550000  0.85410000  1
  H  H146  1  0.36490000  0.26320000  0.83910000  1
  H  H147  1  0.36940000  0.67770000  0.14570000  1
  H  H148  1  0.37220000  0.96510000  0.63230000  1
  H  H149  1  0.37790000  0.85620000  0.67590000  1
  H  H150  1  0.37980000  0.54580000  0.75750000  1
  H  H151  1  0.38270000  0.16290000  0.38550000  1
  H  H152  1  0.38510000  0.87420000  0.73610000  1
  H  H153  1  0.38640000  0.63680000  0.66520000  1
  H  H154  1  0.39160000  0.29970000  0.94250000  1
  H  H155  1  0.39180000  0.64760000  0.72630000  1
  H  H156  1  0.39590000  0.89960000  0.54310000  1
  H  H157  1  0.40360000  0.31490000  0.53560000  1
  H  H158  1  0.40440000  0.12180000  0.95390000  1
  H  H159  1  0.40490000  0.14230000  0.88740000  1
  H  H160  1  0.40830000  0.53240000  0.88100000  1
  H  H161  1  0.40990000  0.23700000  0.62320000  1
  H  H162  1  0.41820000  0.64760000  0.47520000  1
  H  H163  1  0.42360000  0.48270000  0.78440000  1
  H  H164  1  0.42420000  0.04770000  0.43910000  1
  H  H165  1  0.42960000  0.38580000  0.66190000  1
  H  H166  1  0.42970000  0.73390000  0.56740000  1
  H  H167  1  0.43340000  0.64650000  0.82010000  1
  H  H168  1  0.43900000  0.48420000  0.57140000  1
  H  H169  1  0.44050000  0.38480000  0.72380000  1
  H  H170  1  0.44150000  0.66860000  0.35720000  1
  H  H171  1  0.44640000  0.07990000  0.86630000  1
  H  H172  1  0.45620000  0.12320000  0.01020000  1
  H  H173  1  0.46760000  0.16670000  0.36900000  1
  H  H174  1  0.46980000  0.80240000  0.58590000  1
  H  H175  1  0.47840000  0.71300000  0.83850000  1
  H  H176  1  0.48380000  0.41690000  0.58760000  1
  H  H177  1  0.48990000  0.25980000  0.66220000  1
  H  H178  1  0.49100000  0.94860000  0.57740000  1
  H  H179  1  0.49400000  0.04000000  0.27340000  1
  H  H180  1  0.49420000  0.85950000  0.90700000  1
  H  H181  1  0.49780000  0.33310000  0.53820000  1
  H  H182  1  0.49880000  0.94200000  0.66640000  1
  H  H183  1  0.49920000  0.74120000  0.27580000  1
  H  H184  1  0.50080000  0.25880000  0.72420000  1
  H  H185  1  0.50120000  0.05800000  0.33360000  1
  H  H186  1  0.50220000  0.66690000  0.46180000  1
  H  H187  1  0.50580000  0.14050000  0.09300000  1
  H  H188  1  0.50600000  0.96000000  0.72660000  1
  H  H189  1  0.50900000  0.05140000  0.42260000  1
  H  H190  1  0.51010000  0.74020000  0.33780000  1
  H  H191  1  0.51620000  0.58310000  0.41240000  1
  H  H192  1  0.52160000  0.28700000  0.16150000  1
  H  H193  1  0.53020000  0.19760000  0.41410000  1
  H  H194  1  0.53240000  0.83330000  0.63100000  1
  H  H195  1  0.54380000  0.87680000  0.98980000  1
  H  H196  1  0.55360000  0.92010000  0.13370000  1
  H  H197  1  0.55850000  0.33140000  0.64280000  1
  H  H198  1  0.55950000  0.61520000  0.27620000  1
  H  H199  1  0.56100000  0.51580000  0.42860000  1
  H  H200  1  0.56660000  0.35350000  0.17990000  1
  H  H201  1  0.57030000  0.26610000  0.43260000  1
  H  H202  1  0.57040000  0.61420000  0.33810000  1
  H  H203  1  0.57580000  0.95230000  0.56090000  1
  H  H204  1  0.57640000  0.51730000  0.21560000  1
  H  H205  1  0.58180000  0.35240000  0.52480000  1
  H  H206  1  0.59010000  0.76300000  0.37680000  1
  H  H207  1  0.59170000  0.46760000  0.11900000  1
  H  H208  1  0.59510000  0.85770000  0.11260000  1
  H  H209  1  0.59560000  0.87820000  0.04610000  1
  H  H210  1  0.59640000  0.68510000  0.46440000  1
  H  H211  1  0.60410000  0.10040000  0.45690000  1
  H  H212  1  0.60820000  0.35240000  0.27370000  1
  H  H213  1  0.60840000  0.70030000  0.05750000  1
  H  H214  1  0.61360000  0.36320000  0.33480000  1
  H  H215  1  0.61490000  0.12580000  0.26390000  1
  H  H216  1  0.61730000  0.83710000  0.61450000  1
  H  H217  1  0.62020000  0.45420000  0.24250000  1
  H  H218  1  0.62210000  0.14380000  0.32410000  1
  H  H219  1  0.62780000  0.03490000  0.36770000  1
  H  H220  1  0.63060000  0.32230000  0.85430000  1
  H  H221  1  0.63510000  0.73680000  0.16090000  1
  H  H222  1  0.63560000  0.40450000  0.14590000  1
  H  H223  1  0.63590000  0.39710000  0.94330000  1
  H  H224  1  0.64190000  0.81750000  0.41020000  1
  H  H225  1  0.64250000  0.35070000  0.62940000  1
  H  H226  1  0.64820000  0.73970000  0.49780000  1
  H  H227  1  0.64890000  0.76660000  0.04240000  1
  H  H228  1  0.64920000  0.21480000  0.20750000  1
  H  H229  1  0.65090000  0.82370000  0.79840000  1
  H  H230  1  0.65750000  0.64400000  0.40710000  1
  H  H231  1  0.65820000  0.04790000  0.49120000  1
  H  H232  1  0.66630000  0.15770000  0.38010000  1
  H  H233  1  0.66780000  0.82270000  0.94930000  1
  H  H234  1  0.67560000  0.80310000  0.14580000  1
  H  H235  1  0.68060000  0.99730000  0.12070000  1
  H  H236  1  0.68180000  0.98250000  0.40200000  1
  H  H237  1  0.68310000  0.95220000  0.82930000  1
  H  H238  1  0.69430000  0.28130000  0.22580000  1
  H  H239  1  0.70230000  0.57670000  0.42320000  1
  H  H240  1  0.70640000  0.22620000  0.39860000  1
  H  H241  1  0.71970000  0.82400000  0.00560000  1
  H  H242  1  0.72210000  0.93490000  0.09960000  1
  H  H243  1  0.72310000  0.31260000  0.86650000  1
  H  H244  1  0.72840000  0.38740000  0.95550000  1
  H  H245  1  0.73300000  0.44670000  0.18850000  1
  H  H246  1  0.73480000  0.81820000  0.78060000  1
  H  H247  1  0.74360000  0.92520000  0.66250000  1
  H  H248  1  0.74560000  0.36540000  0.58730000  1
  H  H249  1  0.74890000  0.91430000  0.72360000  1
  H  H250  1  0.75110000  0.41430000  0.27640000  1
  H  H251  1  0.75440000  0.86540000  0.41270000  1
  H  H252  1  0.75640000  0.42520000  0.33750000  1
  H  H253  1  0.76520000  0.31820000  0.21940000  1
  H  H254  1  0.76700000  0.94670000  0.81150000  1
  H  H255  1  0.77160000  0.88740000  0.04450000  1
  H  H256  1  0.77690000  0.81260000  0.13350000  1
  H  H257  1  0.77790000  0.43490000  0.90040000  1
  H  H258  1  0.78030000  0.32400000  0.99440000  1
  H  H259  1  0.79360000  0.72620000  0.60140000  1
  H  H260  1  0.79770000  0.07670000  0.57680000  1
  H  H261  1  0.80570000  0.78130000  0.77420000  1
  H  H262  1  0.81690000  0.45220000  0.17070000  1
  H  H263  1  0.81820000  0.48250000  0.59800000  1
  H  H264  1  0.81940000  0.49730000  0.87930000  1
  H  H265  1  0.82440000  0.30310000  0.85420000  1
  H  H266  1  0.83220000  0.32270000  0.05070000  1
  H  H267  1  0.83370000  0.65770000  0.61990000  1
  H  H268  1  0.84180000  0.54790000  0.50880000  1
  H  H269  1  0.84250000  0.14400000  0.59290000  1
  H  H270  1  0.84910000  0.32370000  0.20160000  1
  H  H271  1  0.85080000  0.71480000  0.79250000  1
  H  H272  1  0.85110000  0.26660000  0.95760000  1
  H  H273  1  0.85180000  0.23970000  0.50220000  1
  H  H274  1  0.85750000  0.85070000  0.37060000  1
  H  H275  1  0.85810000  0.31750000  0.58980000  1
  H  H276  1  0.86410000  0.89710000  0.05670000  1
  H  H277  1  0.86440000  0.90450000  0.85410000  1
  H  H278  1  0.86490000  0.23680000  0.83910000  1
  H  H279  1  0.86940000  0.82230000  0.14570000  1
  H  H280  1  0.87220000  0.53490000  0.63230000  1
  H  H281  1  0.87790000  0.64380000  0.67590000  1
  H  H282  1  0.87980000  0.95420000  0.75750000  1
  H  H283  1  0.88270000  0.33710000  0.38550000  1
  H  H284  1  0.88510000  0.62580000  0.73610000  1
  H  H285  1  0.88640000  0.86320000  0.66520000  1
  H  H286  1  0.89160000  0.20030000  0.94250000  1
  H  H287  1  0.89180000  0.85240000  0.72630000  1
  H  H288  1  0.89590000  0.60040000  0.54310000  1
  H  H289  1  0.90360000  0.18510000  0.53560000  1
  H  H290  1  0.90440000  0.37820000  0.95390000  1
  H  H291  1  0.90490000  0.35770000  0.88740000  1
  H  H292  1  0.90830000  0.96760000  0.88100000  1
  H  H293  1  0.90990000  0.26300000  0.62320000  1
  H  H294  1  0.91820000  0.85240000  0.47520000  1
  H  H295  1  0.92360000  0.01730000  0.78440000  1
  H  H296  1  0.92420000  0.45230000  0.43910000  1
  H  H297  1  0.92960000  0.11420000  0.66190000  1
  H  H298  1  0.92970000  0.76610000  0.56740000  1
  H  H299  1  0.93340000  0.85350000  0.82010000  1
  H  H300  1  0.93900000  0.01580000  0.57140000  1
  H  H301  1  0.94050000  0.11520000  0.72380000  1
  H  H302  1  0.94150000  0.83140000  0.35720000  1
  H  H303  1  0.94640000  0.42010000  0.86630000  1
  H  H304  1  0.95620000  0.37680000  0.01020000  1
  H  H305  1  0.96760000  0.33333333  0.36900000  1
  H  H306  1  0.96980000  0.69760000  0.58590000  1
  H  H307  1  0.97840000  0.78700000  0.83850000  1
  H  H308  1  0.98380000  0.08310000  0.58760000  1
  H  H309  1  0.98990000  0.24020000  0.66220000  1
  H  H310  1  0.99100000  0.55140000  0.57740000  1
  H  H311  1  0.99400000  0.46000000  0.27340000  1
  H  H312  1  0.99420000  0.64050000  0.90700000  1
  H  H313  1  0.99780000  0.16690000  0.53820000  1
  H  H314  1  0.99880000  0.55800000  0.66640000  1
  H  H315  1  0.99920000  0.75880000  0.27580000  1
  C  C316  1  0.00372000  0.60943000  0.60575000  1
  C  C317  1  0.01367000  0.78457000  0.28849000  1
  C  C318  1  0.01661000  0.57407000  0.58492000  1
  C  C319  1  0.02000000  0.43892000  0.28373000  1
  C  C320  1  0.02015000  0.78517000  0.32528000  1
  C  C321  1  0.02025000  0.16955000  0.59176000  1
  C  C322  1  0.02050000  0.82490000  0.23000000  1
  C  C323  1  0.02428000  0.42822000  0.31946000  1
  C  C324  1  0.02719000  0.16334000  0.55672000  1
  C  C325  1  0.02834000  0.82170000  0.27020000  1
  C  C326  1  0.04125000  0.64255000  0.61678000  1
  C  C327  1  0.04129000  0.82290000  0.34378000  1
  C  C328  1  0.04673000  0.43209000  0.22453000  1
  C  C329  1  0.04947000  0.85944000  0.28870000  1
  C  C330  1  0.05140000  0.29784000  0.17079000  1
  C  C331  1  0.05377000  0.41880000  0.26303000  1
  C  C332  1  0.05397000  0.91821000  0.41457000  1
  C  C333  1  0.05595000  0.86003000  0.32548000  1
  C  C334  1  0.05664000  0.21418000  0.17459000  1
  C  C335  1  0.05718000  0.64860000  0.93260000  1
  C  C336  1  0.06000000  0.96220000  0.14730000  1
  C  C337  1  0.06233000  0.39740000  0.33449000  1
  C  C338  1  0.06320000  0.16431000  0.61885000  1
  C  C339  1  0.06595000  0.29657000  0.41092000  1
  C  C340  1  0.06702000  0.57182000  0.57511000  1
  C  C341  1  0.06940000  0.13120000  0.88940000  1
  C  C342  1  0.07710000  0.15188000  0.54878000  1
  C  C343  1  0.07951000  0.63392000  0.99299000  1
  C  C344  1  0.07991000  0.00161000  0.16470000  1
  C  C345  1  0.08056000  0.95821000  0.42419000  1
  C  C346  1  0.08118000  0.25539000  0.18280000  1
  C  C347  1  0.08266000  0.88013000  0.40819000  1
  C  C348  1  0.08340000  0.17465000  0.18547000  1
  C  C349  1  0.08490000  0.82780000  0.11780000  1
  C  C350  1  0.08590000  0.49480000  0.14331000  1
  C  C351  1  0.08783000  0.57694000  0.12678000  1
  C  C352  1  0.08837000  0.78108000  0.41745000  1
  C  C353  1  0.08838000  0.00560000  0.20141000  1
  C  C354  1  0.08981000  0.25589000  0.42192000  1
  C  C355  1  0.09167000  0.64030000  0.60696000  1
  C  C356  1  0.09183000  0.38797000  0.27806000  1
  C  C357  1  0.09444000  0.32876000  0.39532000  1
  C  C358  1  0.09611000  0.37728000  0.31380000  1
  C  C359  1  0.09750000  0.03510000  0.14403000  1
  C  C360  1  0.10100000  0.65040000  0.96424000  1
  C  C361  1  0.10188000  0.74177000  0.40137000  1
  C  C362  1  0.10455000  0.60494000  0.58613000  1
  C  C363  1  0.10564000  0.78799000  0.45338000  1
  C  C364  1  0.10890000  0.60790000  0.82674000  1
  C  C365  1  0.11030000  0.63311000  0.02644000  1
  C  C366  1  0.11088000  0.42742000  0.40907000  1
  C  C367  1  0.11243000  0.61400000  0.11424000  1
  C  C368  1  0.11311000  0.15286000  0.61092000  1
  C  C369  1  0.11325000  0.53546000  0.12919000  1
  C  C370  1  0.11440000  0.04310000  0.21740000  1
  C  C371  1  0.11793000  0.78770000  0.11058000  1
  C  C372  1  0.11991000  0.42356000  0.44576000  1
  C  C373  1  0.12004000  0.14664000  0.57588000  1
  C  C374  1  0.12204000  0.77886000  0.07540000  1
  C  C375  1  0.12360000  0.07260000  0.16001000  1
  C  C376  1  0.12451000  0.13942000  0.89765000  1
  C  C377  1  0.13202000  0.07661000  0.19670000  1
  C  C378  1  0.13248000  0.25707000  0.20190000  1
  C  C379  1  0.13265000  0.70936000  0.42123000  1
  C  C380  1  0.13394000  0.46242000  0.39276000  1
  C  C381  1  0.13469000  0.17633000  0.20456000  1
  C  C382  1  0.13584000  0.96012000  0.42742000  1
  C  C383  1  0.13641000  0.75558000  0.47324000  1
  C  C384  1  0.13790000  0.75710000  0.13682000  1
  C  C385  1  0.13794000  0.88204000  0.41142000  1
  C  C386  1  0.13831000  0.13285000  0.28663000  1
  C  C387  1  0.14146000  0.12639000  0.32292000  1
  C  C388  1  0.14215000  0.24740000  0.41733000  1
  C  C389  1  0.14610000  0.73950000  0.06646000  1
  C  C390  1  0.14678000  0.32027000  0.39073000  1
  C  C391  1  0.14991000  0.71627000  0.45716000  1
  C  C392  1  0.15040000  0.16450000  0.87481000  1
  C  C393  1  0.15200000  0.45470000  0.46615000  1
  C  C394  1  0.15320000  0.66606000  0.96893000  1
  C  C395  1  0.15360000  0.12008000  0.92772000  1
  C  C396  1  0.15630000  0.60376000  0.57178000  1
  C  C397  1  0.15911000  0.61153000  0.81552000  1
  C  C398  1  0.15923000  0.21754000  0.21278000  1
  C  C399  1  0.16195000  0.71774000  0.12788000  1
  C  C400  1  0.16220000  0.00363000  0.43887000  1
  C  C401  1  0.16246000  0.60959000  0.10411000  1
  C  C402  1  0.16250000  0.64877000  0.03113000  1
  C  C403  1  0.16327000  0.53106000  0.11907000  1
  C  C404  1  0.16453000  0.92204000  0.42103000  1
  C  C405  1  0.16603000  0.49356000  0.41315000  1
  C  C406  1  0.16606000  0.70891000  0.09270000  1
  C  C407  1  0.16770000  0.20349000  0.43087000  1
  C  C408  1  0.17064000  0.27959000  0.40174000  1
  C  C409  1  0.17446000  0.65135000  0.80104000  1
  C  C410  1  0.17506000  0.48970000  0.44984000  1
  C  C411  1  0.17706000  0.13830000  0.57090000  1
  C  C412  1  0.17915000  0.11769000  0.26929000  1
  C  C413  1  0.18396000  0.66525000  0.00238000  1
  C  C414  1  0.18545000  0.10478000  0.34187000  1
  C  C415  1  0.18730000  0.68290000  0.47620000  1
  C  C416  1  0.18787000  0.56812000  0.10653000  1
  C  C417  1  0.18960000  0.09810000  0.37896000  1
  C  C418  1  0.19359000  0.57499000  0.81943000  1
  C  C419  1  0.20430000  0.52473000  0.47272000  1
  C  C420  1  0.20540000  0.17023000  0.88206000  1
  C  C421  1  0.20860000  0.12581000  0.93497000  1
  C  C422  1  0.22314000  0.09607000  0.28824000  1
  C  C423  1  0.22431000  0.65462000  0.79047000  1
  C  C424  1  0.22629000  0.08962000  0.32453000  1
  C  C425  1  0.23449000  0.15088000  0.91213000  1
  C  C426  1  0.24121000  0.11808000  0.20561000  1
  C  C427  1  0.24344000  0.57826000  0.80887000  1
  C  C428  1  0.25656000  0.07826000  0.19113000  1
  C  C429  1  0.25879000  0.61808000  0.79439000  1
  C  C430  1  0.26551000  0.65088000  0.08787000  1
  C  C431  1  0.27371000  0.58962000  0.67547000  1
  C  C432  1  0.27569000  0.15462000  0.20953000  1
  C  C433  1  0.27686000  0.59607000  0.71176000  1
  C  C434  1  0.29140000  0.62581000  0.06503000  1
  C  C435  1  0.29460000  0.67023000  0.11794000  1
  C  C436  1  0.29570000  0.02473000  0.52728000  1
  C  C437  1  0.30641000  0.07499000  0.18057000  1
  C  C438  1  0.31040000  0.59810000  0.62104000  1
  C  C439  1  0.31213000  0.06812000  0.89347000  1
  C  C440  1  0.31270000  0.18290000  0.52380000  1
  C  C441  1  0.31455000  0.60478000  0.65813000  1
  C  C442  1  0.31604000  0.16525000  0.99762000  1
  C  C443  1  0.32085000  0.61769000  0.73071000  1
  C  C444  1  0.32294000  0.63830000  0.42910000  1
  C  C445  1  0.32494000  0.98970000  0.55016000  1
  C  C446  1  0.32554000  0.15135000  0.19896000  1
  C  C447  1  0.32936000  0.77959000  0.59826000  1
  C  C448  1  0.33230000  0.70349000  0.56913000  1
  C  C449  1  0.33394000  0.20891000  0.90730000  1
  C  C450  1  0.33397000  0.99356000  0.58685000  1
  C  C451  1  0.33547000  0.42204000  0.57897000  1
  C  C452  1  0.33673000  0.03106000  0.88093000  1
  C  C453  1  0.33750000  0.14877000  0.96887000  1
  C  C454  1  0.33754000  0.10959000  0.89589000  1
  C  C455  1  0.33780000  0.50363000  0.56113000  1
  C  C456  1  0.33805000  0.21774000  0.87212000  1
  C  C457  1  0.34077000  0.71754000  0.78722000  1
  C  C458  1  0.34089000  0.11153000  0.18448000  1
  C  C459  1  0.34370000  0.10376000  0.42822000  1
  C  C460  1  0.34640000  0.62008000  0.07228000  1
  C  C461  1  0.34680000  0.16606000  0.03107000  1
  C  C462  1  0.34800000  0.95470000  0.53385000  1
  C  C463  1  0.34960000  0.66450000  0.12519000  1
  C  C464  1  0.35009000  0.21627000  0.54284000  1
  C  C465  1  0.35322000  0.82027000  0.60927000  1
  C  C466  1  0.35390000  0.23950000  0.93354000  1
  C  C467  1  0.35785000  0.74740000  0.58267000  1
  C  C468  1  0.35854000  0.62639000  0.67708000  1
  C  C469  1  0.36169000  0.63285000  0.71337000  1
  C  C470  1  0.36206000  0.38204000  0.58858000  1
  C  C471  1  0.36210000  0.25710000  0.86318000  1
  C  C472  1  0.36359000  0.25558000  0.52676000  1
  C  C473  1  0.36416000  0.46012000  0.57258000  1
  C  C474  1  0.36531000  0.67633000  0.79544000  1
  C  C475  1  0.36606000  0.96242000  0.60724000  1
  C  C476  1  0.36735000  0.20936000  0.57877000  1
  C  C477  1  0.36752000  0.75707000  0.79810000  1
  C  C478  1  0.36798000  0.57661000  0.80330000  1
  C  C479  1  0.37549000  0.63942000  0.10235000  1
  C  C480  1  0.37640000  0.57260000  0.83999000  1
  C  C481  1  0.37796000  0.27886000  0.92460000  1
  C  C482  1  0.37996000  0.64664000  0.42412000  1
  C  C483  1  0.38009000  0.92356000  0.55424000  1
  C  C484  1  0.38207000  0.28770000  0.88942000  1
  C  C485  1  0.38560000  0.54310000  0.78260000  1
  C  C486  1  0.38675000  0.03546000  0.87081000  1
  C  C487  1  0.38689000  0.65286000  0.38908000  1
  C  C488  1  0.38757000  0.11400000  0.88576000  1
  C  C489  1  0.38912000  0.92742000  0.59093000  1
  C  C490  1  0.38970000  0.13311000  0.97356000  1
  C  C491  1  0.39110000  0.10790000  0.17326000  1
  C  C492  1  0.39436000  0.28799000  0.54662000  1
  C  C493  1  0.39545000  0.10494000  0.41387000  1
  C  C494  1  0.39812000  0.24177000  0.59863000  1
  C  C495  1  0.39900000  0.15040000  0.03576000  1
  C  C496  1  0.40250000  0.53510000  0.85597000  1
  C  C497  1  0.40389000  0.87728000  0.68620000  1
  C  C498  1  0.40556000  0.82876000  0.60468000  1
  C  C499  1  0.40817000  0.88797000  0.72194000  1
  C  C500  1  0.40833000  0.14030000  0.39304000  1
  C  C501  1  0.41019000  0.75589000  0.57808000  1
  C  C502  1  0.41162000  0.50560000  0.79859000  1
  C  C503  1  0.41163000  0.28108000  0.58255000  1
  C  C504  1  0.41217000  0.07694000  0.87322000  1
  C  C505  1  0.41410000  0.99480000  0.85669000  1
  C  C506  1  0.41510000  0.32780000  0.88220000  1
  C  C507  1  0.41660000  0.67465000  0.81453000  1
  C  C508  1  0.41734000  0.38013000  0.59181000  1
  C  C509  1  0.41882000  0.75539000  0.81720000  1
  C  C510  1  0.41944000  0.45821000  0.57581000  1
  C  C511  1  0.42009000  0.50161000  0.83530000  1
  C  C512  1  0.42049000  0.13392000  0.00701000  1
  C  C513  1  0.42290000  0.65188000  0.45122000  1
  C  C514  1  0.43060000  0.63120000  0.11060000  1
  C  C515  1  0.43298000  0.07182000  0.42489000  1
  C  C516  1  0.43405000  0.79657000  0.58908000  1
  C  C517  1  0.43680000  0.66431000  0.38115000  1
  C  C518  1  0.43767000  0.89740000  0.66551000  1
  C  C519  1  0.44000000  0.46220000  0.85270000  1
  C  C520  1  0.44282000  0.14860000  0.06740000  1
  C  C521  1  0.44336000  0.71418000  0.82541000  1
  C  C522  1  0.44405000  0.36003000  0.67452000  1
  C  C523  1  0.44603000  0.41821000  0.58543000  1
  C  C524  1  0.44623000  0.91880000  0.73697000  1
  C  C525  1  0.44860000  0.79784000  0.82921000  1
  C  C526  1  0.45053000  0.35944000  0.71130000  1
  C  C527  1  0.45327000  0.93209000  0.77547000  1
  C  C528  1  0.45871000  0.32290000  0.65622000  1
  C  C529  1  0.45875000  0.14255000  0.38322000  1
  C  C530  1  0.47166000  0.32170000  0.72980000  1
  C  C531  1  0.47281000  0.66334000  0.44328000  1
  C  C532  1  0.47572000  0.92822000  0.68054000  1
  C  C533  1  0.47950000  0.32490000  0.77000000  1
  C  C534  1  0.47975000  0.66955000  0.40824000  1
  C  C535  1  0.47985000  0.28517000  0.67472000  1
  C  C536  1  0.48000000  0.93892000  0.71627000  1
  C  C537  1  0.48339000  0.07407000  0.41508000  1
  C  C538  1  0.48633000  0.28457000  0.71151000  1
  C  C539  1  0.49628000  0.10943000  0.39425000  1
  C  C540  1  0.50372000  0.89057000  0.60575000  1
  C  C541  1  0.51367000  0.71543000  0.28849000  1
  C  C542  1  0.51661000  0.92593000  0.58492000  1
  C  C543  1  0.52000000  0.06108000  0.28373000  1
  C  C544  1  0.52015000  0.71483000  0.32528000  1
  C  C545  1  0.52025000  0.33045000  0.59176000  1
  C  C546  1  0.52050000  0.67510000  0.23000000  1
  C  C547  1  0.52428000  0.07178000  0.31946000  1
  C  C548  1  0.52719000  0.33666000  0.55672000  1
  C  C549  1  0.52834000  0.67830000  0.27020000  1
  C  C550  1  0.54125000  0.85745000  0.61678000  1
  C  C551  1  0.54129000  0.67710000  0.34378000  1
  C  C552  1  0.54673000  0.06791000  0.22453000  1
  C  C553  1  0.54947000  0.64056000  0.28870000  1
  C  C554  1  0.55140000  0.20216000  0.17079000  1
  C  C555  1  0.55377000  0.08120000  0.26303000  1
  C  C556  1  0.55397000  0.58179000  0.41457000  1
  C  C557  1  0.55595000  0.63997000  0.32548000  1
  C  C558  1  0.55664000  0.28582000  0.17459000  1
  C  C559  1  0.55718000  0.85140000  0.93260000  1
  C  C560  1  0.56000000  0.53780000  0.14730000  1
  C  C561  1  0.56233000  0.10260000  0.33449000  1
  C  C562  1  0.56320000  0.33569000  0.61885000  1
  C  C563  1  0.56595000  0.20343000  0.41092000  1
  C  C564  1  0.56702000  0.92818000  0.57511000  1
  C  C565  1  0.56940000  0.36880000  0.88940000  1
  C  C566  1  0.57710000  0.34812000  0.54878000  1
  C  C567  1  0.57951000  0.86608000  0.99299000  1
  C  C568  1  0.57991000  0.49839000  0.16470000  1
  C  C569  1  0.58056000  0.54179000  0.42419000  1
  C  C570  1  0.58118000  0.24461000  0.18280000  1
  C  C571  1  0.58266000  0.61987000  0.40819000  1
  C  C572  1  0.58340000  0.32535000  0.18547000  1
  C  C573  1  0.58490000  0.67220000  0.11780000  1
  C  C574  1  0.58590000  0.00520000  0.14331000  1
  C  C575  1  0.58783000  0.92306000  0.12678000  1
  C  C576  1  0.58837000  0.71892000  0.41745000  1
  C  C577  1  0.58838000  0.49440000  0.20141000  1
  C  C578  1  0.58981000  0.24411000  0.42192000  1
  C  C579  1  0.59167000  0.85970000  0.60696000  1
  C  C580  1  0.59183000  0.11203000  0.27806000  1
  C  C581  1  0.59444000  0.17124000  0.39532000  1
  C  C582  1  0.59611000  0.12272000  0.31380000  1
  C  C583  1  0.59750000  0.46490000  0.14403000  1
  C  C584  1  0.60100000  0.84960000  0.96424000  1
  C  C585  1  0.60188000  0.75823000  0.40137000  1
  C  C586  1  0.60455000  0.89506000  0.58613000  1
  C  C587  1  0.60564000  0.71201000  0.45338000  1
  C  C588  1  0.60890000  0.89210000  0.82674000  1
  C  C589  1  0.61030000  0.86689000  0.02644000  1
  C  C590  1  0.61088000  0.07258000  0.40907000  1
  C  C591  1  0.61243000  0.88600000  0.11424000  1
  C  C592  1  0.61311000  0.34714000  0.61092000  1
  C  C593  1  0.61325000  0.96454000  0.12919000  1
  C  C594  1  0.61440000  0.45690000  0.21740000  1
  C  C595  1  0.61793000  0.71230000  0.11058000  1
  C  C596  1  0.61991000  0.07644000  0.44576000  1
  C  C597  1  0.62004000  0.35336000  0.57588000  1
  C  C598  1  0.62204000  0.72114000  0.07540000  1
  C  C599  1  0.62360000  0.42740000  0.16001000  1
  C  C600  1  0.62451000  0.36058000  0.89765000  1
  C  C601  1  0.63202000  0.42339000  0.19670000  1
  C  C602  1  0.63248000  0.24293000  0.20190000  1
  C  C603  1  0.63265000  0.79064000  0.42123000  1
  C  C604  1  0.63394000  0.03758000  0.39276000  1
  C  C605  1  0.63469000  0.32367000  0.20456000  1
  C  C606  1  0.63584000  0.53988000  0.42742000  1
  C  C607  1  0.63641000  0.74442000  0.47324000  1
  C  C608  1  0.63790000  0.74290000  0.13682000  1
  C  C609  1  0.63794000  0.61796000  0.41142000  1
  C  C610  1  0.63831000  0.36715000  0.28663000  1
  C  C611  1  0.64146000  0.37361000  0.32292000  1
  C  C612  1  0.64215000  0.25260000  0.41733000  1
  C  C613  1  0.64610000  0.76050000  0.06646000  1
  C  C614  1  0.64678000  0.17973000  0.39073000  1
  C  C615  1  0.64991000  0.78373000  0.45716000  1
  C  C616  1  0.65040000  0.33550000  0.87481000  1
  C  C617  1  0.65200000  0.04530000  0.46615000  1
  C  C618  1  0.65320000  0.83394000  0.96893000  1
  C  C619  1  0.65360000  0.37992000  0.92772000  1
  C  C620  1  0.65630000  0.89624000  0.57178000  1
  C  C621  1  0.65911000  0.88847000  0.81552000  1
  C  C622  1  0.65923000  0.28246000  0.21278000  1
  C  C623  1  0.66195000  0.78226000  0.12788000  1
  C  C624  1  0.66220000  0.49637000  0.43887000  1
  C  C625  1  0.66246000  0.89041000  0.10411000  1
  C  C626  1  0.66250000  0.85123000  0.03113000  1
  C  C627  1  0.66327000  0.96894000  0.11907000  1
  C  C628  1  0.66453000  0.57796000  0.42103000  1
  C  C629  1  0.66603000  0.00644000  0.41315000  1
  C  C630  1  0.66606000  0.79109000  0.09270000  1
  C  C631  1  0.66770000  0.29651000  0.43087000  1
  C  C632  1  0.67064000  0.22041000  0.40174000  1
  C  C633  1  0.67446000  0.84865000  0.80104000  1
  C  C634  1  0.67506000  0.01030000  0.44984000  1
  C  C635  1  0.67706000  0.36170000  0.57090000  1
  C  C636  1  0.67915000  0.38231000  0.26929000  1
  C  C637  1  0.68396000  0.83475000  0.00238000  1
  C  C638  1  0.68545000  0.39522000  0.34187000  1
  C  C639  1  0.68730000  0.81710000  0.47620000  1
  C  C640  1  0.68787000  0.93188000  0.10653000  1
  C  C641  1  0.68960000  0.40190000  0.37896000  1
  C  C642  1  0.69359000  0.92501000  0.81943000  1
  C  C643  1  0.70430000  0.97527000  0.47272000  1
  C  C644  1  0.70540000  0.32977000  0.88206000  1
  C  C645  1  0.70860000  0.37419000  0.93497000  1
  C  C646  1  0.72314000  0.40393000  0.28824000  1
  C  C647  1  0.72431000  0.84538000  0.79047000  1
  C  C648  1  0.72629000  0.41038000  0.32453000  1
  C  C649  1  0.73449000  0.34912000  0.91213000  1
  C  C650  1  0.74121000  0.38192000  0.20561000  1
  C  C651  1  0.74344000  0.92174000  0.80887000  1
  C  C652  1  0.75656000  0.42174000  0.19113000  1
  C  C653  1  0.75879000  0.88192000  0.79439000  1
  C  C654  1  0.76551000  0.84912000  0.08787000  1
  C  C655  1  0.77371000  0.91038000  0.67547000  1
  C  C656  1  0.77569000  0.34538000  0.20953000  1
  C  C657  1  0.77686000  0.90393000  0.71176000  1
  C  C658  1  0.79140000  0.87419000  0.06503000  1
  C  C659  1  0.79460000  0.82977000  0.11794000  1
  C  C660  1  0.79570000  0.47527000  0.52728000  1
  C  C661  1  0.80641000  0.42501000  0.18057000  1
  C  C662  1  0.81040000  0.90190000  0.62104000  1
  C  C663  1  0.81213000  0.43188000  0.89347000  1
  C  C664  1  0.81270000  0.31710000  0.52380000  1
  C  C665  1  0.81455000  0.89522000  0.65813000  1
  C  C666  1  0.81604000  0.33475000  0.99762000  1
  C  C667  1  0.82085000  0.88231000  0.73071000  1
  C  C668  1  0.82294000  0.86170000  0.42910000  1
  C  C669  1  0.82494000  0.51030000  0.55016000  1
  C  C670  1  0.82554000  0.34865000  0.19896000  1
  C  C671  1  0.82936000  0.72041000  0.59826000  1
  C  C672  1  0.83230000  0.79651000  0.56913000  1
  C  C673  1  0.83394000  0.29109000  0.90730000  1
  C  C674  1  0.83397000  0.50644000  0.58685000  1
  C  C675  1  0.83547000  0.07796000  0.57897000  1
  C  C676  1  0.83673000  0.46894000  0.88093000  1
  C  C677  1  0.83750000  0.35123000  0.96887000  1
  C  C678  1  0.83754000  0.39041000  0.89589000  1
  C  C679  1  0.83780000  0.99637000  0.56113000  1
  C  C680  1  0.83805000  0.28226000  0.87212000  1
  C  C681  1  0.84077000  0.78246000  0.78722000  1
  C  C682  1  0.84089000  0.38847000  0.18448000  1
  C  C683  1  0.84370000  0.39624000  0.42822000  1
  C  C684  1  0.84640000  0.87992000  0.07228000  1
  C  C685  1  0.84680000  0.33394000  0.03107000  1
  C  C686  1  0.84800000  0.54530000  0.53385000  1
  C  C687  1  0.84960000  0.83550000  0.12519000  1
  C  C688  1  0.85009000  0.28373000  0.54284000  1
  C  C689  1  0.85322000  0.67973000  0.60927000  1
  C  C690  1  0.85390000  0.26050000  0.93354000  1
  C  C691  1  0.85785000  0.75260000  0.58267000  1
  C  C692  1  0.85854000  0.87361000  0.67708000  1
  C  C693  1  0.86169000  0.86715000  0.71337000  1
  C  C694  1  0.86206000  0.11796000  0.58858000  1
  C  C695  1  0.86210000  0.24290000  0.86318000  1
  C  C696  1  0.86359000  0.24442000  0.52676000  1
  C  C697  1  0.86416000  0.03988000  0.57258000  1
  C  C698  1  0.86531000  0.82367000  0.79544000  1
  C  C699  1  0.86606000  0.53758000  0.60724000  1
  C  C700  1  0.86735000  0.29064000  0.57877000  1
  C  C701  1  0.86752000  0.74293000  0.79810000  1
  C  C702  1  0.86798000  0.92339000  0.80330000  1
  C  C703  1  0.87549000  0.86058000  0.10235000  1
  C  C704  1  0.87640000  0.92740000  0.83999000  1
  C  C705  1  0.87796000  0.22114000  0.92460000  1
  C  C706  1  0.87996000  0.85336000  0.42412000  1
  C  C707  1  0.88009000  0.57644000  0.55424000  1
  C  C708  1  0.88207000  0.21230000  0.88942000  1
  C  C709  1  0.88560000  0.95690000  0.78260000  1
  C  C710  1  0.88675000  0.46454000  0.87081000  1
  C  C711  1  0.88689000  0.84714000  0.38908000  1
  C  C712  1  0.88757000  0.38600000  0.88576000  1
  C  C713  1  0.88912000  0.57258000  0.59093000  1
  C  C714  1  0.88970000  0.36689000  0.97356000  1
  C  C715  1  0.89110000  0.39210000  0.17326000  1
  C  C716  1  0.89436000  0.21201000  0.54662000  1
  C  C717  1  0.89545000  0.39506000  0.41387000  1
  C  C718  1  0.89812000  0.25823000  0.59863000  1
  C  C719  1  0.89900000  0.34960000  0.03576000  1
  C  C720  1  0.90250000  0.96490000  0.85597000  1
  C  C721  1  0.90389000  0.62272000  0.68620000  1
  C  C722  1  0.90556000  0.67124000  0.60468000  1
  C  C723  1  0.90817000  0.61203000  0.72194000  1
  C  C724  1  0.90833000  0.35970000  0.39304000  1
  C  C725  1  0.91019000  0.74411000  0.57808000  1
  C  C726  1  0.91162000  0.99440000  0.79859000  1
  C  C727  1  0.91163000  0.21892000  0.58255000  1
  C  C728  1  0.91217000  0.42306000  0.87322000  1
  C  C729  1  0.91410000  0.50520000  0.85669000  1
  C  C730  1  0.91510000  0.17220000  0.88220000  1
  C  C731  1  0.91660000  0.82535000  0.81453000  1
  C  C732  1  0.91734000  0.11987000  0.59181000  1
  C  C733  1  0.91882000  0.74461000  0.81720000  1
  C  C734  1  0.91944000  0.04179000  0.57581000  1
  C  C735  1  0.92009000  0.99839000  0.83530000  1
  C  C736  1  0.92049000  0.36608000  0.00701000  1
  C  C737  1  0.92290000  0.84812000  0.45122000  1
  C  C738  1  0.93060000  0.86880000  0.11060000  1
  C  C739  1  0.93298000  0.42818000  0.42489000  1
  C  C740  1  0.93405000  0.70343000  0.58908000  1
  C  C741  1  0.93680000  0.83569000  0.38115000  1
  C  C742  1  0.93767000  0.60260000  0.66551000  1
  C  C743  1  0.94000000  0.03780000  0.85270000  1
  C  C744  1  0.94282000  0.35140000  0.06740000  1
  C  C745  1  0.94336000  0.78582000  0.82541000  1
  C  C746  1  0.94405000  0.13997000  0.67452000  1
  C  C747  1  0.94603000  0.08179000  0.58543000  1
  C  C748  1  0.94623000  0.58120000  0.73697000  1
  C  C749  1  0.94860000  0.70216000  0.82921000  1
  C  C750  1  0.95053000  0.14056000  0.71130000  1
  C  C751  1  0.95327000  0.56791000  0.77547000  1
  C  C752  1  0.95871000  0.17710000  0.65622000  1
  C  C753  1  0.95875000  0.35745000  0.38322000  1
  C  C754  1  0.97166000  0.17830000  0.72980000  1
  C  C755  1  0.97281000  0.83666000  0.44328000  1
  C  C756  1  0.97572000  0.57178000  0.68054000  1
  C  C757  1  0.97950000  0.17510000  0.77000000  1
  C  C758  1  0.97975000  0.83045000  0.40824000  1
  C  C759  1  0.97985000  0.21483000  0.67472000  1
  C  C760  1  0.98000000  0.56108000  0.71627000  1
  C  C761  1  0.98339000  0.42593000  0.41508000  1
  C  C762  1  0.98633000  0.21543000  0.71151000  1
  C  C763  1  0.99628000  0.39057000  0.39425000  1
  O  O764  1  0.00291000  0.45080000  0.21096000  1
  O  O765  1  0.00560000  0.78913000  0.21446000  1
  O  O766  1  0.00609000  0.29439000  0.15133000  1
  O  O767  1  0.00669000  0.65577000  0.92488000  1
  O  O768  1  0.00889000  0.40547000  0.13687000  1
  O  O769  1  0.03240000  0.85884000  0.21668000  1
  O  O770  1  0.04043000  0.50095000  0.14747000  1
  O  O771  1  0.04330000  0.93085000  0.16660000  1
  O  O772  1  0.04360000  0.11000000  0.90823000  1
  O  O773  1  0.04508000  0.14566000  0.85985000  1
  O  O774  1  0.05430000  0.95596000  0.11641000  1
  O  O775  1  0.06040000  0.85256000  0.09358000  1
  O  O776  1  0.07392000  0.33415000  0.18285000  1
  O  O777  1  0.07800000  0.65725000  0.90500000  1
  O  O778  1  0.07954000  0.64159000  0.82419000  1
  O  O779  1  0.08230000  0.83280000  0.15050000  1
  O  O780  1  0.08265000  0.41785000  0.20737000  1
  O  O781  1  0.09643000  0.57073000  0.83939000  1
  O  O782  1  0.10993000  0.45762000  0.14146000  1
  O  O783  1  0.13936000  0.03574000  0.44584000  1
  O  O784  1  0.14264000  0.17744000  0.44594000  1
  O  O785  1  0.15034000  0.10835000  0.39511000  1
  O  O786  1  0.17310000  0.56734000  0.56094000  1
  O  O787  1  0.17714000  0.12733000  0.53870000  1
  O  O788  1  0.18124000  0.64205000  0.57339000  1
  O  O789  1  0.20109000  0.64868000  0.46303000  1
  O  O790  1  0.20133000  0.69226000  0.50865000  1
  O  O791  1  0.20511000  0.52393000  0.50505000  1
  O  O792  1  0.21438000  0.00175000  0.43766000  1
  O  O793  1  0.21464000  0.20023000  0.42408000  1
  O  O794  1  0.21712000  0.13204000  0.59571000  1
  O  O795  1  0.22514000  0.10675000  0.46989000  1
  O  O796  1  0.22820000  0.07833000  0.39544000  1
  O  O797  1  0.23206000  0.55120000  0.45642000  1
  O  O798  1  0.26794000  0.05120000  0.54358000  1
  O  O799  1  0.27180000  0.57833000  0.60456000  1
  O  O800  1  0.27486000  0.60675000  0.53011000  1
  O  O801  1  0.28288000  0.63204000  0.40429000  1
  O  O802  1  0.28536000  0.70023000  0.57592000  1
  O  O803  1  0.28562000  0.50175000  0.56234000  1
  O  O804  1  0.29489000  0.02393000  0.49495000  1
  O  O805  1  0.29867000  0.19226000  0.49135000  1
  O  O806  1  0.29891000  0.14868000  0.53697000  1
  O  O807  1  0.31876000  0.14205000  0.42661000  1
  O  O808  1  0.32286000  0.62733000  0.46130000  1
  O  O809  1  0.32690000  0.06734000  0.43906000  1
  O  O810  1  0.34966000  0.60835000  0.60489000  1
  O  O811  1  0.35736000  0.67744000  0.55406000  1
  O  O812  1  0.36064000  0.53574000  0.55416000  1
  O  O813  1  0.39007000  0.95762000  0.85854000  1
  O  O814  1  0.40357000  0.07073000  0.16061000  1
  O  O815  1  0.41735000  0.91785000  0.79263000  1
  O  O816  1  0.41770000  0.33280000  0.84950000  1
  O  O817  1  0.42046000  0.14159000  0.17581000  1
  O  O818  1  0.42200000  0.15725000  0.09500000  1
  O  O819  1  0.42608000  0.83415000  0.81715000  1
  O  O820  1  0.43960000  0.35256000  0.90642000  1
  O  O821  1  0.44570000  0.45596000  0.88359000  1
  O  O822  1  0.45492000  0.64566000  0.14015000  1
  O  O823  1  0.45640000  0.61000000  0.09177000  1
  O  O824  1  0.45670000  0.43085000  0.83340000  1
  O  O825  1  0.45957000  0.00095000  0.85253000  1
  O  O826  1  0.46760000  0.35884000  0.78332000  1
  O  O827  1  0.49111000  0.90547000  0.86313000  1
  O  O828  1  0.49331000  0.15577000  0.07512000  1
  O  O829  1  0.49391000  0.79439000  0.84867000  1
  O  O830  1  0.49440000  0.28913000  0.78554000  1
  O  O831  1  0.49709000  0.95080000  0.78904000  1
  O  O832  1  0.50291000  0.04920000  0.21096000  1
  O  O833  1  0.50560000  0.71087000  0.21446000  1
  O  O834  1  0.50609000  0.20561000  0.15133000  1
  O  O835  1  0.50669000  0.84423000  0.92488000  1
  O  O836  1  0.50889000  0.09453000  0.13687000  1
  O  O837  1  0.53240000  0.64116000  0.21668000  1
  O  O838  1  0.54043000  0.99905000  0.14747000  1
  O  O839  1  0.54330000  0.56915000  0.16660000  1
  O  O840  1  0.54360000  0.39000000  0.90823000  1
  O  O841  1  0.54508000  0.35434000  0.85985000  1
  O  O842  1  0.55430000  0.54404000  0.11641000  1
  O  O843  1  0.56040000  0.64744000  0.09358000  1
  O  O844  1  0.57392000  0.16585000  0.18285000  1
  O  O845  1  0.57800000  0.84275000  0.90500000  1
  O  O846  1  0.57954000  0.85841000  0.82419000  1
  O  O847  1  0.58230000  0.66720000  0.15050000  1
  O  O848  1  0.58265000  0.08215000  0.20737000  1
  O  O849  1  0.59643000  0.92927000  0.83939000  1
  O  O850  1  0.60993000  0.04238000  0.14146000  1
  O  O851  1  0.63936000  0.46426000  0.44584000  1
  O  O852  1  0.64264000  0.32256000  0.44594000  1
  O  O853  1  0.65034000  0.39165000  0.39511000  1
  O  O854  1  0.67310000  0.93266000  0.56094000  1
  O  O855  1  0.67714000  0.37267000  0.53870000  1
  O  O856  1  0.68124000  0.85795000  0.57339000  1
  O  O857  1  0.70109000  0.85132000  0.46303000  1
  O  O858  1  0.70133000  0.80774000  0.50865000  1
  O  O859  1  0.70511000  0.97607000  0.50505000  1
  O  O860  1  0.71438000  0.49825000  0.43766000  1
  O  O861  1  0.71464000  0.29977000  0.42408000  1
  O  O862  1  0.71712000  0.36796000  0.59571000  1
  O  O863  1  0.72514000  0.39325000  0.46989000  1
  O  O864  1  0.72820000  0.42167000  0.39544000  1
  O  O865  1  0.73206000  0.94880000  0.45642000  1
  O  O866  1  0.76794000  0.44880000  0.54358000  1
  O  O867  1  0.77180000  0.92167000  0.60456000  1
  O  O868  1  0.77486000  0.89325000  0.53011000  1
  O  O869  1  0.78288000  0.86796000  0.40429000  1
  O  O870  1  0.78536000  0.79977000  0.57592000  1
  O  O871  1  0.78562000  0.99825000  0.56234000  1
  O  O872  1  0.79489000  0.47607000  0.49495000  1
  O  O873  1  0.79867000  0.30774000  0.49135000  1
  O  O874  1  0.79891000  0.35132000  0.53697000  1
  O  O875  1  0.81876000  0.35795000  0.42661000  1
  O  O876  1  0.82286000  0.87267000  0.46130000  1
  O  O877  1  0.82690000  0.43266000  0.43906000  1
  O  O878  1  0.84966000  0.89165000  0.60489000  1
  O  O879  1  0.85736000  0.82256000  0.55406000  1
  O  O880  1  0.86064000  0.96426000  0.55416000  1
  O  O881  1  0.89007000  0.54238000  0.85854000  1
  O  O882  1  0.90357000  0.42927000  0.16061000  1
  O  O883  1  0.91735000  0.58215000  0.79263000  1
  O  O884  1  0.91770000  0.16720000  0.84950000  1
  O  O885  1  0.92046000  0.35841000  0.17581000  1
  O  O886  1  0.92200000  0.34275000  0.09500000  1
  O  O887  1  0.92608000  0.66585000  0.81715000  1
  O  O888  1  0.93960000  0.14744000  0.90642000  1
  O  O889  1  0.94570000  0.04404000  0.88359000  1
  O  O890  1  0.95492000  0.85434000  0.14015000  1
  O  O891  1  0.95640000  0.89000000  0.09177000  1
  O  O892  1  0.95670000  0.06915000  0.83340000  1
  O  O893  1  0.95957000  0.49905000  0.85253000  1
  O  O894  1  0.96760000  0.14116000  0.78332000  1
  O  O895  1  0.99111000  0.59453000  0.86313000  1
  O  O896  1  0.99331000  0.34423000  0.07512000  1
  O  O897  1  0.99391000  0.70561000  0.84867000  1
  O  O898  1  0.99440000  0.21087000  0.78554000  1
  O  O899  1  0.99709000  0.54920000  0.78904000  1
