# generated using pymatgen
data_ZnH13C23N2(O2F3)2
_symmetry_space_group_name_H-M   'P 1'
_cell_length_a   15.83300000
_cell_length_b   16.08600000
_cell_length_c   22.67000000
_cell_angle_alpha   90.00000000
_cell_angle_beta   90.00000000
_cell_angle_gamma   90.00000000
_symmetry_Int_Tables_number   1
_chemical_formula_structural   ZnH13C23N2(O2F3)2
_chemical_formula_sum   'Zn8 H104 C184 N16 O32 F48'
_cell_volume   5773.81409346
_cell_formula_units_Z   8
loop_
 _symmetry_equiv_pos_site_id
 _symmetry_equiv_pos_as_xyz
  1  'x, y, z'
loop_
 _atom_site_type_symbol
 _atom_site_label
 _atom_site_symmetry_multiplicity
 _atom_site_fract_x
 _atom_site_fract_y
 _atom_site_fract_z
 _atom_site_occupancy
  Zn  Zn0  1  0.18767000  0.43893000  0.74077000  1
  Zn  Zn1  1  0.18767000  0.56107000  0.24077000  1
  Zn  Zn2  1  0.33456000  0.44472000  0.24772000  1
  Zn  Zn3  1  0.33456000  0.55528000  0.74772000  1
  Zn  Zn4  1  0.68767000  0.43893000  0.75923000  1
  Zn  Zn5  1  0.68767000  0.56107000  0.25923000  1
  Zn  Zn6  1  0.83456000  0.44472000  0.25228000  1
  Zn  Zn7  1  0.83456000  0.55528000  0.75228000  1
  H  H8  1  0.00340000  0.37850000  0.73510000  1
  H  H9  1  0.00340000  0.62150000  0.23510000  1
  H  H10  1  0.00430000  0.42940000  0.35900000  1
  H  H11  1  0.00430000  0.57060000  0.85900000  1
  H  H12  1  0.01850000  0.38600000  0.23100000  1
  H  H13  1  0.01850000  0.61400000  0.73100000  1
  H  H14  1  0.01920000  0.41250000  0.85990000  1
  H  H15  1  0.01920000  0.58750000  0.35990000  1
  H  H16  1  0.03900000  0.35770000  0.53900000  1
  H  H17  1  0.03900000  0.64230000  0.03900000  1
  H  H18  1  0.04010000  0.41930000  0.10960000  1
  H  H19  1  0.04010000  0.58070000  0.60960000  1
  H  H20  1  0.08890000  0.26140000  0.22340000  1
  H  H21  1  0.08890000  0.73860000  0.72340000  1
  H  H22  1  0.08950000  0.10610000  0.22540000  1
  H  H23  1  0.08950000  0.89390000  0.72540000  1
  H  H24  1  0.08980000  0.32510000  0.92460000  1
  H  H25  1  0.08980000  0.67490000  0.42460000  1
  H  H26  1  0.15530000  0.21120000  0.44460000  1
  H  H27  1  0.15530000  0.78880000  0.94460000  1
  H  H28  1  0.15950000  0.13750000  0.71360000  1
  H  H29  1  0.15950000  0.86250000  0.21360000  1
  H  H30  1  0.19970000  0.19420000  0.03890000  1
  H  H31  1  0.19970000  0.80580000  0.53890000  1
  H  H32  1  0.22020000  0.29580000  0.37440000  1
  H  H33  1  0.22020000  0.70420000  0.87440000  1
  H  H34  1  0.22300000  0.26650000  0.72660000  1
  H  H35  1  0.22300000  0.73350000  0.22660000  1
  H  H36  1  0.25530000  0.28420000  0.11060000  1
  H  H37  1  0.25530000  0.71580000  0.61060000  1
  H  H38  1  0.27820000  0.28140000  0.88230000  1
  H  H39  1  0.27820000  0.71860000  0.38230000  1
  H  H40  1  0.30160000  0.26700000  0.24940000  1
  H  H41  1  0.30160000  0.73300000  0.74940000  1
  H  H42  1  0.30800000  0.27620000  0.62040000  1
  H  H43  1  0.30800000  0.72380000  0.12040000  1
  H  H44  1  0.34080000  0.19830000  0.95430000  1
  H  H45  1  0.34080000  0.80170000  0.45430000  1
  H  H46  1  0.36710000  0.14080000  0.25880000  1
  H  H47  1  0.36710000  0.85920000  0.75880000  1
  H  H48  1  0.37770000  0.18700000  0.55640000  1
  H  H49  1  0.37770000  0.81300000  0.05640000  1
  H  H50  1  0.43280000  0.25060000  0.77190000  1
  H  H51  1  0.43280000  0.74940000  0.27190000  1
  H  H52  1  0.43670000  0.09500000  0.78090000  1
  H  H53  1  0.43670000  0.90500000  0.28090000  1
  H  H54  1  0.43930000  0.34240000  0.07180000  1
  H  H55  1  0.43930000  0.65760000  0.57180000  1
  H  H56  1  0.47790000  0.43700000  0.88790000  1
  H  H57  1  0.47790000  0.56300000  0.38790000  1
  H  H58  1  0.48190000  0.32940000  0.45960000  1
  H  H59  1  0.48190000  0.67060000  0.95960000  1
  H  H60  1  0.50340000  0.37850000  0.76490000  1
  H  H61  1  0.50340000  0.62150000  0.26490000  1
  H  H62  1  0.50430000  0.42940000  0.14100000  1
  H  H63  1  0.50430000  0.57060000  0.64100000  1
  H  H64  1  0.51850000  0.38600000  0.26900000  1
  H  H65  1  0.51850000  0.61400000  0.76900000  1
  H  H66  1  0.51920000  0.41250000  0.64010000  1
  H  H67  1  0.51920000  0.58750000  0.14010000  1
  H  H68  1  0.53900000  0.35770000  0.96100000  1
  H  H69  1  0.53900000  0.64230000  0.46100000  1
  H  H70  1  0.54010000  0.41930000  0.39040000  1
  H  H71  1  0.54010000  0.58070000  0.89040000  1
  H  H72  1  0.58890000  0.26140000  0.27660000  1
  H  H73  1  0.58890000  0.73860000  0.77660000  1
  H  H74  1  0.58950000  0.10610000  0.27460000  1
  H  H75  1  0.58950000  0.89390000  0.77460000  1
  H  H76  1  0.58980000  0.32510000  0.57540000  1
  H  H77  1  0.58980000  0.67490000  0.07540000  1
  H  H78  1  0.65530000  0.21120000  0.05540000  1
  H  H79  1  0.65530000  0.78880000  0.55540000  1
  H  H80  1  0.65950000  0.13750000  0.78640000  1
  H  H81  1  0.65950000  0.86250000  0.28640000  1
  H  H82  1  0.69970000  0.19420000  0.46110000  1
  H  H83  1  0.69970000  0.80580000  0.96110000  1
  H  H84  1  0.72020000  0.29580000  0.12560000  1
  H  H85  1  0.72020000  0.70420000  0.62560000  1
  H  H86  1  0.72300000  0.26650000  0.77340000  1
  H  H87  1  0.72300000  0.73350000  0.27340000  1
  H  H88  1  0.75530000  0.28420000  0.38940000  1
  H  H89  1  0.75530000  0.71580000  0.88940000  1
  H  H90  1  0.77820000  0.28140000  0.61770000  1
  H  H91  1  0.77820000  0.71860000  0.11770000  1
  H  H92  1  0.80160000  0.26700000  0.25060000  1
  H  H93  1  0.80160000  0.73300000  0.75060000  1
  H  H94  1  0.80800000  0.27620000  0.87960000  1
  H  H95  1  0.80800000  0.72380000  0.37960000  1
  H  H96  1  0.84080000  0.19830000  0.54570000  1
  H  H97  1  0.84080000  0.80170000  0.04570000  1
  H  H98  1  0.86710000  0.14080000  0.24120000  1
  H  H99  1  0.86710000  0.85920000  0.74120000  1
  H  H100  1  0.87770000  0.18700000  0.94360000  1
  H  H101  1  0.87770000  0.81300000  0.44360000  1
  H  H102  1  0.93280000  0.25060000  0.72810000  1
  H  H103  1  0.93280000  0.74940000  0.22810000  1
  H  H104  1  0.93670000  0.09500000  0.71910000  1
  H  H105  1  0.93670000  0.90500000  0.21910000  1
  H  H106  1  0.93930000  0.34240000  0.42820000  1
  H  H107  1  0.93930000  0.65760000  0.92820000  1
  H  H108  1  0.97790000  0.43700000  0.61210000  1
  H  H109  1  0.97790000  0.56300000  0.11210000  1
  H  H110  1  0.98190000  0.32940000  0.04040000  1
  H  H111  1  0.98190000  0.67060000  0.54040000  1
  C  C112  1  0.02940000  0.26180000  0.22870000  1
  C  C113  1  0.02940000  0.73820000  0.72870000  1
  C  C114  1  0.02950000  0.10740000  0.22640000  1
  C  C115  1  0.02950000  0.89260000  0.72640000  1
  C  C116  1  0.03190000  0.31550000  0.91600000  1
  C  C117  1  0.03190000  0.68450000  0.41600000  1
  C  C118  1  0.03490000  0.38470000  0.37620000  1
  C  C119  1  0.03490000  0.61530000  0.87620000  1
  C  C120  1  0.03530000  0.32880000  0.73170000  1
  C  C121  1  0.03530000  0.67120000  0.23170000  1
  C  C122  1  0.03790000  0.32050000  0.05390000  1
  C  C123  1  0.03790000  0.67950000  0.55390000  1
  C  C124  1  0.03840000  0.17970000  0.72180000  1
  C  C125  1  0.03840000  0.82030000  0.22180000  1
  C  C126  1  0.04040000  0.26790000  0.44440000  1
  C  C127  1  0.04040000  0.73210000  0.94440000  1
  C  C128  1  0.04160000  0.19560000  0.98640000  1
  C  C129  1  0.04160000  0.80440000  0.48640000  1
  C  C130  1  0.05520000  0.15890000  0.52610000  1
  C  C131  1  0.05520000  0.84110000  0.02610000  1
  C  C132  1  0.07220000  0.37380000  0.09520000  1
  C  C133  1  0.07220000  0.62620000  0.59520000  1
  C  C134  1  0.08480000  0.25330000  0.03160000  1
  C  C135  1  0.08480000  0.74670000  0.53160000  1
  C  C136  1  0.10440000  0.14240000  0.95110000  1
  C  C137  1  0.10440000  0.85760000  0.45110000  1
  C  C138  1  0.11790000  0.37030000  0.36030000  1
  C  C139  1  0.11790000  0.62970000  0.86030000  1
  C  C140  1  0.12420000  0.25530000  0.42720000  1
  C  C141  1  0.12420000  0.74470000  0.92720000  1
  C  C142  1  0.12580000  0.18560000  0.71950000  1
  C  C143  1  0.12580000  0.81440000  0.21950000  1
  C  C144  1  0.15380000  0.36070000  0.11550000  1
  C  C145  1  0.15380000  0.63930000  0.61550000  1
  C  C146  1  0.16200000  0.42620000  0.31630000  1
  C  C147  1  0.16200000  0.57380000  0.81630000  1
  C  C148  1  0.16310000  0.26300000  0.72590000  1
  C  C149  1  0.16310000  0.73700000  0.22590000  1
  C  C150  1  0.16320000  0.30560000  0.38550000  1
  C  C151  1  0.16320000  0.69440000  0.88550000  1
  C  C152  1  0.16710000  0.23960000  0.05300000  1
  C  C153  1  0.16710000  0.76040000  0.55300000  1
  C  C154  1  0.19290000  0.41850000  0.16160000  1
  C  C155  1  0.19290000  0.58150000  0.66160000  1
  C  C156  1  0.20020000  0.29360000  0.09540000  1
  C  C157  1  0.20020000  0.70640000  0.59540000  1
  C  C158  1  0.33170000  0.29680000  0.89790000  1
  C  C159  1  0.33170000  0.70320000  0.39790000  1
  C  C160  1  0.33380000  0.42030000  0.83030000  1
  C  C161  1  0.33380000  0.57970000  0.33030000  1
  C  C162  1  0.35800000  0.41360000  0.67410000  1
  C  C163  1  0.35800000  0.58640000  0.17410000  1
  C  C164  1  0.36100000  0.26560000  0.25520000  1
  C  C165  1  0.36100000  0.73440000  0.75520000  1
  C  C166  1  0.36540000  0.28680000  0.61080000  1
  C  C167  1  0.36540000  0.71320000  0.11080000  1
  C  C168  1  0.36870000  0.24720000  0.94110000  1
  C  C169  1  0.36870000  0.75280000  0.44110000  1
  C  C170  1  0.37070000  0.36770000  0.87700000  1
  C  C171  1  0.37070000  0.63230000  0.37700000  1
  C  C172  1  0.39930000  0.19060000  0.26060000  1
  C  C173  1  0.39930000  0.80940000  0.76060000  1
  C  C174  1  0.40490000  0.35430000  0.63520000  1
  C  C175  1  0.40490000  0.64570000  0.13520000  1
  C  C176  1  0.40660000  0.23360000  0.57250000  1
  C  C177  1  0.40660000  0.76640000  0.07250000  1
  C  C178  1  0.43590000  0.15520000  0.04520000  1
  C  C179  1  0.43590000  0.84480000  0.54520000  1
  C  C180  1  0.44630000  0.26920000  0.96480000  1
  C  C181  1  0.44630000  0.73080000  0.46480000  1
  C  C182  1  0.44950000  0.38870000  0.90160000  1
  C  C183  1  0.44950000  0.61130000  0.40160000  1
  C  C184  1  0.48330000  0.13650000  0.47670000  1
  C  C185  1  0.48330000  0.86350000  0.97670000  1
  C  C186  1  0.48530000  0.18750000  0.26860000  1
  C  C187  1  0.48530000  0.81250000  0.76860000  1
  C  C188  1  0.48630000  0.34140000  0.94470000  1
  C  C189  1  0.48630000  0.65860000  0.44470000  1
  C  C190  1  0.48750000  0.33560000  0.26630000  1
  C  C191  1  0.48750000  0.66440000  0.76630000  1
  C  C192  1  0.49000000  0.24840000  0.55750000  1
  C  C193  1  0.49000000  0.36740000  0.62230000  1
  C  C194  1  0.49000000  0.63260000  0.12230000  1
  C  C195  1  0.49000000  0.75160000  0.05750000  1
  C  C196  1  0.49280000  0.25220000  0.77270000  1
  C  C197  1  0.49280000  0.74780000  0.27270000  1
  C  C198  1  0.49430000  0.21360000  0.00990000  1
  C  C199  1  0.49430000  0.78640000  0.50990000  1
  C  C200  1  0.49650000  0.09830000  0.77940000  1
  C  C201  1  0.49650000  0.90170000  0.27940000  1
  C  C202  1  0.49670000  0.33300000  0.08220000  1
  C  C203  1  0.49670000  0.66700000  0.58220000  1
  C  C204  1  0.52940000  0.26180000  0.27130000  1
  C  C205  1  0.52940000  0.73820000  0.77130000  1
  C  C206  1  0.52950000  0.10740000  0.27360000  1
  C  C207  1  0.52950000  0.89260000  0.77360000  1
  C  C208  1  0.53190000  0.31550000  0.58400000  1
  C  C209  1  0.53190000  0.68450000  0.08400000  1
  C  C210  1  0.53490000  0.38470000  0.12380000  1
  C  C211  1  0.53490000  0.61530000  0.62380000  1
  C  C212  1  0.53530000  0.32880000  0.76830000  1
  C  C213  1  0.53530000  0.67120000  0.26830000  1
  C  C214  1  0.53790000  0.32050000  0.44610000  1
  C  C215  1  0.53790000  0.67950000  0.94610000  1
  C  C216  1  0.53840000  0.17970000  0.77820000  1
  C  C217  1  0.53840000  0.82030000  0.27820000  1
  C  C218  1  0.54040000  0.26790000  0.05560000  1
  C  C219  1  0.54040000  0.73210000  0.55560000  1
  C  C220  1  0.54160000  0.19560000  0.51360000  1
  C  C221  1  0.54160000  0.80440000  0.01360000  1
  C  C222  1  0.55520000  0.15890000  0.97390000  1
  C  C223  1  0.55520000  0.84110000  0.47390000  1
  C  C224  1  0.57220000  0.37380000  0.40480000  1
  C  C225  1  0.57220000  0.62620000  0.90480000  1
  C  C226  1  0.58480000  0.25330000  0.46840000  1
  C  C227  1  0.58480000  0.74670000  0.96840000  1
  C  C228  1  0.60440000  0.14240000  0.54890000  1
  C  C229  1  0.60440000  0.85760000  0.04890000  1
  C  C230  1  0.61790000  0.37030000  0.13970000  1
  C  C231  1  0.61790000  0.62970000  0.63970000  1
  C  C232  1  0.62420000  0.25530000  0.07280000  1
  C  C233  1  0.62420000  0.74470000  0.57280000  1
  C  C234  1  0.62580000  0.18560000  0.78050000  1
  C  C235  1  0.62580000  0.81440000  0.28050000  1
  C  C236  1  0.65380000  0.36070000  0.38450000  1
  C  C237  1  0.65380000  0.63930000  0.88450000  1
  C  C238  1  0.66200000  0.42620000  0.18370000  1
  C  C239  1  0.66200000  0.57380000  0.68370000  1
  C  C240  1  0.66310000  0.26300000  0.77410000  1
  C  C241  1  0.66310000  0.73700000  0.27410000  1
  C  C242  1  0.66320000  0.30560000  0.11450000  1
  C  C243  1  0.66320000  0.69440000  0.61450000  1
  C  C244  1  0.66710000  0.23960000  0.44700000  1
  C  C245  1  0.66710000  0.76040000  0.94700000  1
  C  C246  1  0.69290000  0.41850000  0.33840000  1
  C  C247  1  0.69290000  0.58150000  0.83840000  1
  C  C248  1  0.70020000  0.29360000  0.40460000  1
  C  C249  1  0.70020000  0.70640000  0.90460000  1
  C  C250  1  0.83170000  0.29680000  0.60210000  1
  C  C251  1  0.83170000  0.70320000  0.10210000  1
  C  C252  1  0.83380000  0.42030000  0.66970000  1
  C  C253  1  0.83380000  0.57970000  0.16970000  1
  C  C254  1  0.85800000  0.41360000  0.82590000  1
  C  C255  1  0.85800000  0.58640000  0.32590000  1
  C  C256  1  0.86100000  0.26560000  0.24480000  1
  C  C257  1  0.86100000  0.73440000  0.74480000  1
  C  C258  1  0.86540000  0.28680000  0.88920000  1
  C  C259  1  0.86540000  0.71320000  0.38920000  1
  C  C260  1  0.86870000  0.24720000  0.55890000  1
  C  C261  1  0.86870000  0.75280000  0.05890000  1
  C  C262  1  0.87070000  0.36770000  0.62300000  1
  C  C263  1  0.87070000  0.63230000  0.12300000  1
  C  C264  1  0.89930000  0.19060000  0.23940000  1
  C  C265  1  0.89930000  0.80940000  0.73940000  1
  C  C266  1  0.90490000  0.35430000  0.86480000  1
  C  C267  1  0.90490000  0.64570000  0.36480000  1
  C  C268  1  0.90660000  0.23360000  0.92750000  1
  C  C269  1  0.90660000  0.76640000  0.42750000  1
  C  C270  1  0.93590000  0.15520000  0.45480000  1
  C  C271  1  0.93590000  0.84480000  0.95480000  1
  C  C272  1  0.94630000  0.26920000  0.53520000  1
  C  C273  1  0.94630000  0.73080000  0.03520000  1
  C  C274  1  0.94950000  0.38870000  0.59840000  1
  C  C275  1  0.94950000  0.61130000  0.09840000  1
  C  C276  1  0.98330000  0.13650000  0.02330000  1
  C  C277  1  0.98330000  0.86350000  0.52330000  1
  C  C278  1  0.98530000  0.18750000  0.23140000  1
  C  C279  1  0.98530000  0.81250000  0.73140000  1
  C  C280  1  0.98630000  0.34140000  0.55530000  1
  C  C281  1  0.98630000  0.65860000  0.05530000  1
  C  C282  1  0.98750000  0.33560000  0.23370000  1
  C  C283  1  0.98750000  0.66440000  0.73370000  1
  C  C284  1  0.99000000  0.24840000  0.94250000  1
  C  C285  1  0.99000000  0.36740000  0.87770000  1
  C  C286  1  0.99000000  0.63260000  0.37770000  1
  C  C287  1  0.99000000  0.75160000  0.44250000  1
  C  C288  1  0.99280000  0.25220000  0.72730000  1
  C  C289  1  0.99280000  0.74780000  0.22730000  1
  C  C290  1  0.99430000  0.21360000  0.49010000  1
  C  C291  1  0.99430000  0.78640000  0.99010000  1
  C  C292  1  0.99650000  0.09830000  0.72060000  1
  C  C293  1  0.99650000  0.90170000  0.22060000  1
  C  C294  1  0.99670000  0.33300000  0.41780000  1
  C  C295  1  0.99670000  0.66700000  0.91780000  1
  N  N296  1  0.04090000  0.03180000  0.72180000  1
  N  N297  1  0.04090000  0.96820000  0.22180000  1
  N  N298  1  0.11850000  0.33290000  0.73120000  1
  N  N299  1  0.11850000  0.66710000  0.23120000  1
  N  N300  1  0.40360000  0.33870000  0.25770000  1
  N  N301  1  0.40360000  0.66130000  0.75770000  1
  N  N302  1  0.48740000  0.03880000  0.27660000  1
  N  N303  1  0.48740000  0.96120000  0.77660000  1
  N  N304  1  0.54090000  0.03180000  0.77820000  1
  N  N305  1  0.54090000  0.96820000  0.27820000  1
  N  N306  1  0.61850000  0.33290000  0.76880000  1
  N  N307  1  0.61850000  0.66710000  0.26880000  1
  N  N308  1  0.90360000  0.33870000  0.24230000  1
  N  N309  1  0.90360000  0.66130000  0.74230000  1
  N  N310  1  0.98740000  0.03880000  0.22340000  1
  N  N311  1  0.98740000  0.96120000  0.72340000  1
  O  O312  1  0.12370000  0.49150000  0.30120000  1
  O  O313  1  0.12370000  0.50850000  0.80120000  1
  O  O314  1  0.14770000  0.47880000  0.17860000  1
  O  O315  1  0.14770000  0.52120000  0.67860000  1
  O  O316  1  0.23340000  0.40430000  0.29920000  1
  O  O317  1  0.23340000  0.59570000  0.79920000  1
  O  O318  1  0.26290000  0.39590000  0.80900000  1
  O  O319  1  0.26290000  0.60410000  0.30900000  1
  O  O320  1  0.26650000  0.40170000  0.17740000  1
  O  O321  1  0.26650000  0.59830000  0.67740000  1
  O  O322  1  0.28230000  0.39730000  0.68520000  1
  O  O323  1  0.28230000  0.60270000  0.18520000  1
  O  O324  1  0.37290000  0.48330000  0.81500000  1
  O  O325  1  0.37290000  0.51670000  0.31500000  1
  O  O326  1  0.39690000  0.47660000  0.69350000  1
  O  O327  1  0.39690000  0.52340000  0.19350000  1
  O  O328  1  0.62370000  0.49150000  0.19880000  1
  O  O329  1  0.62370000  0.50850000  0.69880000  1
  O  O330  1  0.64770000  0.47880000  0.32140000  1
  O  O331  1  0.64770000  0.52120000  0.82140000  1
  O  O332  1  0.73340000  0.40430000  0.20080000  1
  O  O333  1  0.73340000  0.59570000  0.70080000  1
  O  O334  1  0.76290000  0.39590000  0.69100000  1
  O  O335  1  0.76290000  0.60410000  0.19100000  1
  O  O336  1  0.76650000  0.40170000  0.32260000  1
  O  O337  1  0.76650000  0.59830000  0.82260000  1
  O  O338  1  0.78230000  0.39730000  0.81480000  1
  O  O339  1  0.78230000  0.60270000  0.31480000  1
  O  O340  1  0.87290000  0.48330000  0.68500000  1
  O  O341  1  0.87290000  0.51670000  0.18500000  1
  O  O342  1  0.89690000  0.47660000  0.80650000  1
  O  O343  1  0.89690000  0.52340000  0.30650000  1
  F  F344  1  0.01450000  0.12190000  0.57110000  1
  F  F345  1  0.01450000  0.87810000  0.07110000  1
  F  F346  1  0.02810000  0.09970000  0.06680000  1
  F  F347  1  0.02810000  0.90030000  0.56680000  1
  F  F348  1  0.06520000  0.10280000  0.90593000  1
  F  F349  1  0.06520000  0.89720000  0.40593000  1
  F  F350  1  0.09080000  0.09840000  0.49540000  1
  F  F351  1  0.09080000  0.90160000  0.99540000  1
  F  F352  1  0.11650000  0.20450000  0.55107000  1
  F  F353  1  0.11650000  0.79550000  0.05107000  1
  F  F354  1  0.14050000  0.08200000  0.98310000  1
  F  F355  1  0.14050000  0.91800000  0.48310000  1
  F  F356  1  0.16540000  0.18750000  0.92733000  1
  F  F357  1  0.16540000  0.81250000  0.42733000  1
  F  F358  1  0.37060000  0.19760000  0.06950000  1
  F  F359  1  0.37060000  0.80240000  0.56950000  1
  F  F360  1  0.40180000  0.09430000  0.01340000  1
  F  F361  1  0.40180000  0.90570000  0.51340000  1
  F  F362  1  0.42100000  0.17670000  0.45080000  1
  F  F363  1  0.42100000  0.82330000  0.95080000  1
  F  F364  1  0.45050000  0.07450000  0.50930000  1
  F  F365  1  0.45050000  0.92550000  0.00930000  1
  F  F366  1  0.47680000  0.11930000  0.09023000  1
  F  F367  1  0.47680000  0.88070000  0.59023000  1
  F  F368  1  0.51450000  0.12190000  0.92890000  1
  F  F369  1  0.51450000  0.87810000  0.42890000  1
  F  F370  1  0.52810000  0.09970000  0.43320000  1
  F  F371  1  0.52810000  0.90030000  0.93320000  1
  F  F372  1  0.56520000  0.10280000  0.59407000  1
  F  F373  1  0.56520000  0.89720000  0.09407000  1
  F  F374  1  0.59080000  0.09840000  0.00460000  1
  F  F375  1  0.59080000  0.90160000  0.50460000  1
  F  F376  1  0.61650000  0.20450000  0.94893000  1
  F  F377  1  0.61650000  0.79550000  0.44893000  1
  F  F378  1  0.64050000  0.08200000  0.51690000  1
  F  F379  1  0.64050000  0.91800000  0.01690000  1
  F  F380  1  0.66540000  0.18750000  0.57267000  1
  F  F381  1  0.66540000  0.81250000  0.07267000  1
  F  F382  1  0.87060000  0.19760000  0.43050000  1
  F  F383  1  0.87060000  0.80240000  0.93050000  1
  F  F384  1  0.90180000  0.09430000  0.48660000  1
  F  F385  1  0.90180000  0.90570000  0.98660000  1
  F  F386  1  0.92100000  0.17670000  0.04920000  1
  F  F387  1  0.92100000  0.82330000  0.54920000  1
  F  F388  1  0.95050000  0.07450000  0.99070000  1
  F  F389  1  0.95050000  0.92550000  0.49070000  1
  F  F390  1  0.97680000  0.11930000  0.40977000  1
  F  F391  1  0.97680000  0.88070000  0.90977000  1
