# generated using pymatgen
data_CuH8(C2N3)4
_symmetry_space_group_name_H-M   'P 1'
_cell_length_a   10.63320000
_cell_length_b   12.03610000
_cell_length_c   12.80520000
_cell_angle_alpha   90.00000000
_cell_angle_beta   92.25600000
_cell_angle_gamma   90.00000000
_symmetry_Int_Tables_number   1
_chemical_formula_structural   CuH8(C2N3)4
_chemical_formula_sum   'Cu4 H32 C32 N48'
_cell_volume   1637.56818507
_cell_formula_units_Z   4
loop_
 _symmetry_equiv_pos_site_id
 _symmetry_equiv_pos_as_xyz
  1  'x, y, z'
loop_
 _atom_site_type_symbol
 _atom_site_label
 _atom_site_symmetry_multiplicity
 _atom_site_fract_x
 _atom_site_fract_y
 _atom_site_fract_z
 _atom_site_occupancy
  Cu  Cu0  1  0.12227000  0.37021000  0.49515000  1
  Cu  Cu1  1  0.37773000  0.87021000  0.00485000  1
  Cu  Cu2  1  0.62227000  0.12979000  0.99515000  1
  Cu  Cu3  1  0.87773000  0.62979000  0.50485000  1
  H  H4  1  0.02700000  0.23300000  0.84760000  1
  H  H5  1  0.06700000  0.47230000  0.12120000  1
  H  H6  1  0.08900000  0.97300000  0.40320000  1
  H  H7  1  0.12900000  0.76720000  0.59400000  1
  H  H8  1  0.19800000  0.02440000  0.13830000  1
  H  H9  1  0.20550000  0.98750000  0.83720000  1
  H  H10  1  0.21000000  0.72100000  0.85100000  1
  H  H11  1  0.22500000  0.73300000  0.17090000  1
  H  H12  1  0.27500000  0.23300000  0.32910000  1
  H  H13  1  0.29000000  0.22100000  0.64900000  1
  H  H14  1  0.29450000  0.48750000  0.66280000  1
  H  H15  1  0.30200000  0.52440000  0.36170000  1
  H  H16  1  0.37100000  0.26720000  0.90600000  1
  H  H17  1  0.41100000  0.47300000  0.09680000  1
  H  H18  1  0.43300000  0.97230000  0.37880000  1
  H  H19  1  0.47300000  0.73300000  0.65240000  1
  H  H20  1  0.52700000  0.26700000  0.34760000  1
  H  H21  1  0.56700000  0.02770000  0.62120000  1
  H  H22  1  0.58900000  0.52700000  0.90320000  1
  H  H23  1  0.62900000  0.73280000  0.09400000  1
  H  H24  1  0.69800000  0.47560000  0.63830000  1
  H  H25  1  0.70550000  0.51250000  0.33720000  1
  H  H26  1  0.71000000  0.77900000  0.35100000  1
  H  H27  1  0.72500000  0.76700000  0.67090000  1
  H  H28  1  0.77500000  0.26700000  0.82910000  1
  H  H29  1  0.79000000  0.27900000  0.14900000  1
  H  H30  1  0.79450000  0.01250000  0.16280000  1
  H  H31  1  0.80200000  0.97560000  0.86170000  1
  H  H32  1  0.87100000  0.23280000  0.40600000  1
  H  H33  1  0.91100000  0.02700000  0.59680000  1
  H  H34  1  0.93300000  0.52770000  0.87880000  1
  H  H35  1  0.97300000  0.76700000  0.15240000  1
  C  C36  1  0.06864000  0.24544000  0.78722000  1
  C  C37  1  0.10420000  0.46888000  0.19046000  1
  C  C38  1  0.11203000  0.04356000  0.40258000  1
  C  C39  1  0.14556000  0.69561000  0.59430000  1
  C  C40  1  0.21868000  0.23905000  0.67681000  1
  C  C41  1  0.21979000  0.19067000  0.36298000  1
  C  C42  1  0.23772000  0.49869000  0.32316000  1
  C  C43  1  0.23917000  0.53831000  0.63546000  1
  C  C44  1  0.26083000  0.03831000  0.86454000  1
  C  C45  1  0.26228000  0.99869000  0.17684000  1
  C  C46  1  0.28021000  0.69067000  0.13702000  1
  C  C47  1  0.28132000  0.73905000  0.82319000  1
  C  C48  1  0.35444000  0.19561000  0.90570000  1
  C  C49  1  0.38797000  0.54356000  0.09742000  1
  C  C50  1  0.39580000  0.96888000  0.30954000  1
  C  C51  1  0.43136000  0.74544000  0.71278000  1
  C  C52  1  0.56864000  0.25456000  0.28722000  1
  C  C53  1  0.60420000  0.03112000  0.69046000  1
  C  C54  1  0.61203000  0.45644000  0.90258000  1
  C  C55  1  0.64556000  0.80439000  0.09430000  1
  C  C56  1  0.71868000  0.26095000  0.17681000  1
  C  C57  1  0.71979000  0.30933000  0.86298000  1
  C  C58  1  0.73772000  0.00131000  0.82316000  1
  C  C59  1  0.73917000  0.96169000  0.13546000  1
  C  C60  1  0.76083000  0.46169000  0.36454000  1
  C  C61  1  0.76228000  0.50131000  0.67684000  1
  C  C62  1  0.78021000  0.80933000  0.63702000  1
  C  C63  1  0.78132000  0.76095000  0.32319000  1
  C  C64  1  0.85444000  0.30439000  0.40570000  1
  C  C65  1  0.88797000  0.95644000  0.59742000  1
  C  C66  1  0.89580000  0.53112000  0.80954000  1
  C  C67  1  0.93136000  0.75456000  0.21278000  1
  N  N68  1  0.03044000  0.30208000  0.70530000  1
  N  N69  1  0.05986000  0.41884000  0.27082000  1
  N  N70  1  0.06755000  0.12569000  0.45546000  1
  N  N71  1  0.09190000  0.61853000  0.53660000  1
  N  N72  1  0.12645000  0.29713000  0.63562000  1
  N  N73  1  0.13704000  0.21908000  0.42950000  1
  N  N74  1  0.14565000  0.43851000  0.35439000  1
  N  N75  1  0.15217000  0.51861000  0.56325000  1
  N  N76  1  0.18546000  0.20457000  0.77208000  1
  N  N77  1  0.20767000  0.08084000  0.34302000  1
  N  N78  1  0.21590000  0.51992000  0.21979000  1
  N  N79  1  0.23745000  0.64854000  0.65673000  1
  N  N80  1  0.26255000  0.14854000  0.84327000  1
  N  N81  1  0.28410000  0.01992000  0.28021000  1
  N  N82  1  0.29233000  0.58084000  0.15698000  1
  N  N83  1  0.31454000  0.70457000  0.72792000  1
  N  N84  1  0.34783000  0.01861000  0.93675000  1
  N  N85  1  0.35435000  0.93851000  0.14561000  1
  N  N86  1  0.36296000  0.71908000  0.07050000  1
  N  N87  1  0.37355000  0.79713000  0.86438000  1
  N  N88  1  0.40810000  0.11853000  0.96340000  1
  N  N89  1  0.43245000  0.62569000  0.04454000  1
  N  N90  1  0.44014000  0.91884000  0.22918000  1
  N  N91  1  0.46956000  0.80208000  0.79470000  1
  N  N92  1  0.53044000  0.19792000  0.20530000  1
  N  N93  1  0.55986000  0.08116000  0.77082000  1
  N  N94  1  0.56755000  0.37431000  0.95546000  1
  N  N95  1  0.59190000  0.88147000  0.03660000  1
  N  N96  1  0.62645000  0.20287000  0.13562000  1
  N  N97  1  0.63704000  0.28092000  0.92950000  1
  N  N98  1  0.64565000  0.06149000  0.85439000  1
  N  N99  1  0.65217000  0.98139000  0.06325000  1
  N  N100  1  0.68546000  0.29543000  0.27208000  1
  N  N101  1  0.70767000  0.41916000  0.84302000  1
  N  N102  1  0.71590000  0.98008000  0.71979000  1
  N  N103  1  0.73745000  0.85146000  0.15673000  1
  N  N104  1  0.76255000  0.35146000  0.34327000  1
  N  N105  1  0.78410000  0.48008000  0.78021000  1
  N  N106  1  0.79233000  0.91916000  0.65698000  1
  N  N107  1  0.81454000  0.79543000  0.22792000  1
  N  N108  1  0.84783000  0.48139000  0.43675000  1
  N  N109  1  0.85435000  0.56149000  0.64561000  1
  N  N110  1  0.86296000  0.78092000  0.57050000  1
  N  N111  1  0.87355000  0.70287000  0.36438000  1
  N  N112  1  0.90810000  0.38147000  0.46340000  1
  N  N113  1  0.93245000  0.87431000  0.54454000  1
  N  N114  1  0.94014000  0.58116000  0.72918000  1
  N  N115  1  0.96956000  0.69792000  0.29470000  1
