# generated using pymatgen
data_CuH4C13NO6
_symmetry_space_group_name_H-M   'P 1'
_cell_length_a   18.79400000
_cell_length_b   18.79400000
_cell_length_c   19.93510000
_cell_angle_alpha   61.87610000
_cell_angle_beta   61.87610000
_cell_angle_gamma   60.00000000
_symmetry_Int_Tables_number   1
_chemical_formula_structural   CuH4C13NO6
_chemical_formula_sum   'Cu6 H24 C78 N6 O36'
_cell_volume   5115.54607445
_cell_formula_units_Z   6
loop_
 _symmetry_equiv_pos_site_id
 _symmetry_equiv_pos_as_xyz
  1  'x, y, z'
loop_
 _atom_site_type_symbol
 _atom_site_label
 _atom_site_symmetry_multiplicity
 _atom_site_fract_x
 _atom_site_fract_y
 _atom_site_fract_z
 _atom_site_occupancy
  Cu  Cu0  1  0.50086000  0.93233000  0.06595000  1
  Cu  Cu1  1  0.93233000  0.50086000  0.06595000  1
  Cu  Cu2  1  0.50086000  0.50086000  0.06595000  1
  Cu  Cu3  1  0.49914000  0.49914000  0.93405000  1
  Cu  Cu4  1  0.06767000  0.49914000  0.93405000  1
  Cu  Cu5  1  0.49914000  0.06767000  0.93405000  1
  H  H6  1  0.75940000  0.97920000  0.79360000  1
  H  H7  1  0.46780000  0.97920000  0.79360000  1
  H  H8  1  0.50000000  0.87370000  0.50000000  1
  H  H9  1  0.12630000  0.87370000  0.50000000  1
  H  H10  1  0.76940000  0.76940000  0.99490000  1
  H  H11  1  0.46630000  0.76940000  0.99490000  1
  H  H12  1  0.97920000  0.75940000  0.79360000  1
  H  H13  1  0.46780000  0.75940000  0.79360000  1
  H  H14  1  0.23060000  0.53370000  0.00510000  1
  H  H15  1  0.24060000  0.53220000  0.20640000  1
  H  H16  1  0.02080000  0.53220000  0.20640000  1
  H  H17  1  0.87370000  0.50000000  0.50000000  1
  H  H18  1  0.12630000  0.50000000  0.50000000  1
  H  H19  1  0.97920000  0.46780000  0.79360000  1
  H  H20  1  0.75940000  0.46780000  0.79360000  1
  H  H21  1  0.76940000  0.46630000  0.99490000  1
  H  H22  1  0.53220000  0.24060000  0.20640000  1
  H  H23  1  0.02080000  0.24060000  0.20640000  1
  H  H24  1  0.53370000  0.23060000  0.00510000  1
  H  H25  1  0.23060000  0.23060000  0.00510000  1
  H  H26  1  0.87370000  0.12630000  0.50000000  1
  H  H27  1  0.50000000  0.12630000  0.50000000  1
  H  H28  1  0.53220000  0.02080000  0.20640000  1
  H  H29  1  0.24060000  0.02080000  0.20640000  1
  C  C30  1  0.51960000  0.99680000  0.43080000  1
  C  C31  1  0.05280000  0.99680000  0.43080000  1
  C  C32  1  0.88420000  0.99390000  0.65830000  1
  C  C33  1  0.46360000  0.99390000  0.65830000  1
  C  C34  1  0.48040000  0.94720000  0.56920000  1
  C  C35  1  0.00320000  0.94720000  0.56920000  1
  C  C36  1  0.66018000  0.92608000  0.93976000  1
  C  C37  1  0.47398000  0.92608000  0.93976000  1
  C  C38  1  0.50000000  0.92320000  0.50000000  1
  C  C39  1  0.07680000  0.92320000  0.50000000  1
  C  C40  1  0.78946000  0.92316000  0.81982000  1
  C  C41  1  0.46756000  0.92316000  0.81982000  1
  C  C42  1  0.99390000  0.88420000  0.65830000  1
  C  C43  1  0.46360000  0.88420000  0.65830000  1
  C  C44  1  0.75407000  0.87907000  0.89899000  1
  C  C45  1  0.46787000  0.87907000  0.89899000  1
  C  C46  1  0.87500000  0.87500000  0.78280000  1
  C  C47  1  0.46720000  0.87500000  0.78280000  1
  C  C48  1  0.79556000  0.79556000  0.94162000  1
  C  C49  1  0.46726000  0.79556000  0.94162000  1
  C  C50  1  0.92316000  0.78946000  0.81982000  1
  C  C51  1  0.46756000  0.78946000  0.81982000  1
  C  C52  1  0.87907000  0.75407000  0.89899000  1
  C  C53  1  0.46787000  0.75407000  0.89899000  1
  C  C54  1  0.92608000  0.66018000  0.93976000  1
  C  C55  1  0.47398000  0.66018000  0.93976000  1
  C  C56  1  0.11580000  0.53640000  0.34170000  1
  C  C57  1  0.00610000  0.53640000  0.34170000  1
  C  C58  1  0.12500000  0.53280000  0.21720000  1
  C  C59  1  0.20444000  0.53274000  0.05838000  1
  C  C60  1  0.21054000  0.53244000  0.18018000  1
  C  C61  1  0.07684000  0.53244000  0.18018000  1
  C  C62  1  0.24593000  0.53213000  0.10101000  1
  C  C63  1  0.12093000  0.53213000  0.10101000  1
  C  C64  1  0.33982000  0.52602000  0.06024000  1
  C  C65  1  0.07392000  0.52602000  0.06024000  1
  C  C66  1  0.99680000  0.51960000  0.43080000  1
  C  C67  1  0.05280000  0.51960000  0.43080000  1
  C  C68  1  0.92320000  0.50000000  0.50000000  1
  C  C69  1  0.07680000  0.50000000  0.50000000  1
  C  C70  1  0.94720000  0.48040000  0.56920000  1
  C  C71  1  0.00320000  0.48040000  0.56920000  1
  C  C72  1  0.92608000  0.47398000  0.93976000  1
  C  C73  1  0.66018000  0.47398000  0.93976000  1
  C  C74  1  0.87907000  0.46787000  0.89899000  1
  C  C75  1  0.75407000  0.46787000  0.89899000  1
  C  C76  1  0.92316000  0.46756000  0.81982000  1
  C  C77  1  0.78946000  0.46756000  0.81982000  1
  C  C78  1  0.79556000  0.46726000  0.94162000  1
  C  C79  1  0.87500000  0.46720000  0.78280000  1
  C  C80  1  0.99390000  0.46360000  0.65830000  1
  C  C81  1  0.88420000  0.46360000  0.65830000  1
  C  C82  1  0.52602000  0.33982000  0.06024000  1
  C  C83  1  0.07392000  0.33982000  0.06024000  1
  C  C84  1  0.53213000  0.24593000  0.10101000  1
  C  C85  1  0.12093000  0.24593000  0.10101000  1
  C  C86  1  0.53244000  0.21054000  0.18018000  1
  C  C87  1  0.07684000  0.21054000  0.18018000  1
  C  C88  1  0.53274000  0.20444000  0.05838000  1
  C  C89  1  0.20444000  0.20444000  0.05838000  1
  C  C90  1  0.53280000  0.12500000  0.21720000  1
  C  C91  1  0.12500000  0.12500000  0.21720000  1
  C  C92  1  0.53213000  0.12093000  0.10101000  1
  C  C93  1  0.24593000  0.12093000  0.10101000  1
  C  C94  1  0.53640000  0.11580000  0.34170000  1
  C  C95  1  0.00610000  0.11580000  0.34170000  1
  C  C96  1  0.53244000  0.07684000  0.18018000  1
  C  C97  1  0.21054000  0.07684000  0.18018000  1
  C  C98  1  0.92320000  0.07680000  0.50000000  1
  C  C99  1  0.50000000  0.07680000  0.50000000  1
  C  C100  1  0.52602000  0.07392000  0.06024000  1
  C  C101  1  0.33982000  0.07392000  0.06024000  1
  C  C102  1  0.99680000  0.05280000  0.43080000  1
  C  C103  1  0.51960000  0.05280000  0.43080000  1
  C  C104  1  0.53640000  0.00610000  0.34170000  1
  C  C105  1  0.11580000  0.00610000  0.34170000  1
  C  C106  1  0.94720000  0.00320000  0.56920000  1
  C  C107  1  0.48040000  0.00320000  0.56920000  1
  N  N108  1  0.91540000  0.91540000  0.69190000  1
  N  N109  1  0.47730000  0.91540000  0.69190000  1
  N  N110  1  0.08460000  0.52270000  0.30810000  1
  N  N111  1  0.91540000  0.47730000  0.69190000  1
  N  N112  1  0.52270000  0.08460000  0.30810000  1
  N  N113  1  0.08460000  0.08460000  0.30810000  1
  O  O114  1  0.52235000  0.99915000  0.10215000  1
  O  O115  1  0.37635000  0.99915000  0.10215000  1
  O  O116  1  0.53000000  0.95000000  0.33000000  1
  O  O117  1  0.19000000  0.95000000  0.33000000  1
  O  O118  1  0.62483000  0.88533000  0.01071000  1
  O  O119  1  0.47913000  0.88533000  0.01071000  1
  O  O120  1  0.47000000  0.81000000  0.67000000  1
  O  O121  1  0.05000000  0.81000000  0.67000000  1
  O  O122  1  0.88533000  0.62483000  0.01071000  1
  O  O123  1  0.47913000  0.62483000  0.01071000  1
  O  O124  1  0.47765000  0.62365000  0.89785000  1
  O  O125  1  0.00085000  0.62365000  0.89785000  1
  O  O126  1  0.95000000  0.53000000  0.33000000  1
  O  O127  1  0.19000000  0.53000000  0.33000000  1
  O  O128  1  0.99915000  0.52235000  0.10215000  1
  O  O129  1  0.37635000  0.52235000  0.10215000  1
  O  O130  1  0.37517000  0.52087000  0.98929000  1
  O  O131  1  0.11467000  0.52087000  0.98929000  1
  O  O132  1  0.88533000  0.47913000  0.01071000  1
  O  O133  1  0.62483000  0.47913000  0.01071000  1
  O  O134  1  0.62365000  0.47765000  0.89785000  1
  O  O135  1  0.00085000  0.47765000  0.89785000  1
  O  O136  1  0.81000000  0.47000000  0.67000000  1
  O  O137  1  0.05000000  0.47000000  0.67000000  1
  O  O138  1  0.99915000  0.37635000  0.10215000  1
  O  O139  1  0.52235000  0.37635000  0.10215000  1
  O  O140  1  0.52087000  0.37517000  0.98929000  1
  O  O141  1  0.11467000  0.37517000  0.98929000  1
  O  O142  1  0.95000000  0.19000000  0.33000000  1
  O  O143  1  0.53000000  0.19000000  0.33000000  1
  O  O144  1  0.52087000  0.11467000  0.98929000  1
  O  O145  1  0.37517000  0.11467000  0.98929000  1
  O  O146  1  0.81000000  0.05000000  0.67000000  1
  O  O147  1  0.47000000  0.05000000  0.67000000  1
  O  O148  1  0.62365000  0.00085000  0.89785000  1
  O  O149  1  0.47765000  0.00085000  0.89785000  1
