# generated using pymatgen
data_ZnH2C7NO4
_symmetry_space_group_name_H-M   'P 1'
_cell_length_a   7.02490000
_cell_length_b   7.02490000
_cell_length_c   19.93600000
_cell_angle_alpha   90.00000000
_cell_angle_beta   90.00000000
_cell_angle_gamma   90.00000000
_symmetry_Int_Tables_number   1
_chemical_formula_structural   ZnH2C7NO4
_chemical_formula_sum   'Zn4 H8 C28 N4 O16'
_cell_volume   983.82605012
_cell_formula_units_Z   4
loop_
 _symmetry_equiv_pos_site_id
 _symmetry_equiv_pos_as_xyz
  1  'x, y, z'
loop_
 _atom_site_type_symbol
 _atom_site_label
 _atom_site_symmetry_multiplicity
 _atom_site_fract_x
 _atom_site_fract_y
 _atom_site_fract_z
 _atom_site_occupancy
  Zn  Zn0  1  0.00000000  0.00000000  0.27597000  1
  Zn  Zn1  1  0.00000000  0.00000000  0.72403000  1
  Zn  Zn2  1  0.50000000  0.50000000  0.22403000  1
  Zn  Zn3  1  0.50000000  0.50000000  0.77597000  1
  H  H4  1  0.16700000  0.76650000  0.94930000  1
  H  H5  1  0.23350000  0.83300000  0.05070000  1
  H  H6  1  0.26650000  0.33300000  0.44930000  1
  H  H7  1  0.33300000  0.26650000  0.55070000  1
  H  H8  1  0.66700000  0.73350000  0.55070000  1
  H  H9  1  0.73350000  0.66700000  0.44930000  1
  H  H10  1  0.76650000  0.16700000  0.05070000  1
  H  H11  1  0.83300000  0.23350000  0.94930000  1
  C  C12  1  0.00000000  0.00000000  0.03740000  1
  C  C13  1  0.00000000  0.00000000  0.96260000  1
  C  C14  1  0.10130000  0.86220000  0.92690000  1
  C  C15  1  0.10220000  0.87050000  0.85740000  1
  C  C16  1  0.12950000  0.89780000  0.14260000  1
  C  C17  1  0.13780000  0.89870000  0.07310000  1
  C  C18  1  0.21900000  0.74470000  0.81190000  1
  C  C19  1  0.24470000  0.28100000  0.31190000  1
  C  C20  1  0.25530000  0.78100000  0.18810000  1
  C  C21  1  0.28100000  0.24470000  0.68810000  1
  C  C22  1  0.36220000  0.39870000  0.42690000  1
  C  C23  1  0.37050000  0.39780000  0.35740000  1
  C  C24  1  0.39780000  0.37050000  0.64260000  1
  C  C25  1  0.39870000  0.36220000  0.57310000  1
  C  C26  1  0.50000000  0.50000000  0.46260000  1
  C  C27  1  0.50000000  0.50000000  0.53740000  1
  C  C28  1  0.60130000  0.63780000  0.57310000  1
  C  C29  1  0.60220000  0.62950000  0.64260000  1
  C  C30  1  0.62950000  0.60220000  0.35740000  1
  C  C31  1  0.63780000  0.60130000  0.42690000  1
  C  C32  1  0.71900000  0.75530000  0.68810000  1
  C  C33  1  0.74470000  0.21900000  0.18810000  1
  C  C34  1  0.75530000  0.71900000  0.31190000  1
  C  C35  1  0.78100000  0.25530000  0.81190000  1
  C  C36  1  0.86220000  0.10130000  0.07310000  1
  C  C37  1  0.87050000  0.10220000  0.14260000  1
  C  C38  1  0.89780000  0.12950000  0.85740000  1
  C  C39  1  0.89870000  0.13780000  0.92690000  1
  N  N40  1  0.00000000  0.00000000  0.17520000  1
  N  N41  1  0.00000000  0.00000000  0.82480000  1
  N  N42  1  0.50000000  0.50000000  0.32480000  1
  N  N43  1  0.50000000  0.50000000  0.67520000  1
  O  O44  1  0.13460000  0.16390000  0.33965000  1
  O  O45  1  0.16390000  0.13460000  0.66035000  1
  O  O46  1  0.19420000  0.76410000  0.75045000  1
  O  O47  1  0.23590000  0.80580000  0.24955000  1
  O  O48  1  0.26410000  0.30580000  0.25045000  1
  O  O49  1  0.30580000  0.26410000  0.74955000  1
  O  O50  1  0.33610000  0.63460000  0.83965000  1
  O  O51  1  0.36540000  0.66390000  0.16035000  1
  O  O52  1  0.63460000  0.33610000  0.16035000  1
  O  O53  1  0.66390000  0.36540000  0.83965000  1
  O  O54  1  0.69420000  0.73590000  0.74955000  1
  O  O55  1  0.73590000  0.69420000  0.25045000  1
  O  O56  1  0.76410000  0.19420000  0.24955000  1
  O  O57  1  0.80580000  0.23590000  0.75045000  1
  O  O58  1  0.83610000  0.86540000  0.66035000  1
  O  O59  1  0.86540000  0.83610000  0.33965000  1
