# generated using pymatgen
data_Er2H3(C5O4)3
_symmetry_space_group_name_H-M   'P 1'
_cell_length_a   10.41350000
_cell_length_b   10.55410000
_cell_length_c   14.03720000
_cell_angle_alpha   99.59500000
_cell_angle_beta   99.62000000
_cell_angle_gamma   108.84300000
_symmetry_Int_Tables_number   1
_chemical_formula_structural   Er2H3(C5O4)3
_chemical_formula_sum   'Er4 H6 C30 O24'
_cell_volume   1398.71755161
_cell_formula_units_Z   2
loop_
 _symmetry_equiv_pos_site_id
 _symmetry_equiv_pos_as_xyz
  1  'x, y, z'
loop_
 _atom_site_type_symbol
 _atom_site_label
 _atom_site_symmetry_multiplicity
 _atom_site_fract_x
 _atom_site_fract_y
 _atom_site_fract_z
 _atom_site_occupancy
  Er  Er0  1  0.03584000  0.53583000  0.17855000  1
  Er  Er1  1  0.45822000  0.93462000  0.81801000  1
  Er  Er2  1  0.54178000  0.06538000  0.18199000  1
  Er  Er3  1  0.96416000  0.46417000  0.82145000  1
  H  H4  1  0.08570000  0.73730000  0.55130000  1
  H  H5  1  0.20790000  0.18170000  0.07830000  1
  H  H6  1  0.30150000  0.33450000  0.89150000  1
  H  H7  1  0.69850000  0.66550000  0.10850000  1
  H  H8  1  0.79210000  0.81830000  0.92170000  1
  H  H9  1  0.91430000  0.26270000  0.44870000  1
  C  C10  1  0.00090000  0.74140000  0.89440000  1
  C  C11  1  0.00170000  0.87920000  0.94430000  1
  C  C12  1  0.03020000  0.41990000  0.56510000  1
  C  C13  1  0.05110000  0.64170000  0.53030000  1
  C  C14  1  0.05620000  0.32600000  0.63030000  1
  C  C15  1  0.08290000  0.56480000  0.59610000  1
  C  C16  1  0.12480000  0.10890000  0.04680000  1
  C  C17  1  0.12770000  0.98800000  0.99050000  1
  C  C18  1  0.17690000  0.64230000  0.69670000  1
  C  C19  1  0.22520000  0.49860000  0.01180000  1
  C  C20  1  0.26500000  0.98230000  0.97300000  1
  C  C21  1  0.36840000  0.50160000  0.00680000  1
  C  C22  1  0.38120000  0.40070000  0.93510000  1
  C  C23  1  0.48490000  0.72050000  0.14700000  1
  C  C24  1  0.48810000  0.60180000  0.07190000  1
  C  C25  1  0.51190000  0.39820000  0.92810000  1
  C  C26  1  0.51510000  0.27950000  0.85300000  1
  C  C27  1  0.61880000  0.59930000  0.06490000  1
  C  C28  1  0.63160000  0.49840000  0.99320000  1
  C  C29  1  0.73500000  0.01770000  0.02700000  1
  C  C30  1  0.77480000  0.50140000  0.98820000  1
  C  C31  1  0.82310000  0.35770000  0.30330000  1
  C  C32  1  0.87230000  0.01200000  0.00950000  1
  C  C33  1  0.87520000  0.89110000  0.95320000  1
  C  C34  1  0.91710000  0.43520000  0.40390000  1
  C  C35  1  0.94380000  0.67400000  0.36970000  1
  C  C36  1  0.94890000  0.35830000  0.46970000  1
  C  C37  1  0.96980000  0.58010000  0.43490000  1
  C  C38  1  0.99830000  0.12080000  0.05570000  1
  C  C39  1  0.99910000  0.25860000  0.10560000  1
  O  O40  1  0.00020000  0.31580000  0.70110000  1
  O  O41  1  0.07620000  0.68990000  0.94260000  1
  O  O42  1  0.08020000  0.32490000  0.18900000  1
  O  O43  1  0.12470000  0.25490000  0.60580000  1
  O  O44  1  0.13120000  0.44250000  0.93230000  1
  O  O45  1  0.15430000  0.59300000  0.77060000  1
  O  O46  1  0.20680000  0.54940000  0.09320000  1
  O  O47  1  0.27300000  0.95800000  0.88360000  1
  O  O48  1  0.27380000  0.75230000  0.70090000  1
  O  O49  1  0.36240000  0.00690000  0.04690000  1
  O  O50  1  0.47440000  0.82170000  0.11440000  1
  O  O51  1  0.49730000  0.28490000  0.76370000  1
  O  O52  1  0.50270000  0.71510000  0.23630000  1
  O  O53  1  0.52560000  0.17830000  0.88560000  1
  O  O54  1  0.63760000  0.99310000  0.95310000  1
  O  O55  1  0.72620000  0.24770000  0.29910000  1
  O  O56  1  0.72700000  0.04200000  0.11640000  1
  O  O57  1  0.79320000  0.45060000  0.90680000  1
  O  O58  1  0.84570000  0.40700000  0.22940000  1
  O  O59  1  0.86880000  0.55750000  0.06770000  1
  O  O60  1  0.87530000  0.74510000  0.39420000  1
  O  O61  1  0.91980000  0.67510000  0.81100000  1
  O  O62  1  0.92380000  0.31010000  0.05740000  1
  O  O63  1  0.99980000  0.68420000  0.29890000  1
