# generated using pymatgen
data_Ni3H32(C10O3)6
_symmetry_space_group_name_H-M   'P 1'
_cell_length_a   11.53960000
_cell_length_b   13.96780000
_cell_length_c   27.26620000
_cell_angle_alpha   90.00000000
_cell_angle_beta   90.00000000
_cell_angle_gamma   90.00000000
_symmetry_Int_Tables_number   1
_chemical_formula_structural   Ni3H32(C10O3)6
_chemical_formula_sum   'Ni6 H64 C120 O36'
_cell_volume   4394.84313974
_cell_formula_units_Z   2
loop_
 _symmetry_equiv_pos_site_id
 _symmetry_equiv_pos_as_xyz
  1  'x, y, z'
loop_
 _atom_site_type_symbol
 _atom_site_label
 _atom_site_symmetry_multiplicity
 _atom_site_fract_x
 _atom_site_fract_y
 _atom_site_fract_z
 _atom_site_occupancy
  Ni  Ni0  1  0.00000000  0.50000000  0.00000000  1
  Ni  Ni1  1  0.14970000  0.71863000  1.00000000  1
  Ni  Ni2  1  0.85030000  0.28137000  1.00000000  1
  Ni  Ni3  1  0.00000000  1.00000000  0.50000000  1
  Ni  Ni4  1  0.14970000  0.78137000  0.50000000  1
  Ni  Ni5  1  0.85030000  0.21863000  0.50000000  1
  H  H6  1  0.42390000  0.81900000  0.10490000  1
  H  H7  1  0.57610000  0.18100000  0.10490000  1
  H  H8  1  0.04630000  0.17850000  0.12510000  1
  H  H9  1  0.95370000  0.82150000  0.12510000  1
  H  H10  1  0.17220000  0.44760000  0.12780000  1
  H  H11  1  0.82780000  0.55240000  0.12780000  1
  H  H12  1  0.36890000  0.55580000  0.15760000  1
  H  H13  1  0.63110000  0.44420000  0.15760000  1
  H  H14  1  0.45520000  0.14800000  0.16940000  1
  H  H15  1  0.54480000  0.85200000  0.16940000  1
  H  H16  1  0.14960000  0.14260000  0.19620000  1
  H  H17  1  0.85040000  0.85740000  0.19620000  1
  H  H18  1  0.27160000  0.41380000  0.19940000  1
  H  H19  1  0.72840000  0.58620000  0.19940000  1
  H  H20  1  0.48090000  0.59280000  0.22640000  1
  H  H21  1  0.51910000  0.40720000  0.22640000  1
  H  H22  1  0.48090000  0.90720000  0.27360000  1
  H  H23  1  0.51910000  0.09280000  0.27360000  1
  H  H24  1  0.27160000  0.08620000  0.30060000  1
  H  H25  1  0.72840000  0.91380000  0.30060000  1
  H  H26  1  0.14960000  0.35740000  0.30380000  1
  H  H27  1  0.85040000  0.64260000  0.30380000  1
  H  H28  1  0.45520000  0.35200000  0.33060000  1
  H  H29  1  0.54480000  0.64800000  0.33060000  1
  H  H30  1  0.36890000  0.94420000  0.34240000  1
  H  H31  1  0.63110000  0.05580000  0.34240000  1
  H  H32  1  0.17220000  0.05240000  0.37220000  1
  H  H33  1  0.82780000  0.94760000  0.37220000  1
  H  H34  1  0.04630000  0.32150000  0.37490000  1
  H  H35  1  0.95370000  0.67850000  0.37490000  1
  H  H36  1  0.42390000  0.68100000  0.39510000  1
  H  H37  1  0.57610000  0.31900000  0.39510000  1
  H  H38  1  0.42390000  0.68100000  0.60490000  1
  H  H39  1  0.57610000  0.31900000  0.60490000  1
  H  H40  1  0.04630000  0.32150000  0.62510000  1
  H  H41  1  0.95370000  0.67850000  0.62510000  1
  H  H42  1  0.17220000  0.05240000  0.62780000  1
  H  H43  1  0.82780000  0.94760000  0.62780000  1
  H  H44  1  0.36890000  0.94420000  0.65760000  1
  H  H45  1  0.63110000  0.05580000  0.65760000  1
  H  H46  1  0.45520000  0.35200000  0.66940000  1
  H  H47  1  0.54480000  0.64800000  0.66940000  1
  H  H48  1  0.14960000  0.35740000  0.69620000  1
  H  H49  1  0.85040000  0.64260000  0.69620000  1
  H  H50  1  0.27160000  0.08620000  0.69940000  1
  H  H51  1  0.72840000  0.91380000  0.69940000  1
  H  H52  1  0.48090000  0.90720000  0.72640000  1
  H  H53  1  0.51910000  0.09280000  0.72640000  1
  H  H54  1  0.48090000  0.59280000  0.77360000  1
  H  H55  1  0.51910000  0.40720000  0.77360000  1
  H  H56  1  0.27160000  0.41380000  0.80060000  1
  H  H57  1  0.72840000  0.58620000  0.80060000  1
  H  H58  1  0.14960000  0.14260000  0.80380000  1
  H  H59  1  0.85040000  0.85740000  0.80380000  1
  H  H60  1  0.45520000  0.14800000  0.83060000  1
  H  H61  1  0.54480000  0.85200000  0.83060000  1
  H  H62  1  0.36890000  0.55580000  0.84240000  1
  H  H63  1  0.63110000  0.44420000  0.84240000  1
  H  H64  1  0.17220000  0.44760000  0.87220000  1
  H  H65  1  0.82780000  0.55240000  0.87220000  1
  H  H66  1  0.04630000  0.17850000  0.87490000  1
  H  H67  1  0.95370000  0.82150000  0.87490000  1
  H  H68  1  0.42390000  0.81900000  0.89510000  1
  H  H69  1  0.57610000  0.18100000  0.89510000  1
  C  C70  1  0.03710000  0.33870000  0.07220000  1
  C  C71  1  0.96290000  0.66130000  0.07220000  1
  C  C72  1  0.30980000  0.65860000  0.08053000  1
  C  C73  1  0.69020000  0.34140000  0.08053000  1
  C  C74  1  0.09880000  0.31650000  0.11970000  1
  C  C75  1  0.90120000  0.68350000  0.11970000  1
  C  C76  1  0.38580000  0.68360000  0.12381000  1
  C  C77  1  0.61420000  0.31640000  0.12381000  1
  C  C78  1  0.43720000  0.77050000  0.12920000  1
  C  C79  1  0.56280000  0.22950000  0.12920000  1
  C  C80  1  0.09320000  0.22700000  0.14020000  1
  C  C81  1  0.90680000  0.77300000  0.14020000  1
  C  C82  1  0.16660000  0.38490000  0.14200000  1
  C  C83  1  0.83340000  0.61510000  0.14200000  1
  C  C84  1  0.40360000  0.61810000  0.16020000  1
  C  C85  1  0.59640000  0.38190000  0.16020000  1
  C  C86  1  0.49340000  0.20900000  0.16810000  1
  C  C87  1  0.50660000  0.79100000  0.16810000  1
  C  C88  1  0.15430000  0.20570000  0.18240000  1
  C  C89  1  0.84570000  0.79430000  0.18240000  1
  C  C90  1  0.22620000  0.36460000  0.18410000  1
  C  C91  1  0.77380000  0.63540000  0.18410000  1
  C  C92  1  0.47100000  0.63970000  0.20100000  1
  C  C93  1  0.52900000  0.36030000  0.20100000  1
  C  C94  1  0.22230000  0.27470000  0.20504000  1
  C  C95  1  0.77770000  0.72530000  0.20504000  1
  C  C96  1  0.47680000  0.27280000  0.20514000  1
  C  C97  1  0.52320000  0.72720000  0.20514000  1
  C  C98  1  0.28950000  0.25000000  0.25000000  1
  C  C99  1  0.40660000  0.25000000  0.25000000  1
  C  C100  1  0.59340000  0.75000000  0.25000000  1
  C  C101  1  0.71050000  0.75000000  0.25000000  1
  C  C102  1  0.47680000  0.22720000  0.29486000  1
  C  C103  1  0.52320000  0.77280000  0.29486000  1
  C  C104  1  0.22230000  0.22530000  0.29496000  1
  C  C105  1  0.77770000  0.77470000  0.29496000  1
  C  C106  1  0.47100000  0.86030000  0.29900000  1
  C  C107  1  0.52900000  0.13970000  0.29900000  1
  C  C108  1  0.22620000  0.13540000  0.31590000  1
  C  C109  1  0.77380000  0.86460000  0.31590000  1
  C  C110  1  0.15430000  0.29430000  0.31760000  1
  C  C111  1  0.84570000  0.70570000  0.31760000  1
  C  C112  1  0.49340000  0.29100000  0.33190000  1
  C  C113  1  0.50660000  0.70900000  0.33190000  1
  C  C114  1  0.40360000  0.88190000  0.33980000  1
  C  C115  1  0.59640000  0.11810000  0.33980000  1
  C  C116  1  0.16660000  0.11510000  0.35800000  1
  C  C117  1  0.83340000  0.88490000  0.35800000  1
  C  C118  1  0.09320000  0.27300000  0.35980000  1
  C  C119  1  0.90680000  0.72700000  0.35980000  1
  C  C120  1  0.43720000  0.72950000  0.37080000  1
  C  C121  1  0.56280000  0.27050000  0.37080000  1
  C  C122  1  0.38580000  0.81640000  0.37619000  1
  C  C123  1  0.61420000  0.18360000  0.37619000  1
  C  C124  1  0.09880000  0.18350000  0.38030000  1
  C  C125  1  0.90120000  0.81650000  0.38030000  1
  C  C126  1  0.30980000  0.84140000  0.41947000  1
  C  C127  1  0.69020000  0.15860000  0.41947000  1
  C  C128  1  0.03710000  0.16130000  0.42780000  1
  C  C129  1  0.96290000  0.83870000  0.42780000  1
  C  C130  1  0.03710000  0.16130000  0.57220000  1
  C  C131  1  0.96290000  0.83870000  0.57220000  1
  C  C132  1  0.30980000  0.84140000  0.58053000  1
  C  C133  1  0.69020000  0.15860000  0.58053000  1
  C  C134  1  0.09880000  0.18350000  0.61970000  1
  C  C135  1  0.90120000  0.81650000  0.61970000  1
  C  C136  1  0.38580000  0.81640000  0.62381000  1
  C  C137  1  0.61420000  0.18360000  0.62381000  1
  C  C138  1  0.43720000  0.72950000  0.62920000  1
  C  C139  1  0.56280000  0.27050000  0.62920000  1
  C  C140  1  0.09320000  0.27300000  0.64020000  1
  C  C141  1  0.90680000  0.72700000  0.64020000  1
  C  C142  1  0.16660000  0.11510000  0.64200000  1
  C  C143  1  0.83340000  0.88490000  0.64200000  1
  C  C144  1  0.40360000  0.88190000  0.66020000  1
  C  C145  1  0.59640000  0.11810000  0.66020000  1
  C  C146  1  0.49340000  0.29100000  0.66810000  1
  C  C147  1  0.50660000  0.70900000  0.66810000  1
  C  C148  1  0.15430000  0.29430000  0.68240000  1
  C  C149  1  0.84570000  0.70570000  0.68240000  1
  C  C150  1  0.22620000  0.13540000  0.68410000  1
  C  C151  1  0.77380000  0.86460000  0.68410000  1
  C  C152  1  0.47100000  0.86030000  0.70100000  1
  C  C153  1  0.52900000  0.13970000  0.70100000  1
  C  C154  1  0.22230000  0.22530000  0.70504000  1
  C  C155  1  0.77770000  0.77470000  0.70504000  1
  C  C156  1  0.47680000  0.22720000  0.70514000  1
  C  C157  1  0.52320000  0.77280000  0.70514000  1
  C  C158  1  0.28950000  0.25000000  0.75000000  1
  C  C159  1  0.40660000  0.25000000  0.75000000  1
  C  C160  1  0.59340000  0.75000000  0.75000000  1
  C  C161  1  0.71050000  0.75000000  0.75000000  1
  C  C162  1  0.47680000  0.27280000  0.79486000  1
  C  C163  1  0.52320000  0.72720000  0.79486000  1
  C  C164  1  0.22230000  0.27470000  0.79496000  1
  C  C165  1  0.77770000  0.72530000  0.79496000  1
  C  C166  1  0.47100000  0.63970000  0.79900000  1
  C  C167  1  0.52900000  0.36030000  0.79900000  1
  C  C168  1  0.22620000  0.36460000  0.81590000  1
  C  C169  1  0.77380000  0.63540000  0.81590000  1
  C  C170  1  0.15430000  0.20570000  0.81760000  1
  C  C171  1  0.84570000  0.79430000  0.81760000  1
  C  C172  1  0.49340000  0.20900000  0.83190000  1
  C  C173  1  0.50660000  0.79100000  0.83190000  1
  C  C174  1  0.40360000  0.61810000  0.83980000  1
  C  C175  1  0.59640000  0.38190000  0.83980000  1
  C  C176  1  0.16660000  0.38490000  0.85800000  1
  C  C177  1  0.83340000  0.61510000  0.85800000  1
  C  C178  1  0.09320000  0.22700000  0.85980000  1
  C  C179  1  0.90680000  0.77300000  0.85980000  1
  C  C180  1  0.43720000  0.77050000  0.87080000  1
  C  C181  1  0.56280000  0.22950000  0.87080000  1
  C  C182  1  0.38580000  0.68360000  0.87619000  1
  C  C183  1  0.61420000  0.31640000  0.87619000  1
  C  C184  1  0.09880000  0.31650000  0.88030000  1
  C  C185  1  0.90120000  0.68350000  0.88030000  1
  C  C186  1  0.30980000  0.65860000  0.91947000  1
  C  C187  1  0.69020000  0.34140000  0.91947000  1
  C  C188  1  0.03710000  0.33870000  0.92780000  1
  C  C189  1  0.96290000  0.66130000  0.92780000  1
  O  O190  1  0.15580000  0.57050000  0.00000000  1
  O  O191  1  0.84420000  0.42950000  0.00000000  1
  O  O192  1  0.06230000  0.41570000  0.05250000  1
  O  O193  1  0.93770000  0.58430000  0.05250000  1
  O  O194  1  0.27830000  0.72580000  0.05343000  1
  O  O195  1  0.72170000  0.27420000  0.05343000  1
  O  O196  1  0.03260000  0.72180000  0.05617000  1
  O  O197  1  0.96740000  0.27820000  0.05617000  1
  O  O198  1  0.28530000  0.57250000  0.07479000  1
  O  O199  1  0.71470000  0.42750000  0.07479000  1
  O  O200  1  0.28530000  0.92750000  0.42521000  1
  O  O201  1  0.71470000  0.07250000  0.42521000  1
  O  O202  1  0.03260000  0.77820000  0.44383000  1
  O  O203  1  0.96740000  0.22180000  0.44383000  1
  O  O204  1  0.27830000  0.77420000  0.44657000  1
  O  O205  1  0.72170000  0.22580000  0.44657000  1
  O  O206  1  0.06230000  0.08430000  0.44750000  1
  O  O207  1  0.93770000  0.91570000  0.44750000  1
  O  O208  1  0.15580000  0.92950000  0.50000000  1
  O  O209  1  0.84420000  0.07050000  0.50000000  1
  O  O210  1  0.06230000  0.08430000  0.55250000  1
  O  O211  1  0.93770000  0.91570000  0.55250000  1
  O  O212  1  0.27830000  0.77420000  0.55343000  1
  O  O213  1  0.72170000  0.22580000  0.55343000  1
  O  O214  1  0.03260000  0.77820000  0.55617000  1
  O  O215  1  0.96740000  0.22180000  0.55617000  1
  O  O216  1  0.28530000  0.92750000  0.57479000  1
  O  O217  1  0.71470000  0.07250000  0.57479000  1
  O  O218  1  0.28530000  0.57250000  0.92521000  1
  O  O219  1  0.71470000  0.42750000  0.92521000  1
  O  O220  1  0.03260000  0.72180000  0.94383000  1
  O  O221  1  0.96740000  0.27820000  0.94383000  1
  O  O222  1  0.27830000  0.72580000  0.94657000  1
  O  O223  1  0.72170000  0.27420000  0.94657000  1
  O  O224  1  0.06230000  0.41570000  0.94750000  1
  O  O225  1  0.93770000  0.58430000  0.94750000  1
