# generated using pymatgen
data_Cd2H32C41(NO3)4
_symmetry_space_group_name_H-M   'P 1'
_cell_length_a   14.57390000
_cell_length_b   20.64660000
_cell_length_c   20.64660000
_cell_angle_alpha   60.80350000
_cell_angle_beta   69.33290000
_cell_angle_gamma   69.33290000
_symmetry_Int_Tables_number   1
_chemical_formula_structural   Cd2H32C41(NO3)4
_chemical_formula_sum   'Cd8 H128 C164 N16 O48'
_cell_volume   4948.44676425
_cell_formula_units_Z   4
loop_
 _symmetry_equiv_pos_site_id
 _symmetry_equiv_pos_as_xyz
  1  'x, y, z'
loop_
 _atom_site_type_symbol
 _atom_site_label
 _atom_site_symmetry_multiplicity
 _atom_site_fract_x
 _atom_site_fract_y
 _atom_site_fract_z
 _atom_site_occupancy
  Cd  Cd0  1  0.00114000  0.58422000  0.20986000  1
  Cd  Cd1  1  0.20478000  0.70986000  0.08422000  1
  Cd  Cd2  1  0.29522000  0.91578000  0.29014000  1
  Cd  Cd3  1  0.49886000  0.79014000  0.41578000  1
  Cd  Cd4  1  0.50114000  0.20986000  0.58422000  1
  Cd  Cd5  1  0.70478000  0.08422000  0.70986000  1
  Cd  Cd6  1  0.79522000  0.29014000  0.91578000  1
  Cd  Cd7  1  0.99886000  0.41578000  0.79014000  1
  H  H8  1  0.00050000  0.84710000  0.36250000  1
  H  H9  1  0.00190000  0.40350000  0.94930000  1
  H  H10  1  0.00230000  0.34820000  0.57600000  1
  H  H11  1  0.01120000  0.64900000  0.56020000  1
  H  H12  1  0.01410000  0.06640000  0.65820000  1
  H  H13  1  0.01750000  0.84920000  0.08680000  1
  H  H14  1  0.02550000  0.07340000  0.14720000  1
  H  H15  1  0.04050000  0.82860000  0.95520000  1
  H  H16  1  0.04650000  0.58680000  0.34920000  1
  H  H17  1  0.06800000  0.54190000  0.96650000  1
  H  H18  1  0.07350000  0.07600000  0.84820000  1
  H  H19  1  0.07640000  0.95810000  0.53350000  1
  H  H20  1  0.08210000  0.74460000  0.45760000  1
  H  H21  1  0.09280000  0.17980000  0.50660000  1
  H  H22  1  0.11310000  0.80970000  0.29290000  1
  H  H23  1  0.14530000  0.90350000  0.44930000  1
  H  H24  1  0.15520000  0.43610000  0.19290000  1
  H  H25  1  0.15680000  0.27300000  0.76480000  1
  H  H26  1  0.17570000  0.45520000  0.32860000  1
  H  H27  1  0.17820000  0.98810000  0.63210000  1
  H  H28  1  0.19460000  0.73520000  0.22700000  1
  H  H29  1  0.20160000  0.13210000  0.48810000  1
  H  H30  1  0.21010000  0.13750000  0.65290000  1
  H  H31  1  0.21540000  0.12730000  0.38490000  1
  H  H32  1  0.21570000  0.20710000  0.69030000  1
  H  H33  1  0.21570000  0.24460000  0.95760000  1
  H  H34  1  0.21580000  0.69290000  0.93610000  1
  H  H35  1  0.22040000  0.93980000  0.85100000  1
  H  H36  1  0.22080000  0.00660000  0.67980000  1
  H  H37  1  0.22760000  0.37270000  0.11510000  1
  H  H38  1  0.23870000  0.43360000  0.84180000  1
  H  H39  1  0.24610000  0.35280000  0.42660000  1
  H  H40  1  0.25390000  0.57340000  0.64720000  1
  H  H41  1  0.26130000  0.15820000  0.56640000  1
  H  H42  1  0.27240000  0.88490000  0.62730000  1
  H  H43  1  0.27920000  0.32020000  0.99340000  1
  H  H44  1  0.27960000  0.14900000  0.06020000  1
  H  H45  1  0.28420000  0.06390000  0.30710000  1
  H  H46  1  0.28430000  0.04240000  0.75540000  1
  H  H47  1  0.28430000  0.30970000  0.79290000  1
  H  H48  1  0.28460000  0.61510000  0.87270000  1
  H  H49  1  0.28990000  0.34710000  0.86250000  1
  H  H50  1  0.29840000  0.51190000  0.86790000  1
  H  H51  1  0.30540000  0.77300000  0.26480000  1
  H  H52  1  0.32180000  0.36790000  0.01190000  1
  H  H53  1  0.32430000  0.67140000  0.54480000  1
  H  H54  1  0.34320000  0.23520000  0.72700000  1
  H  H55  1  0.34480000  0.80710000  0.56390000  1
  H  H56  1  0.35470000  0.55070000  0.09650000  1
  H  H57  1  0.38690000  0.70710000  0.19030000  1
  H  H58  1  0.40720000  0.49340000  0.82020000  1
  H  H59  1  0.41790000  0.54240000  0.25540000  1
  H  H60  1  0.42360000  0.46650000  0.04190000  1
  H  H61  1  0.42650000  0.15180000  0.92400000  1
  H  H62  1  0.43200000  0.03350000  0.45810000  1
  H  H63  1  0.45350000  0.65080000  0.41320000  1
  H  H64  1  0.45950000  0.04480000  0.17140000  1
  H  H65  1  0.47450000  0.85280000  0.92660000  1
  H  H66  1  0.48250000  0.91320000  0.15080000  1
  H  H67  1  0.48590000  0.34180000  0.93360000  1
  H  H68  1  0.48880000  0.43980000  0.35100000  1
  H  H69  1  0.49770000  0.42400000  0.65180000  1
  H  H70  1  0.49810000  0.05070000  0.59650000  1
  H  H71  1  0.49950000  0.63750000  0.15290000  1
  H  H72  1  0.50050000  0.36250000  0.84710000  1
  H  H73  1  0.50190000  0.94930000  0.40350000  1
  H  H74  1  0.50230000  0.57600000  0.34820000  1
  H  H75  1  0.51120000  0.56020000  0.64900000  1
  H  H76  1  0.51410000  0.65820000  0.06640000  1
  H  H77  1  0.51750000  0.08680000  0.84920000  1
  H  H78  1  0.52550000  0.14720000  0.07340000  1
  H  H79  1  0.54050000  0.95520000  0.82860000  1
  H  H80  1  0.54650000  0.34920000  0.58680000  1
  H  H81  1  0.56800000  0.96650000  0.54190000  1
  H  H82  1  0.57350000  0.84820000  0.07600000  1
  H  H83  1  0.57640000  0.53350000  0.95810000  1
  H  H84  1  0.58210000  0.45760000  0.74460000  1
  H  H85  1  0.59280000  0.50660000  0.17980000  1
  H  H86  1  0.61310000  0.29290000  0.80970000  1
  H  H87  1  0.64530000  0.44930000  0.90350000  1
  H  H88  1  0.65520000  0.19290000  0.43610000  1
  H  H89  1  0.65680000  0.76480000  0.27300000  1
  H  H90  1  0.67570000  0.32860000  0.45520000  1
  H  H91  1  0.67820000  0.63210000  0.98810000  1
  H  H92  1  0.69460000  0.22700000  0.73520000  1
  H  H93  1  0.70160000  0.48810000  0.13210000  1
  H  H94  1  0.71010000  0.65290000  0.13750000  1
  H  H95  1  0.71540000  0.38490000  0.12730000  1
  H  H96  1  0.71570000  0.69030000  0.20710000  1
  H  H97  1  0.71570000  0.95760000  0.24460000  1
  H  H98  1  0.71580000  0.93610000  0.69290000  1
  H  H99  1  0.72040000  0.85100000  0.93980000  1
  H  H100  1  0.72080000  0.67980000  0.00660000  1
  H  H101  1  0.72760000  0.11510000  0.37270000  1
  H  H102  1  0.73870000  0.84180000  0.43360000  1
  H  H103  1  0.74610000  0.42660000  0.35280000  1
  H  H104  1  0.75390000  0.64720000  0.57340000  1
  H  H105  1  0.76130000  0.56640000  0.15820000  1
  H  H106  1  0.77240000  0.62730000  0.88490000  1
  H  H107  1  0.77920000  0.99340000  0.32020000  1
  H  H108  1  0.77960000  0.06020000  0.14900000  1
  H  H109  1  0.78420000  0.30710000  0.06390000  1
  H  H110  1  0.78430000  0.75540000  0.04240000  1
  H  H111  1  0.78430000  0.79290000  0.30970000  1
  H  H112  1  0.78460000  0.87270000  0.61510000  1
  H  H113  1  0.78990000  0.86250000  0.34710000  1
  H  H114  1  0.79840000  0.86790000  0.51190000  1
  H  H115  1  0.80540000  0.26480000  0.77300000  1
  H  H116  1  0.82180000  0.01190000  0.36790000  1
  H  H117  1  0.82430000  0.54480000  0.67140000  1
  H  H118  1  0.84320000  0.72700000  0.23520000  1
  H  H119  1  0.84480000  0.56390000  0.80710000  1
  H  H120  1  0.85470000  0.09650000  0.55070000  1
  H  H121  1  0.88690000  0.19030000  0.70710000  1
  H  H122  1  0.90720000  0.82020000  0.49340000  1
  H  H123  1  0.91790000  0.25540000  0.54240000  1
  H  H124  1  0.92360000  0.04190000  0.46650000  1
  H  H125  1  0.92650000  0.92400000  0.15180000  1
  H  H126  1  0.93200000  0.45810000  0.03350000  1
  H  H127  1  0.95350000  0.41320000  0.65080000  1
  H  H128  1  0.95950000  0.17140000  0.04480000  1
  H  H129  1  0.97450000  0.92660000  0.85280000  1
  H  H130  1  0.98250000  0.15080000  0.91320000  1
  H  H131  1  0.98590000  0.93360000  0.34180000  1
  H  H132  1  0.98880000  0.35100000  0.43980000  1
  H  H133  1  0.99770000  0.65180000  0.42400000  1
  H  H134  1  0.99810000  0.59650000  0.05070000  1
  H  H135  1  0.99950000  0.15290000  0.63750000  1
  C  C136  1  0.00633000  0.37050000  0.65984000  1
  C  C137  1  0.00759000  0.87316000  0.23106000  1
  C  C138  1  0.01870000  0.11456000  0.83164000  1
  C  C139  1  0.02396000  0.16675000  0.04761000  1
  C  C140  1  0.03510000  0.33164000  0.61456000  1
  C  C141  1  0.03667000  0.84016000  0.12950000  1
  C  C142  1  0.04256000  0.28175000  0.92235000  1
  C  C143  1  0.04338000  0.10312000  0.65612000  1
  C  C144  1  0.04626000  0.55114000  0.06354000  1
  C  C145  1  0.06364000  0.10817000  0.10913000  1
  C  C146  1  0.07433000  0.65310000  0.55700000  1
  C  C147  1  0.08037000  0.53590000  0.67946000  1
  C  C148  1  0.08117000  0.21800000  0.99070000  1
  C  C149  1  0.08716000  0.51877000  0.01271000  1
  C  C150  1  0.09066000  0.81779000  0.25209000  1
  C  C151  1  0.11181000  0.26894000  0.62684000  1
  C  C152  1  0.11662000  0.71039000  0.49601000  1
  C  C153  1  0.11864000  0.98123000  0.48729000  1
  C  C154  1  0.12555000  0.28898000  0.72564000  1
  C  C155  1  0.12599000  0.60102000  0.61422000  1
  C  C156  1  0.13623000  0.12947000  0.52287000  1
  C  C157  1  0.13679000  0.45776000  0.14666000  1
  C  C158  1  0.13980000  0.04795000  0.46885000  1
  C  C159  1  0.14017000  0.77436000  0.21102000  1
  C  C160  1  0.14686000  0.10314000  0.60314000  1
  C  C161  1  0.15660000  0.45205000  0.03115000  1
  C  C162  1  0.15877000  0.10102000  0.11422000  1
  C  C163  1  0.16054000  0.24791000  0.68221000  1
  C  C164  1  0.16094000  0.94886000  0.43646000  1
  C  C165  1  0.17698000  0.21039000  0.99601000  1
  C  C166  1  0.18187000  0.41917000  0.10009000  1
  C  C167  1  0.19738000  0.15612000  0.60312000  1
  C  C168  1  0.20113000  0.08083000  0.39991000  1
  C  C169  1  0.20427000  0.03590000  0.17946000  1
  C  C170  1  0.21013000  0.71800000  0.49070000  1
  C  C171  1  0.21143000  0.02287000  0.62947000  1
  C  C172  1  0.21557000  0.15310000  0.05700000  1
  C  C173  1  0.21906000  0.60817000  0.60913000  1
  C  C174  1  0.23832000  0.45239000  0.33325000  1
  C  C175  1  0.24121000  0.04224000  0.35334000  1
  C  C176  1  0.24666000  0.57765000  0.21825000  1
  C  C177  1  0.25334000  0.78175000  0.42235000  1
  C  C178  1  0.25879000  0.64666000  0.95776000  1
  C  C179  1  0.26168000  0.66675000  0.54761000  1
  C  C180  1  0.28094000  0.39087000  0.39183000  1
  C  C181  1  0.28443000  0.94300000  0.84690000  1
  C  C182  1  0.28857000  0.37053000  0.97713000  1
  C  C183  1  0.28987000  0.50930000  0.28200000  1
  C  C184  1  0.29573000  0.82054000  0.96410000  1
  C  C185  1  0.29887000  0.60009000  0.91917000  1
  C  C186  1  0.30262000  0.39688000  0.84388000  1
  C  C187  1  0.31813000  0.89991000  0.58083000  1
  C  C188  1  0.32302000  0.00399000  0.78961000  1
  C  C189  1  0.33906000  0.56354000  0.05114000  1
  C  C190  1  0.33946000  0.31779000  0.75209000  1
  C  C191  1  0.34123000  0.88578000  0.89898000  1
  C  C192  1  0.34340000  0.96885000  0.54795000  1
  C  C193  1  0.35314000  0.39686000  0.89686000  1
  C  C194  1  0.35983000  0.78898000  0.22564000  1
  C  C195  1  0.36020000  0.53115000  0.95205000  1
  C  C196  1  0.36321000  0.85334000  0.54224000  1
  C  C197  1  0.36377000  0.47713000  0.87053000  1
  C  C198  1  0.37401000  0.38578000  0.39898000  1
  C  C199  1  0.37445000  0.27436000  0.71102000  1
  C  C200  1  0.38136000  0.51271000  0.01877000  1
  C  C201  1  0.38338000  0.50399000  0.28961000  1
  C  C202  1  0.38819000  0.37316000  0.73106000  1
  C  C203  1  0.40934000  0.74791000  0.18221000  1
  C  C204  1  0.41284000  0.98729000  0.48123000  1
  C  C205  1  0.41883000  0.00930000  0.78200000  1
  C  C206  1  0.41963000  0.32054000  0.46410000  1
  C  C207  1  0.42567000  0.44300000  0.34690000  1
  C  C208  1  0.43636000  0.89087000  0.89183000  1
  C  C209  1  0.45374000  0.93646000  0.44886000  1
  C  C210  1  0.45662000  0.34388000  0.89688000  1
  C  C211  1  0.45744000  0.07765000  0.71825000  1
  C  C212  1  0.46333000  0.87050000  0.15984000  1
  C  C213  1  0.46490000  0.38544000  0.66836000  1
  C  C214  1  0.47604000  0.95239000  0.83325000  1
  C  C215  1  0.48130000  0.16836000  0.88544000  1
  C  C216  1  0.49241000  0.76894000  0.12684000  1
  C  C217  1  0.49367000  0.34016000  0.62950000  1
  C  C218  1  0.50633000  0.65984000  0.37050000  1
  C  C219  1  0.50759000  0.23106000  0.87316000  1
  C  C220  1  0.51870000  0.83164000  0.11456000  1
  C  C221  1  0.52396000  0.04761000  0.16675000  1
  C  C222  1  0.53510000  0.61456000  0.33164000  1
  C  C223  1  0.53667000  0.12950000  0.84016000  1
  C  C224  1  0.54256000  0.92235000  0.28175000  1
  C  C225  1  0.54338000  0.65612000  0.10312000  1
  C  C226  1  0.54626000  0.06354000  0.55114000  1
  C  C227  1  0.56364000  0.10913000  0.10817000  1
  C  C228  1  0.57433000  0.55700000  0.65310000  1
  C  C229  1  0.58037000  0.67946000  0.53590000  1
  C  C230  1  0.58117000  0.99070000  0.21800000  1
  C  C231  1  0.58716000  0.01271000  0.51877000  1
  C  C232  1  0.59066000  0.25209000  0.81779000  1
  C  C233  1  0.61181000  0.62684000  0.26894000  1
  C  C234  1  0.61662000  0.49601000  0.71039000  1
  C  C235  1  0.61864000  0.48729000  0.98123000  1
  C  C236  1  0.62555000  0.72564000  0.28898000  1
  C  C237  1  0.62599000  0.61422000  0.60102000  1
  C  C238  1  0.63623000  0.52287000  0.12947000  1
  C  C239  1  0.63679000  0.14666000  0.45776000  1
  C  C240  1  0.63980000  0.46885000  0.04795000  1
  C  C241  1  0.64017000  0.21102000  0.77436000  1
  C  C242  1  0.64686000  0.60314000  0.10314000  1
  C  C243  1  0.65660000  0.03115000  0.45205000  1
  C  C244  1  0.65877000  0.11422000  0.10102000  1
  C  C245  1  0.66054000  0.68221000  0.24791000  1
  C  C246  1  0.66094000  0.43646000  0.94886000  1
  C  C247  1  0.67698000  0.99601000  0.21039000  1
  C  C248  1  0.68187000  0.10009000  0.41917000  1
  C  C249  1  0.69738000  0.60312000  0.15612000  1
  C  C250  1  0.70113000  0.39991000  0.08083000  1
  C  C251  1  0.70427000  0.17946000  0.03590000  1
  C  C252  1  0.71013000  0.49070000  0.71800000  1
  C  C253  1  0.71143000  0.62947000  0.02287000  1
  C  C254  1  0.71557000  0.05700000  0.15310000  1
  C  C255  1  0.71906000  0.60913000  0.60817000  1
  C  C256  1  0.73832000  0.33325000  0.45239000  1
  C  C257  1  0.74121000  0.35334000  0.04224000  1
  C  C258  1  0.74666000  0.21825000  0.57765000  1
  C  C259  1  0.75334000  0.42235000  0.78175000  1
  C  C260  1  0.75879000  0.95776000  0.64666000  1
  C  C261  1  0.76168000  0.54761000  0.66675000  1
  C  C262  1  0.78094000  0.39183000  0.39087000  1
  C  C263  1  0.78443000  0.84690000  0.94300000  1
  C  C264  1  0.78857000  0.97713000  0.37053000  1
  C  C265  1  0.78987000  0.28200000  0.50930000  1
  C  C266  1  0.79573000  0.96410000  0.82054000  1
  C  C267  1  0.79887000  0.91917000  0.60009000  1
  C  C268  1  0.80262000  0.84388000  0.39688000  1
  C  C269  1  0.81813000  0.58083000  0.89991000  1
  C  C270  1  0.82302000  0.78961000  0.00399000  1
  C  C271  1  0.83906000  0.05114000  0.56354000  1
  C  C272  1  0.83946000  0.75209000  0.31779000  1
  C  C273  1  0.84123000  0.89898000  0.88578000  1
  C  C274  1  0.84340000  0.54795000  0.96885000  1
  C  C275  1  0.85314000  0.89686000  0.39686000  1
  C  C276  1  0.85983000  0.22564000  0.78898000  1
  C  C277  1  0.86020000  0.95205000  0.53115000  1
  C  C278  1  0.86321000  0.54224000  0.85334000  1
  C  C279  1  0.86377000  0.87053000  0.47713000  1
  C  C280  1  0.87401000  0.39898000  0.38578000  1
  C  C281  1  0.87445000  0.71102000  0.27436000  1
  C  C282  1  0.88136000  0.01877000  0.51271000  1
  C  C283  1  0.88338000  0.28961000  0.50399000  1
  C  C284  1  0.88819000  0.73106000  0.37316000  1
  C  C285  1  0.90934000  0.18221000  0.74791000  1
  C  C286  1  0.91284000  0.48123000  0.98729000  1
  C  C287  1  0.91883000  0.78200000  0.00930000  1
  C  C288  1  0.91963000  0.46410000  0.32054000  1
  C  C289  1  0.92567000  0.34690000  0.44300000  1
  C  C290  1  0.93636000  0.89183000  0.89087000  1
  C  C291  1  0.95374000  0.44886000  0.93646000  1
  C  C292  1  0.95662000  0.89688000  0.34388000  1
  C  C293  1  0.95744000  0.71825000  0.07765000  1
  C  C294  1  0.96333000  0.15984000  0.87050000  1
  C  C295  1  0.96490000  0.66836000  0.38544000  1
  C  C296  1  0.97604000  0.83325000  0.95239000  1
  C  C297  1  0.98130000  0.88544000  0.16836000  1
  C  C298  1  0.99241000  0.12684000  0.76894000  1
  C  C299  1  0.99367000  0.62950000  0.34016000  1
  N  N300  1  0.04978000  0.35022000  0.71516000  1
  N  N301  1  0.07054000  0.52216000  0.13038000  1
  N  N302  1  0.11516000  0.78484000  0.14978000  1
  N  N303  1  0.22308000  0.97784000  0.36962000  1
  N  N304  1  0.27692000  0.63038000  0.02216000  1
  N  N305  1  0.38484000  0.85022000  0.21516000  1
  N  N306  1  0.42946000  0.86962000  0.47784000  1
  N  N307  1  0.45022000  0.28484000  0.64978000  1
  N  N308  1  0.54978000  0.71516000  0.35022000  1
  N  N309  1  0.57054000  0.13038000  0.52216000  1
  N  N310  1  0.61516000  0.14978000  0.78484000  1
  N  N311  1  0.72308000  0.36962000  0.97784000  1
  N  N312  1  0.77692000  0.02216000  0.63038000  1
  N  N313  1  0.88484000  0.21516000  0.85022000  1
  N  N314  1  0.92946000  0.47784000  0.86962000  1
  N  N315  1  0.95022000  0.64978000  0.28484000  1
  O  O316  1  0.00559000  0.46596000  0.31720000  1
  O  O317  1  0.04639000  0.70735000  0.08059000  1
  O  O318  1  0.05328000  0.08347000  0.73119000  1
  O  O319  1  0.09466000  0.07734000  0.52168000  1
  O  O320  1  0.10041000  0.32268000  0.87100000  1
  O  O321  1  0.13094000  0.48625000  0.72683000  1
  O  O322  1  0.13206000  0.23119000  0.58347000  1
  O  O323  1  0.15598000  0.98625000  0.22683000  1
  O  O324  1  0.16567000  0.58059000  0.20735000  1
  O  O325  1  0.19368000  0.42266000  0.97832000  1
  O  O326  1  0.20591000  0.82268000  0.37100000  1
  O  O327  1  0.21125000  0.81720000  0.96596000  1
  O  O328  1  0.28875000  0.03404000  0.18280000  1
  O  O329  1  0.29409000  0.62900000  0.17732000  1
  O  O330  1  0.30632000  0.02168000  0.57734000  1
  O  O331  1  0.33433000  0.79265000  0.41941000  1
  O  O332  1  0.34402000  0.77317000  0.01375000  1
  O  O333  1  0.36794000  0.41653000  0.76881000  1
  O  O334  1  0.36906000  0.27317000  0.51375000  1
  O  O335  1  0.39959000  0.12900000  0.67732000  1
  O  O336  1  0.40534000  0.47832000  0.92266000  1
  O  O337  1  0.44672000  0.26881000  0.91653000  1
  O  O338  1  0.45361000  0.91941000  0.29265000  1
  O  O339  1  0.49441000  0.68280000  0.53404000  1
  O  O340  1  0.50559000  0.31720000  0.46596000  1
  O  O341  1  0.54639000  0.08059000  0.70735000  1
  O  O342  1  0.55328000  0.73119000  0.08347000  1
  O  O343  1  0.59466000  0.52168000  0.07734000  1
  O  O344  1  0.60041000  0.87100000  0.32268000  1
  O  O345  1  0.63094000  0.72683000  0.48625000  1
  O  O346  1  0.63206000  0.58347000  0.23119000  1
  O  O347  1  0.65598000  0.22683000  0.98625000  1
  O  O348  1  0.66567000  0.20735000  0.58059000  1
  O  O349  1  0.69368000  0.97832000  0.42266000  1
  O  O350  1  0.70591000  0.37100000  0.82268000  1
  O  O351  1  0.71125000  0.96596000  0.81720000  1
  O  O352  1  0.78875000  0.18280000  0.03404000  1
  O  O353  1  0.79409000  0.17732000  0.62900000  1
  O  O354  1  0.80632000  0.57734000  0.02168000  1
  O  O355  1  0.83433000  0.41941000  0.79265000  1
  O  O356  1  0.84402000  0.01375000  0.77317000  1
  O  O357  1  0.86794000  0.76881000  0.41653000  1
  O  O358  1  0.86906000  0.51375000  0.27317000  1
  O  O359  1  0.89959000  0.67732000  0.12900000  1
  O  O360  1  0.90534000  0.92266000  0.47832000  1
  O  O361  1  0.94672000  0.91653000  0.26881000  1
  O  O362  1  0.95361000  0.29265000  0.91941000  1
  O  O363  1  0.99441000  0.53404000  0.68280000  1
