# generated using pymatgen
data_Mn3H39C42N8O9
_symmetry_space_group_name_H-M   'P 1'
_cell_length_a   17.81430000
_cell_length_b   29.94006382
_cell_length_c   29.94006382
_cell_angle_alpha   84.92234313
_cell_angle_beta   72.69252902
_cell_angle_gamma   72.69252902
_symmetry_Int_Tables_number   1
_chemical_formula_structural   Mn3H39C42N8O9
_chemical_formula_sum   'Mn24 H312 C336 N64 O72'
_cell_volume   14555.53188466
_cell_formula_units_Z   8
loop_
 _symmetry_equiv_pos_site_id
 _symmetry_equiv_pos_as_xyz
  1  'x, y, z'
loop_
 _atom_site_type_symbol
 _atom_site_label
 _atom_site_symmetry_multiplicity
 _atom_site_fract_x
 _atom_site_fract_y
 _atom_site_fract_z
 _atom_site_occupancy
  C  C0  1  0.97703000  0.60659000  0.38895000  1
  C  C1  1  0.02743000  0.10659000  0.88895000  1
  C  C2  1  0.92636000  0.90228000  0.07520000  1
  C  C3  1  0.09616000  0.40228000  0.57520000  1
  C  C4  1  0.88389000  0.55421000  0.41779000  1
  C  C5  1  0.14411000  0.05421000  0.91779000  1
  C  C6  1  0.73705000  0.49654000  0.45396000  1
  C  C7  1  0.31245000  0.99654000  0.95396000  1
  C  C8  1  0.13032000  0.93960000  0.00376000  1
  C  C9  1  0.92632000  0.43960000  0.50376000  1
  C  C10  1  0.20020000  0.90530000  0.02330000  1
  C  C11  1  0.87120000  0.40530000  0.52330000  1
  C  C12  1  0.44222000  0.94998000  0.96598000  1
  C  C13  1  0.64182000  0.44998000  0.46598000  1
  C  C14  1  0.72043000  0.45368000  0.44466000  1
  C  C15  1  0.38123000  0.95368000  0.94466000  1
  C  C16  1  0.12508000  0.91679000  0.96265000  1
  C  C17  1  0.99548000  0.41679000  0.46265000  1
  C  C18  1  0.20526000  0.44950000  0.42678000  1
  C  C19  1  0.91846000  0.94950000  0.92678000  1
  C  C20  1  0.22020000  0.51073000  0.36347000  1
  C  C21  1  0.90560000  0.01073000  0.86347000  1
  C  C22  1  0.42194000  0.46076000  0.41276000  1
  C  C23  1  0.70454000  0.96076000  0.91276000  1
  C  C24  1  0.17001000  0.47921000  0.39117000  1
  C  C25  1  0.95961000  0.97921000  0.89117000  1
  C  C26  1  0.51160000  0.91000000  0.95840000  1
  C  C27  1  0.62000000  0.41000000  0.45840000  1
  C  C28  1  0.80363000  0.82943000  0.02431000  1
  C  C29  1  0.34263000  0.32943000  0.52431000  1
  C  C30  1  0.76047000  0.79867000  0.05099000  1
  C  C31  1  0.38987000  0.29867000  0.55099000  1
  C  C32  1  0.48880000  0.45990000  0.37470000  1
  C  C33  1  0.67660000  0.95990000  0.87470000  1
  C  C34  1  0.78046000  0.41838000  0.41430000  1
  C  C35  1  0.38686000  0.91838000  0.91430000  1
  C  C36  1  0.88780000  0.81036000  0.00024000  1
  C  C37  1  0.30160000  0.31036000  0.50024000  1
  C  C38  1  0.93805000  0.83854000  0.96988000  1
  C  C39  1  0.25353000  0.33854000  0.46988000  1
  C  C40  1  0.51258000  0.87382000  0.93282000  1
  C  C41  1  0.68078000  0.37382000  0.43282000  1
  C  C42  1  0.79880000  0.75188000  0.05332000  1
  C  C43  1  0.39600000  0.25188000  0.55332000  1
  C  C44  1  0.14788000  0.55332000  0.24812000  1
  C  C45  1  0.05068000  0.05332000  0.74812000  1
  C  C46  1  0.08961000  0.52962000  0.26736000  1
  C  C47  1  0.11341000  0.02962000  0.76736000  1
  C  C48  1  0.76574000  0.88546000  0.90546000  1
  C  C49  1  0.44334000  0.38546000  0.40546000  1
  C  C50  1  0.45373000  0.87718000  0.91056000  1
  C  C51  1  0.75853000  0.37718000  0.41056000  1
  C  C52  1  0.54043000  0.41577000  0.35497000  1
  C  C53  1  0.68883000  0.91577000  0.85497000  1
  C  C54  1  0.92453000  0.76169000  0.00345000  1
  C  C55  1  0.31033000  0.26169000  0.50345000  1
  C  C56  1  0.88077000  0.73264000  0.02962000  1
  C  C57  1  0.35697000  0.23264000  0.52962000  1
  C  C58  1  0.66610000  0.43780000  0.31700000  1
  C  C59  1  0.57910000  0.93780000  0.81700000  1
  C  C60  1  0.18854000  0.55099000  0.20133000  1
  C  C61  1  0.05914000  0.05099000  0.70133000  1
  C  C62  1  0.05812000  0.40769000  0.34387000  1
  C  C63  1  0.19032000  0.90769000  0.84387000  1
  C  C64  1  0.51078000  0.38292000  0.36612000  1
  C  C65  1  0.74018000  0.88292000  0.86612000  1
  C  C66  1  0.07202000  0.50345000  0.23831000  1
  C  C67  1  0.18622000  0.00345000  0.73831000  1
  C  C68  1  0.25485000  0.80554000  0.93296000  1
  C  C69  1  0.00665000  0.30554000  0.43296000  1
  C  C70  1  0.61714000  0.41236000  0.31416000  1
  C  C71  1  0.65634000  0.91236000  0.81416000  1
  C  C72  1  0.91638000  0.61105000  0.10659000  1
  C  C73  1  0.36598000  0.11105000  0.60659000  1
  C  C74  1  0.31960000  0.76870000  0.93970000  1
  C  C75  1  0.97200000  0.26870000  0.43970000  1
  C  C76  1  0.74397000  0.43078000  0.27588000  1
  C  C77  1  0.54937000  0.93078000  0.77588000  1
  C  C78  1  0.81982000  0.41547000  0.28329000  1
  C  C79  1  0.48142000  0.91547000  0.78329000  1
  C  C80  1  0.17206000  0.52431000  0.17057000  1
  C  C81  1  0.13306000  0.02431000  0.67057000  1
  C  C82  1  0.11196000  0.50024000  0.18964000  1
  C  C83  1  0.19816000  0.00024000  0.68964000  1
  C  C84  1  0.12588000  0.37986000  0.30658000  1
  C  C85  1  0.18768000  0.87986000  0.80658000  1
  C  C86  1  0.99844000  0.57520000  0.09772000  1
  C  C87  1  0.32864000  0.07520000  0.59772000  1
  C  C88  1  0.74070000  0.43970000  0.23130000  1
  C  C89  1  0.58830000  0.93970000  0.73130000  1
  C  C90  1  0.20106000  0.75459000  0.91069000  1
  C  C91  1  0.13366000  0.25459000  0.41069000  1
  C  C92  1  0.19661000  0.34810000  0.31508000  1
  C  C93  1  0.14021000  0.84810000  0.81508000  1
  C  C94  1  0.88825000  0.41069000  0.24541000  1
  C  C95  1  0.45565000  0.91069000  0.74541000  1
  C  C96  1  0.32525000  0.72412000  0.93078000  1
  C  C97  1  0.01985000  0.22412000  0.43078000  1
  C  C98  1  0.76907000  0.63653000  0.01073000  1
  C  C99  1  0.58367000  0.13653000  0.51073000  1
  C  C100  1  0.11777000  0.38473000  0.26093000  1
  C  C101  1  0.23657000  0.88473000  0.76093000  1
  C  C102  1  0.06190000  0.58221000  0.05421000  1
  C  C103  1  0.30168000  0.08221000  0.55421000  1
  C  C104  1  0.96427000  0.77572000  0.85894000  1
  C  C105  1  0.40107000  0.27572000  0.35894000  1
  C  C106  1  0.26471000  0.71671000  0.91547000  1
  C  C107  1  0.10311000  0.21671000  0.41547000  1
  C  C108  1  0.09207000  0.46988000  0.16146000  1
  C  C109  1  0.27659000  0.96988000  0.66146000  1
  C  C110  1  0.81219000  0.43296000  0.19446000  1
  C  C111  1  0.56039000  0.93296000  0.69446000  1
  C  C112  1  0.99750000  0.73907000  0.88473000  1
  C  C113  1  0.37870000  0.23907000  0.38473000  1
  C  C114  1  0.39610000  0.68300000  0.93780000  1
  C  C115  1  0.98310000  0.18300000  0.43780000  1
  C  C116  1  0.77650000  0.52330000  0.09470000  1
  C  C117  1  0.60550000  0.02330000  0.59470000  1
  C  C118  1  0.25608000  0.32236000  0.27748000  1
  C  C119  1  0.14408000  0.82236000  0.77748000  1
  C  C120  1  0.47050000  0.68584000  0.91236000  1
  C  C121  1  0.93130000  0.18584000  0.41236000  1
  C  C122  1  0.92558000  0.76729000  0.82755000  1
  C  C123  1  0.47958000  0.26729000  0.32755000  1
  C  C124  1  0.85078000  0.60883000  0.97921000  1
  C  C125  1  0.56118000  0.10883000  0.47921000  1
  C  C126  1  0.55130000  0.62530000  0.95990000  1
  C  C127  1  0.86350000  0.12530000  0.45990000  1
  C  C128  1  0.17679000  0.35894000  0.22428000  1
  C  C129  1  0.23999000  0.85894000  0.72428000  1
  C  C130  1  0.99426000  0.69342000  0.87986000  1
  C  C131  1  0.43246000  0.19342000  0.37986000  1
  C  C132  1  0.86592000  0.50376000  0.06040000  1
  C  C133  1  0.56992000  0.00376000  0.56040000  1
  C  C134  1  0.03419000  0.65613000  0.90769000  1
  C  C135  1  0.40199000  0.15613000  0.40769000  1
  C  C136  1  0.54380000  0.64503000  0.91577000  1
  C  C137  1  0.89540000  0.14503000  0.41577000  1
  C  C138  1  0.24687000  0.32755000  0.23271000  1
  C  C139  1  0.19287000  0.82755000  0.73271000  1
  C  C140  1  0.55460000  0.43282000  0.12618000  1
  C  C141  1  0.88640000  0.93282000  0.62618000  1
  C  C142  1  0.53000000  0.45840000  0.09000000  1
  C  C143  1  0.92160000  0.95840000  0.59000000  1
  C  C144  1  0.61730000  0.58724000  0.96076000  1
  C  C145  1  0.83470000  0.08724000  0.46076000  1
  C  C146  1  0.91227000  0.46265000  0.08321000  1
  C  C147  1  0.54187000  0.96265000  0.58321000  1
  C  C148  1  0.92156000  0.72252000  0.82236000  1
  C  C149  1  0.53356000  0.22252000  0.32236000  1
  C  C150  1  0.26641000  0.54604000  0.99654000  1
  C  C151  1  0.19101000  0.04604000  0.49654000  1
  C  C152  1  0.63571000  0.41056000  0.12282000  1
  C  C153  1  0.83091000  0.91056000  0.62282000  1
  C  C154  1  0.95529000  0.68492000  0.84810000  1
  C  C155  1  0.51169000  0.18492000  0.34810000  1
  C  C156  1  0.84524000  0.57322000  0.94950000  1
  C  C157  1  0.63204000  0.07322000  0.44950000  1
  C  C158  1  0.32880000  0.40546000  0.11454000  1
  C  C159  1  0.15120000  0.90546000  0.61454000  1
  C  C160  1  0.60630000  0.63388000  0.88292000  1
  C  C161  1  0.87690000  0.13388000  0.38292000  1
  C  C162  1  0.59180000  0.46598000  0.05002000  1
  C  C163  1  0.89220000  0.96598000  0.55002000  1
  C  C164  1  0.32589000  0.55534000  0.95368000  1
  C  C165  1  0.16509000  0.05534000  0.45368000  1
  C  C166  1  0.30116000  0.58570000  0.91838000  1
  C  C167  1  0.19476000  0.08570000  0.41838000  1
  C  C168  1  0.69884000  0.41430000  0.08162000  1
  C  C169  1  0.80524000  0.91430000  0.58162000  1
  C  C170  1  0.67411000  0.44466000  0.04632000  1
  C  C171  1  0.83491000  0.94466000  0.54632000  1
  C  C172  1  0.40820000  0.53402000  0.94998000  1
  C  C173  1  0.10780000  0.03402000  0.44998000  1
  C  C174  1  0.39370000  0.36612000  0.11708000  1
  C  C175  1  0.12310000  0.86612000  0.61708000  1
  C  C176  1  0.67120000  0.59454000  0.88546000  1
  C  C177  1  0.84880000  0.09454000  0.38546000  1
  C  C178  1  0.15476000  0.42678000  0.05050000  1
  C  C179  1  0.36796000  0.92678000  0.55050000  1
  C  C180  1  0.04471000  0.31508000  0.15190000  1
  C  C181  1  0.48831000  0.81508000  0.65190000  1
  C  C182  1  0.36429000  0.58944000  0.87718000  1
  C  C183  1  0.16909000  0.08944000  0.37718000  1
  C  C184  1  0.73359000  0.45396000  0.00346000  1
  C  C185  1  0.80899000  0.95396000  0.50346000  1
  C  C186  1  0.07844000  0.27748000  0.17764000  1
  C  C187  1  0.46644000  0.77748000  0.67764000  1
  C  C188  1  0.08773000  0.53735000  0.91679000  1
  C  C189  1  0.45813000  0.03735000  0.41679000  1
  C  C190  1  0.38270000  0.41276000  0.03924000  1
  C  C191  1  0.16530000  0.91276000  0.53924000  1
  C  C192  1  0.47000000  0.54160000  0.91000000  1
  C  C193  1  0.07840000  0.04160000  0.41000000  1
  C  C194  1  0.44540000  0.56718000  0.87382000  1
  C  C195  1  0.11360000  0.06718000  0.37382000  1
  C  C196  1  0.75313000  0.67245000  0.76729000  1
  C  C197  1  0.80713000  0.17245000  0.26729000  1
  C  C198  1  0.45620000  0.35497000  0.08423000  1
  C  C199  1  0.10460000  0.85497000  0.58423000  1
  C  C200  1  0.96581000  0.34387000  0.09231000  1
  C  C201  1  0.59801000  0.84387000  0.59231000  1
  C  C202  1  0.13408000  0.49624000  0.93960000  1
  C  C203  1  0.43008000  0.99624000  0.43960000  1
  C  C204  1  0.00574000  0.30658000  0.12014000  1
  C  C205  1  0.56754000  0.80658000  0.62014000  1
  C  C206  1  0.82321000  0.64106000  0.77572000  1
  C  C207  1  0.76001000  0.14106000  0.27572000  1
  C  C208  1  0.44870000  0.37470000  0.04010000  1
  C  C209  1  0.13650000  0.87470000  0.54010000  1
  C  C210  1  0.14922000  0.39117000  0.02079000  1
  C  C211  1  0.43882000  0.89117000  0.52079000  1
  C  C212  1  0.07442000  0.23271000  0.17245000  1
  C  C213  1  0.52042000  0.73271000  0.67245000  1
  C  C214  1  0.52950000  0.31416000  0.08764000  1
  C  C215  1  0.06870000  0.81416000  0.58764000  1
  C  C216  1  0.74392000  0.67764000  0.72252000  1
  C  C217  1  0.85592000  0.17764000  0.22252000  1
  C  C218  1  0.22350000  0.47670000  0.90530000  1
  C  C219  1  0.39450000  0.97670000  0.40530000  1
  C  C220  1  0.60390000  0.31700000  0.06220000  1
  C  C221  1  0.01690000  0.81700000  0.56220000  1
  C  C222  1  0.00250000  0.26093000  0.11527000  1
  C  C223  1  0.62130000  0.76093000  0.61527000  1
  C  C224  1  0.18781000  0.56704000  0.80554000  1
  C  C225  1  0.43961000  0.06704000  0.30554000  1
  C  C226  1  0.90793000  0.53012000  0.83854000  1
  C  C227  1  0.72341000  0.03012000  0.33854000  1
  C  C228  1  0.73529000  0.28329000  0.08453000  1
  C  C229  1  0.89689000  0.78329000  0.58453000  1
  C  C230  1  0.03573000  0.22428000  0.14106000  1
  C  C231  1  0.59893000  0.72428000  0.64106000  1
  C  C232  1  0.93810000  0.41779000  0.94579000  1
  C  C233  1  0.69832000  0.91779000  0.44579000  1
  C  C234  1  0.88223000  0.61527000  0.73907000  1
  C  C235  1  0.76343000  0.11527000  0.23907000  1
  C  C236  1  0.23093000  0.36347000  0.98927000  1
  C  C237  1  0.41633000  0.86347000  0.48927000  1
  C  C238  1  0.67475000  0.27588000  0.06922000  1
  C  C239  1  0.98015000  0.77588000  0.56922000  1
  C  C240  1  0.11175000  0.58931000  0.75459000  1
  C  C241  1  0.54435000  0.08931000  0.25459000  1
  C  C242  1  0.80339000  0.65190000  0.68492000  1
  C  C243  1  0.85979000  0.15190000  0.18492000  1
  C  C244  1  0.79894000  0.24541000  0.08931000  1
  C  C245  1  0.86634000  0.74541000  0.58931000  1
  C  C246  1  0.25930000  0.56030000  0.76870000  1
  C  C247  1  0.41170000  0.06030000  0.26870000  1
  C  C248  1  0.00156000  0.42480000  0.90228000  1
  C  C249  1  0.67136000  0.92480000  0.40228000  1
  C  C250  1  0.87412000  0.62014000  0.69342000  1
  C  C251  1  0.81232000  0.12014000  0.19342000  1
  C  C252  1  0.88804000  0.49976000  0.81036000  1
  C  C253  1  0.80184000  0.99976000  0.31036000  1
  C  C254  1  0.82794000  0.47569000  0.82943000  1
  C  C255  1  0.86694000  0.97569000  0.32943000  1
  C  C256  1  0.18018000  0.58453000  0.71671000  1
  C  C257  1  0.51858000  0.08453000  0.21671000  1
  C  C258  1  0.25603000  0.56922000  0.72412000  1
  C  C259  1  0.45063000  0.06922000  0.22412000  1
  C  C260  1  0.68040000  0.23130000  0.06030000  1
  C  C261  1  0.02800000  0.73130000  0.56030000  1
  C  C262  1  0.08362000  0.38895000  0.89341000  1
  C  C263  1  0.63402000  0.88895000  0.39341000  1
  C  C264  1  0.38286000  0.58764000  0.68584000  1
  C  C265  1  0.34366000  0.08764000  0.18584000  1
  C  C266  1  0.74515000  0.19446000  0.06704000  1
  C  C267  1  0.99335000  0.69446000  0.56704000  1
  C  C268  1  0.92798000  0.49655000  0.76169000  1
  C  C269  1  0.81378000  0.99655000  0.26169000  1
  C  C270  1  0.48922000  0.61708000  0.63388000  1
  C  C271  1  0.25982000  0.11708000  0.13388000  1
  C  C272  1  0.94188000  0.59231000  0.65613000  1
  C  C273  1  0.80968000  0.09231000  0.15613000  1
  C  C274  1  0.81146000  0.44901000  0.79867000  1
  C  C275  1  0.94086000  0.94901000  0.29867000  1
  C  C276  1  0.33390000  0.56220000  0.68300000  1
  C  C277  1  0.42090000  0.06220000  0.18300000  1
  C  C278  1  0.11923000  0.26736000  0.97038000  1
  C  C279  1  0.64303000  0.76736000  0.47038000  1
  C  C280  1  0.07547000  0.23831000  0.99655000  1
  C  C281  1  0.68967000  0.73831000  0.49655000  1
  C  C282  1  0.45957000  0.58423000  0.64503000  1
  C  C283  1  0.31117000  0.08423000  0.14503000  1
  C  C284  1  0.54627000  0.12282000  0.08944000  1
  C  C285  1  0.24147000  0.62282000  0.58944000  1
  C  C286  1  0.23426000  0.11454000  0.09454000  1
  C  C287  1  0.55666000  0.61454000  0.59454000  1
  C  C288  1  0.91039000  0.47038000  0.73264000  1
  C  C289  1  0.88659000  0.97038000  0.23264000  1
  C  C290  1  0.85212000  0.44668000  0.75188000  1
  C  C291  1  0.94932000  0.94668000  0.25188000  1
  C  C292  1  0.20120000  0.24812000  0.94668000  1
  C  C293  1  0.60400000  0.74812000  0.44668000  1
  C  C294  1  0.48742000  0.12618000  0.06718000  1
  C  C295  1  0.31922000  0.62618000  0.56718000  1
  C  C296  1  0.06195000  0.16146000  0.03012000  1
  C  C297  1  0.74647000  0.66146000  0.53012000  1
  C  C298  1  0.11220000  0.18964000  0.99976000  1
  C  C299  1  0.69840000  0.68964000  0.49976000  1
  C  C300  1  0.21954000  0.58162000  0.58570000  1
  C  C301  1  0.61314000  0.08162000  0.08570000  1
  C  C302  1  0.51120000  0.54010000  0.62530000  1
  C  C303  1  0.32340000  0.04010000  0.12530000  1
  C  C304  1  0.23953000  0.20133000  0.94901000  1
  C  C305  1  0.61013000  0.70133000  0.44901000  1
  C  C306  1  0.19637000  0.17057000  0.97569000  1
  C  C307  1  0.65737000  0.67057000  0.47569000  1
  C  C308  1  0.48840000  0.09000000  0.04160000  1
  C  C309  1  0.38000000  0.59000000  0.54160000  1
  C  C310  1  0.82999000  0.52079000  0.60883000  1
  C  C311  1  0.04039000  0.02079000  0.10883000  1
  C  C312  1  0.57806000  0.53924000  0.58724000  1
  C  C313  1  0.29546000  0.03924000  0.08724000  1
  C  C314  1  0.77980000  0.48927000  0.63653000  1
  C  C315  1  0.09440000  0.98927000  0.13653000  1
  C  C316  1  0.79474000  0.55050000  0.57322000  1
  C  C317  1  0.08154000  0.05050000  0.07322000  1
  C  C318  1  0.87492000  0.08321000  0.03735000  1
  C  C319  1  0.00452000  0.58321000  0.53735000  1
  C  C320  1  0.27957000  0.54632000  0.55534000  1
  C  C321  1  0.61877000  0.04632000  0.05534000  1
  C  C322  1  0.55778000  0.05002000  0.03402000  1
  C  C323  1  0.35818000  0.55002000  0.53402000  1
  C  C324  1  0.79980000  0.09470000  0.97670000  1
  C  C325  1  0.12880000  0.59470000  0.47670000  1
  C  C326  1  0.86968000  0.06040000  0.99624000  1
  C  C327  1  0.07368000  0.56040000  0.49624000  1
  C  C328  1  0.26295000  0.50346000  0.54604000  1
  C  C329  1  0.68755000  0.00346000  0.04604000  1
  C  C330  1  0.11611000  0.44579000  0.58221000  1
  C  C331  1  0.85589000  0.94579000  0.08221000  1
  C  C332  1  0.07364000  0.09772000  0.92480000  1
  C  C333  1  0.90384000  0.59772000  0.42480000  1
  C  C334  1  0.02297000  0.39341000  0.61105000  1
  C  C335  1  0.97257000  0.89341000  0.11105000  1
  H  H336  1  0.07710000  0.94620000  0.02840000  1
  H  H337  1  0.94830000  0.44620000  0.52840000  1
  H  H338  1  0.96500000  0.61360000  0.35880000  1
  H  H339  1  0.06260000  0.11360000  0.85880000  1
  H  H340  1  0.19980000  0.91790000  0.05250000  1
  H  H341  1  0.82980000  0.41790000  0.55250000  1
  H  H342  1  0.02160000  0.86680000  0.10120000  1
  H  H343  1  0.01040000  0.36680000  0.60120000  1
  H  H344  1  0.02420000  0.57880000  0.38580000  1
  H  H345  1  0.01120000  0.07880000  0.88580000  1
  H  H346  1  0.14330000  0.96950000  0.99410000  1
  H  H347  1  0.89310000  0.46950000  0.49410000  1
  H  H348  1  0.43730000  0.97430000  0.98590000  1
  H  H349  1  0.60250000  0.47430000  0.48590000  1
  H  H350  1  0.90540000  0.87520000  0.07500000  1
  H  H351  1  0.14440000  0.37520000  0.57500000  1
  H  H352  1  0.96530000  0.90390000  0.04410000  1
  H  H353  1  0.08670000  0.40390000  0.54410000  1
  H  H354  1  0.22660000  0.53120000  0.38500000  1
  H  H355  1  0.85720000  0.03120000  0.88500000  1
  H  H356  1  0.38670000  0.48980000  0.42620000  1
  H  H357  1  0.69730000  0.98980000  0.92620000  1
  H  H358  1  0.11440000  0.49890000  0.40710000  1
  H  H359  1  0.97960000  0.99890000  0.90710000  1
  H  H360  1  0.19040000  0.87450000  0.02930000  1
  H  H361  1  0.90580000  0.37450000  0.52930000  1
  H  H362  1  0.25370000  0.90220000  0.00020000  1
  H  H363  1  0.84390000  0.40220000  0.50020000  1
  H  H364  1  0.55590000  0.90820000  0.97060000  1
  H  H365  1  0.56530000  0.40820000  0.47060000  1
  H  H366  1  0.70410000  0.81070000  0.06750000  1
  H  H367  1  0.41770000  0.31070000  0.56750000  1
  H  H368  1  0.19210000  0.52970000  0.34170000  1
  H  H369  1  0.93650000  0.02970000  0.84170000  1
  H  H370  1  0.50030000  0.48820000  0.36200000  1
  H  H371  1  0.64950000  0.98820000  0.86200000  1
  H  H372  1  0.15990000  0.57170000  0.26790000  1
  H  H373  1  0.00050000  0.07170000  0.76790000  1
  H  H374  1  0.27440000  0.49150000  0.34590000  1
  H  H375  1  0.88820000  0.99150000  0.84590000  1
  H  H376  1  0.06230000  0.53140000  0.30000000  1
  H  H377  1  0.10630000  0.03140000  0.80000000  1
  H  H378  1  0.16430000  0.45860000  0.36900000  1
  H  H379  1  0.00810000  0.95860000  0.86900000  1
  H  H380  1  0.76840000  0.73210000  0.07170000  1
  H  H381  1  0.42780000  0.23210000  0.57170000  1
  H  H382  1  0.63480000  0.47130000  0.31870000  1
  H  H383  1  0.57520000  0.97130000  0.81870000  1
  H  H384  1  0.55550000  0.84550000  0.93030000  1
  H  H385  1  0.68200000  0.42950000  0.34630000  1
  H  H386  1  0.66870000  0.34550000  0.43030000  1
  H  H387  1  0.54220000  0.92950000  0.84630000  1
  H  H388  1  0.25370000  0.83660000  0.93800000  1
  H  H389  1  0.97170000  0.33660000  0.43800000  1
  H  H390  1  0.80420000  0.85830000  0.91270000  1
  H  H391  1  0.42480000  0.35830000  0.41270000  1
  H  H392  1  0.22840000  0.56750000  0.18930000  1
  H  H393  1  0.01480000  0.06750000  0.68930000  1
  H  H394  1  0.92140000  0.64120000  0.11360000  1
  H  H395  1  0.32380000  0.14120000  0.61360000  1
  H  H396  1  0.45780000  0.85160000  0.89240000  1
  H  H397  1  0.79820000  0.35160000  0.39240000  1
  H  H398  1  0.03220000  0.48710000  0.25130000  1
  H  H399  1  0.22940000  0.98710000  0.75130000  1
  H  H400  1  0.98070000  0.74870000  0.98710000  1
  H  H401  1  0.28350000  0.24870000  0.48710000  1
  H  H402  1  0.87720000  0.60120000  0.13320000  1
  H  H403  1  0.38840000  0.10120000  0.63320000  1
  H  H404  1  0.90630000  0.70000000  0.03140000  1
  H  H405  1  0.36230000  0.20000000  0.53140000  1
  H  H406  1  0.36030000  0.77500000  0.95060000  1
  H  H407  1  0.91410000  0.27500000  0.45060000  1
  H  H408  1  0.82510000  0.40830000  0.31390000  1
  H  H409  1  0.45270000  0.90830000  0.81390000  1
  H  H410  1  0.59990000  0.42170000  0.28530000  1
  H  H411  1  0.69310000  0.92170000  0.78530000  1
  H  H412  1  0.53400000  0.35520000  0.34780000  1
  H  H413  1  0.76300000  0.85520000  0.84780000  1
  H  H414  1  0.01960000  0.57500000  0.12480000  1
  H  H415  1  0.28060000  0.07500000  0.62480000  1
  H  H416  1  0.89700000  0.61420000  0.07880000  1
  H  H417  1  0.41000000  0.11420000  0.57880000  1
  H  H418  1  0.65000000  0.37910000  0.31050000  1
  H  H419  1  0.66040000  0.87910000  0.81050000  1
  H  H420  1  0.77820000  0.65830000  0.02970000  1
  H  H421  1  0.53380000  0.15830000  0.52970000  1
  H  H422  1  0.68910000  0.45060000  0.22500000  1
  H  H423  1  0.63530000  0.95060000  0.72500000  1
  H  H424  1  0.96760000  0.80620000  0.86240000  1
  H  H425  1  0.36380000  0.30620000  0.36240000  1
  H  H426  1  0.07030000  0.40640000  0.25540000  1
  H  H427  1  0.26790000  0.90640000  0.75540000  1
  H  H428  1  0.78030000  0.52930000  0.12550000  1
  H  H429  1  0.56490000  0.02930000  0.62550000  1
  H  H430  1  0.39390000  0.68130000  0.97130000  1
  H  H431  1  0.95350000  0.18130000  0.47130000  1
  H  H432  1  0.94050000  0.40040000  0.25100000  1
  H  H433  1  0.40810000  0.90040000  0.75100000  1
  H  H434  1  0.02330000  0.74460000  0.90640000  1
  H  H435  1  0.32570000  0.24460000  0.40640000  1
  H  H436  1  0.15910000  0.74900000  0.90040000  1
  H  H437  1  0.19150000  0.24900000  0.40040000  1
  H  H438  1  0.74220000  0.61500000  0.03120000  1
  H  H439  1  0.61160000  0.11500000  0.53120000  1
  H  H440  1  0.73410000  0.65410000  0.99150000  1
  H  H441  1  0.62030000  0.15410000  0.49150000  1
  H  H442  1  0.99060000  0.54410000  0.09610000  1
  H  H443  1  0.36920000  0.04410000  0.59610000  1
  H  H444  1  0.47840000  0.71470000  0.92170000  1
  H  H445  1  0.88520000  0.21470000  0.42170000  1
  H  H446  1  0.74770000  0.55250000  0.08210000  1
  H  H447  1  0.61770000  0.05250000  0.58210000  1
  H  H448  1  0.51150000  0.63800000  0.98820000  1
  H  H449  1  0.86230000  0.13800000  0.48820000  1
  H  H450  1  0.90200000  0.79230000  0.80970000  1
  H  H451  1  0.49600000  0.29230000  0.30970000  1
  H  H452  1  0.80830000  0.43800000  0.16340000  1
  H  H453  1  0.59030000  0.93800000  0.66340000  1
  H  H454  1  0.74610000  0.50020000  0.09780000  1
  H  H455  1  0.65590000  0.00020000  0.59780000  1
  H  H456  1  0.26660000  0.68610000  0.90830000  1
  H  H457  1  0.13900000  0.18610000  0.40830000  1
  H  H458  1  0.88670000  0.59290000  0.99890000  1
  H  H459  1  0.52150000  0.09290000  0.49890000  1
  H  H460  1  0.87710000  0.63100000  0.95860000  1
  H  H461  1  0.53330000  0.13100000  0.45860000  1
  H  H462  1  0.51420000  0.43030000  0.15450000  1
  H  H463  1  0.90100000  0.93030000  0.65450000  1
  H  H464  1  0.30410000  0.30080000  0.28260000  1
  H  H465  1  0.11250000  0.80080000  0.78260000  1
  H  H466  1  0.38850000  0.65370000  0.92950000  1
  H  H467  1  0.02830000  0.15370000  0.42950000  1
  H  H468  1  0.89450000  0.52840000  0.05380000  1
  H  H469  1  0.52330000  0.02840000  0.55380000  1
  H  H470  1  0.47090000  0.68950000  0.87910000  1
  H  H471  1  0.96050000  0.18950000  0.37910000  1
  H  H472  1  0.62350000  0.57380000  0.98980000  1
  H  H473  1  0.81290000  0.07380000  0.48980000  1
  H  H474  1  0.47350000  0.47060000  0.09180000  1
  H  H475  1  0.96410000  0.97060000  0.59180000  1
  H  H476  1  0.17000000  0.36240000  0.19380000  1
  H  H477  1  0.27380000  0.86240000  0.69380000  1
  H  H478  1  0.28310000  0.41270000  0.14170000  1
  H  H479  1  0.16250000  0.91270000  0.64170000  1
  H  H480  1  0.64980000  0.39240000  0.14840000  1
  H  H481  1  0.80940000  0.89240000  0.64840000  1
  H  H482  1  0.86260000  0.49410000  0.03050000  1
  H  H483  1  0.61280000  0.99410000  0.53050000  1
  H  H484  1  0.89510000  0.71740000  0.80080000  1
  H  H485  1  0.58670000  0.21740000  0.30080000  1
  H  H486  1  0.28830000  0.30970000  0.20770000  1
  H  H487  1  0.19430000  0.80970000  0.70770000  1
  H  H488  1  0.57680000  0.48590000  0.02570000  1
  H  H489  1  0.91160000  0.98590000  0.52570000  1
  H  H490  1  0.61080000  0.65220000  0.85520000  1
  H  H491  1  0.88180000  0.15220000  0.35520000  1
  H  H492  1  0.38920000  0.34780000  0.14480000  1
  H  H493  1  0.11820000  0.84780000  0.64480000  1
  H  H494  1  0.42320000  0.51410000  0.97430000  1
  H  H495  1  0.08840000  0.01410000  0.47430000  1
  H  H496  1  0.71170000  0.69030000  0.79230000  1
  H  H497  1  0.80570000  0.19030000  0.29230000  1
  H  H498  1  0.10490000  0.28260000  0.19920000  1
  H  H499  1  0.41330000  0.78260000  0.69920000  1
  H  H500  1  0.13740000  0.50590000  0.96950000  1
  H  H501  1  0.38720000  0.00590000  0.46950000  1
  H  H502  1  0.35020000  0.60760000  0.85160000  1
  H  H503  1  0.19060000  0.10760000  0.35160000  1
  H  H504  1  0.71690000  0.58730000  0.85830000  1
  H  H505  1  0.83750000  0.08730000  0.35830000  1
  H  H506  1  0.83000000  0.63760000  0.80620000  1
  H  H507  1  0.72620000  0.13760000  0.30620000  1
  H  H508  1  0.52650000  0.52940000  0.90820000  1
  H  H509  1  0.03590000  0.02940000  0.40820000  1
  H  H510  1  0.37650000  0.42620000  0.01020000  1
  H  H511  1  0.18710000  0.92620000  0.51020000  1
  H  H512  1  0.52910000  0.31050000  0.12090000  1
  H  H513  1  0.03950000  0.81050000  0.62090000  1
  H  H514  1  0.10550000  0.47160000  0.94620000  1
  H  H515  1  0.47670000  0.97160000  0.44620000  1
  H  H516  1  0.61150000  0.34630000  0.07050000  1
  H  H517  1  0.97170000  0.84630000  0.57050000  1
  H  H518  1  0.69590000  0.69920000  0.71740000  1
  H  H519  1  0.88750000  0.19920000  0.21740000  1
  H  H520  1  0.48580000  0.56970000  0.84550000  1
  H  H521  1  0.09900000  0.06970000  0.34550000  1
  H  H522  1  0.12290000  0.36900000  0.04140000  1
  H  H523  1  0.46670000  0.86900000  0.54140000  1
  H  H524  1  0.11330000  0.40710000  0.00110000  1
  H  H525  1  0.47850000  0.90710000  0.50110000  1
  H  H526  1  0.73340000  0.31390000  0.09170000  1
  H  H527  1  0.86100000  0.81390000  0.59170000  1
  H  H528  1  0.25390000  0.49980000  0.90220000  1
  H  H529  1  0.34410000  0.99980000  0.40220000  1
  H  H530  1  0.19170000  0.56200000  0.83660000  1
  H  H531  1  0.40970000  0.06200000  0.33660000  1
  H  H532  1  0.09800000  0.20770000  0.19030000  1
  H  H533  1  0.50400000  0.70770000  0.69030000  1
  H  H534  1  0.48850000  0.36200000  0.01180000  1
  H  H535  1  0.13770000  0.86200000  0.51180000  1
  H  H536  1  0.25230000  0.44750000  0.91790000  1
  H  H537  1  0.38230000  0.94750000  0.41790000  1
  H  H538  1  0.52160000  0.28530000  0.07830000  1
  H  H539  1  0.11480000  0.78530000  0.57830000  1
  H  H540  1  0.00940000  0.45590000  0.90390000  1
  H  H541  1  0.63080000  0.95590000  0.40390000  1
  H  H542  1  0.26590000  0.34590000  0.00850000  1
  H  H543  1  0.37970000  0.84590000  0.50850000  1
  H  H544  1  0.25780000  0.38500000  0.96880000  1
  H  H545  1  0.38840000  0.88500000  0.46880000  1
  H  H546  1  0.84090000  0.25100000  0.09960000  1
  H  H547  1  0.80850000  0.75100000  0.59960000  1
  H  H548  1  0.97670000  0.25540000  0.09360000  1
  H  H549  1  0.67430000  0.75540000  0.59360000  1
  H  H550  1  0.05950000  0.59960000  0.74900000  1
  H  H551  1  0.59190000  0.09960000  0.24900000  1
  H  H552  1  0.60610000  0.31870000  0.02870000  1
  H  H553  1  0.04650000  0.81870000  0.52870000  1
  H  H554  1  0.21970000  0.47070000  0.87450000  1
  H  H555  1  0.43510000  0.97070000  0.37450000  1
  H  H556  1  0.92970000  0.59360000  0.74460000  1
  H  H557  1  0.73210000  0.09360000  0.24460000  1
  H  H558  1  0.03240000  0.19380000  0.13760000  1
  H  H559  1  0.63620000  0.69380000  0.63760000  1
  H  H560  1  0.31090000  0.54940000  0.77500000  1
  H  H561  1  0.36470000  0.04940000  0.27500000  1
  H  H562  1  0.22180000  0.34170000  0.97030000  1
  H  H563  1  0.46620000  0.84170000  0.47030000  1
  H  H564  1  0.35000000  0.62090000  0.68950000  1
  H  H565  1  0.33960000  0.12090000  0.18950000  1
  H  H566  1  0.10300000  0.38580000  0.92120000  1
  H  H567  1  0.59000000  0.88580000  0.42120000  1
  H  H568  1  0.98040000  0.42500000  0.87520000  1
  H  H569  1  0.71940000  0.92500000  0.37520000  1
  H  H570  1  0.46600000  0.64480000  0.65220000  1
  H  H571  1  0.23700000  0.14480000  0.15220000  1
  H  H572  1  0.40010000  0.57830000  0.71470000  1
  H  H573  1  0.30690000  0.07830000  0.21470000  1
  H  H574  1  0.17490000  0.59170000  0.68610000  1
  H  H575  1  0.54730000  0.09170000  0.18610000  1
  H  H576  1  0.63970000  0.22500000  0.04940000  1
  H  H577  1  0.08590000  0.72500000  0.54940000  1
  H  H578  1  0.09370000  0.30000000  0.96860000  1
  H  H579  1  0.63770000  0.80000000  0.46860000  1
  H  H580  1  0.12280000  0.39880000  0.86680000  1
  H  H581  1  0.61160000  0.89880000  0.36680000  1
  H  H582  1  0.01930000  0.25130000  0.01290000  1
  H  H583  1  0.71650000  0.75130000  0.51290000  1
  H  H584  1  0.96780000  0.51290000  0.74870000  1
  H  H585  1  0.77060000  0.01290000  0.24870000  1
  H  H586  1  0.54220000  0.14840000  0.10760000  1
  H  H587  1  0.20180000  0.64840000  0.60760000  1
  H  H588  1  0.07860000  0.35880000  0.88640000  1
  H  H589  1  0.67620000  0.85880000  0.38640000  1
  H  H590  1  0.77160000  0.43250000  0.81070000  1
  H  H591  1  0.98520000  0.93250000  0.31070000  1
  H  H592  1  0.19580000  0.14170000  0.08730000  1
  H  H593  1  0.57520000  0.64170000  0.58730000  1
  H  H594  1  0.74630000  0.16340000  0.06200000  1
  H  H595  1  0.02830000  0.66340000  0.56200000  1
  H  H596  1  0.31800000  0.57050000  0.65370000  1
  H  H597  1  0.44450000  0.15450000  0.06970000  1
  H  H598  1  0.45780000  0.07050000  0.15370000  1
  H  H599  1  0.33130000  0.65450000  0.56970000  1
  H  H600  1  0.36520000  0.52870000  0.68130000  1
  H  H601  1  0.42480000  0.02870000  0.18130000  1
  H  H602  1  0.23160000  0.26790000  0.92830000  1
  H  H603  1  0.57220000  0.76790000  0.42830000  1
  H  H604  1  0.83570000  0.54140000  0.63100000  1
  H  H605  1  0.99190000  0.04140000  0.13100000  1
  H  H606  1  0.93770000  0.46860000  0.70000000  1
  H  H607  1  0.89370000  0.96860000  0.20000000  1
  H  H608  1  0.72560000  0.50850000  0.65410000  1
  H  H609  1  0.11180000  0.00850000  0.15410000  1
  H  H610  1  0.84010000  0.42830000  0.73210000  1
  H  H611  1  0.99950000  0.92830000  0.23210000  1
  H  H612  1  0.49970000  0.51180000  0.63800000  1
  H  H613  1  0.35050000  0.01180000  0.13800000  1
  H  H614  1  0.80790000  0.47030000  0.65830000  1
  H  H615  1  0.06350000  0.97030000  0.15830000  1
  H  H616  1  0.29590000  0.18930000  0.93250000  1
  H  H617  1  0.58230000  0.68930000  0.43250000  1
  H  H618  1  0.44410000  0.09180000  0.02940000  1
  H  H619  1  0.43470000  0.59180000  0.52940000  1
  H  H620  1  0.74630000  0.09780000  0.99980000  1
  H  H621  1  0.15610000  0.59780000  0.49980000  1
  H  H622  1  0.80960000  0.12550000  0.97070000  1
  H  H623  1  0.09420000  0.62550000  0.47070000  1
  H  H624  1  0.88560000  0.50110000  0.59290000  1
  H  H625  1  0.02040000  0.00110000  0.09290000  1
  H  H626  1  0.61330000  0.51020000  0.57380000  1
  H  H627  1  0.30270000  0.01020000  0.07380000  1
  H  H628  1  0.77340000  0.46880000  0.61500000  1
  H  H629  1  0.14280000  0.96880000  0.11500000  1
  H  H630  1  0.03470000  0.09610000  0.95590000  1
  H  H631  1  0.91330000  0.59610000  0.45590000  1
  H  H632  1  0.09460000  0.12480000  0.92500000  1
  H  H633  1  0.85560000  0.62480000  0.42500000  1
  H  H634  1  0.56270000  0.02570000  0.01410000  1
  H  H635  1  0.39750000  0.52570000  0.51410000  1
  H  H636  1  0.85670000  0.03050000  0.00590000  1
  H  H637  1  0.10690000  0.53050000  0.50590000  1
  H  H638  1  0.97580000  0.42120000  0.61420000  1
  H  H639  1  0.98880000  0.92120000  0.11420000  1
  H  H640  1  0.97840000  0.13320000  0.89880000  1
  H  H641  1  0.98960000  0.63320000  0.39880000  1
  H  H642  1  0.80020000  0.08210000  0.94750000  1
  H  H643  1  0.17020000  0.58210000  0.44750000  1
  H  H644  1  0.03500000  0.38640000  0.64120000  1
  H  H645  1  0.93740000  0.88640000  0.14120000  1
  H  H646  1  0.92290000  0.05380000  0.97160000  1
  H  H647  1  0.05170000  0.55380000  0.47160000  1
  Mn  Mn648  1  0.79495000  0.92435000  0.99199000  1
  Mn  Mn649  1  0.28871000  0.42435000  0.49199000  1
  Mn  Mn650  1  0.90023000  0.46936000  0.38268000  1
  Mn  Mn651  1  0.24773000  0.96936000  0.88268000  1
  Mn  Mn652  1  0.08458000  0.85863000  0.91531000  1
  Mn  Mn653  1  0.14148000  0.35863000  0.41531000  1
  Mn  Mn654  1  0.13041000  0.61732000  0.96936000  1
  Mn  Mn655  1  0.28291000  0.11732000  0.46936000  1
  Mn  Mn656  1  0.21306000  0.49199000  0.07565000  1
  Mn  Mn657  1  0.21930000  0.99199000  0.57565000  1
  Mn  Mn658  1  0.00011000  0.41531000  0.14137000  1
  Mn  Mn659  1  0.44321000  0.91531000  0.64137000  1
  Mn  Mn660  1  0.99989000  0.58469000  0.85863000  1
  Mn  Mn661  1  0.55679000  0.08469000  0.35863000  1
  Mn  Mn662  1  0.78694000  0.50801000  0.92435000  1
  Mn  Mn663  1  0.78070000  0.00801000  0.42435000  1
  Mn  Mn664  1  0.86959000  0.38268000  0.03064000  1
  Mn  Mn665  1  0.71709000  0.88268000  0.53064000  1
  Mn  Mn666  1  0.91542000  0.14137000  0.08469000  1
  Mn  Mn667  1  0.85852000  0.64137000  0.58469000  1
  Mn  Mn668  1  0.09977000  0.53064000  0.61732000  1
  Mn  Mn669  1  0.75227000  0.03064000  0.11732000  1
  Mn  Mn670  1  0.20505000  0.07565000  0.00801000  1
  Mn  Mn671  1  0.71129000  0.57565000  0.50801000  1
  N  N672  1  0.81556000  0.54701000  0.44381000  1
  N  N673  1  0.19362000  0.04701000  0.94381000  1
  N  N674  1  0.80851000  0.50388000  0.43198000  1
  N  N675  1  0.25563000  0.00388000  0.93198000  1
  N  N676  1  0.74340000  0.91928000  0.93172000  1
  N  N677  1  0.40560000  0.41928000  0.43172000  1
  N  N678  1  0.99066000  0.42827000  0.42071000  1
  N  N679  1  0.16036000  0.92827000  0.92071000  1
  N  N680  1  0.90286000  0.88317000  0.96305000  1
  N  N681  1  0.25092000  0.38317000  0.46305000  1
  N  N682  1  0.95479000  0.90554000  0.92974000  1
  N  N683  1  0.20993000  0.40554000  0.42974000  1
  N  N684  1  0.06056000  0.40066000  0.38794000  1
  N  N685  1  0.15084000  0.90066000  0.88794000  1
  N  N686  1  0.19469000  0.79841000  0.91967000  1
  N  N687  1  0.08723000  0.29841000  0.41967000  1
  N  N688  1  0.88564000  0.41967000  0.20159000  1
  N  N689  1  0.49310000  0.91967000  0.70159000  1
  N  N690  1  0.13743000  0.55619000  0.04701000  1
  N  N691  1  0.25937000  0.05619000  0.54701000  1
  N  N692  1  0.13409000  0.46305000  0.11683000  1
  N  N693  1  0.28603000  0.96305000  0.61683000  1
  N  N694  1  0.18761000  0.56802000  0.00388000  1
  N  N695  1  0.24049000  0.06802000  0.50388000  1
  N  N696  1  0.11547000  0.42974000  0.09446000  1
  N  N697  1  0.36033000  0.92974000  0.59446000  1
  N  N698  1  0.03878000  0.61206000  0.90066000  1
  N  N699  1  0.44850000  0.11206000  0.40066000  1
  N  N700  1  0.32488000  0.43172000  0.08072000  1
  N  N701  1  0.16268000  0.93172000  0.58072000  1
  N  N702  1  0.08107000  0.57929000  0.92827000  1
  N  N703  1  0.41137000  0.07929000  0.42827000  1
  N  N704  1  0.91893000  0.42071000  0.07173000  1
  N  N705  1  0.58863000  0.92071000  0.57173000  1
  N  N706  1  0.67512000  0.56828000  0.91928000  1
  N  N707  1  0.83732000  0.06828000  0.41928000  1
  N  N708  1  0.96122000  0.38794000  0.09934000  1
  N  N709  1  0.55150000  0.88794000  0.59934000  1
  N  N710  1  0.88453000  0.57026000  0.90554000  1
  N  N711  1  0.63967000  0.07026000  0.40554000  1
  N  N712  1  0.81239000  0.43198000  0.99612000  1
  N  N713  1  0.75951000  0.93198000  0.49612000  1
  N  N714  1  0.86591000  0.53695000  0.88317000  1
  N  N715  1  0.71397000  0.03695000  0.38317000  1
  N  N716  1  0.86257000  0.44381000  0.95299000  1
  N  N717  1  0.74063000  0.94381000  0.45299000  1
  N  N718  1  0.11436000  0.58033000  0.79841000  1
  N  N719  1  0.50690000  0.08033000  0.29841000  1
  N  N720  1  0.80531000  0.20159000  0.08033000  1
  N  N721  1  0.91277000  0.70159000  0.58033000  1
  N  N722  1  0.93944000  0.59934000  0.61206000  1
  N  N723  1  0.84916000  0.09934000  0.11206000  1
  N  N724  1  0.04521000  0.09446000  0.07026000  1
  N  N725  1  0.79007000  0.59446000  0.57026000  1
  N  N726  1  0.09714000  0.11683000  0.03695000  1
  N  N727  1  0.74908000  0.61683000  0.53695000  1
  N  N728  1  0.00934000  0.57173000  0.57929000  1
  N  N729  1  0.83964000  0.07173000  0.07929000  1
  N  N730  1  0.25660000  0.08072000  0.06828000  1
  N  N731  1  0.59440000  0.58072000  0.56828000  1
  N  N732  1  0.19149000  0.49612000  0.56802000  1
  N  N733  1  0.74437000  0.99612000  0.06802000  1
  N  N734  1  0.18444000  0.45299000  0.55619000  1
  N  N735  1  0.80638000  0.95299000  0.05619000  1
  O  O736  1  0.69101000  0.97378000  0.01652000  1
  O  O737  1  0.31869000  0.47378000  0.51652000  1
  O  O738  1  0.23354000  0.46871000  0.45299000  1
  O  O739  1  0.84476000  0.96871000  0.95299000  1
  O  O740  1  0.93523000  0.52430000  0.38524000  1
  O  O741  1  0.15523000  0.02430000  0.88524000  1
  O  O742  1  0.76246000  0.87413000  0.02387000  1
  O  O743  1  0.33954000  0.37413000  0.52387000  1
  O  O744  1  0.08761000  0.88404000  0.97148000  1
  O  O745  1  0.05687000  0.38404000  0.47148000  1
  O  O746  1  0.85156000  0.42098000  0.38848000  1
  O  O747  1  0.33898000  0.92098000  0.88848000  1
  O  O748  1  0.99723000  0.43719000  0.33325000  1
  O  O749  1  0.23233000  0.93719000  0.83325000  1
  O  O750  1  0.01413000  0.81894000  0.95050000  1
  O  O751  1  0.21643000  0.31894000  0.45050000  1
  O  O752  1  0.09118000  0.84045000  0.85677000  1
  O  O753  1  0.21160000  0.34045000  0.35677000  1
  O  O754  1  0.21367000  0.52387000  0.12587000  1
  O  O755  1  0.13659000  0.02387000  0.62587000  1
  O  O756  1  0.04047000  0.61476000  0.02430000  1
  O  O757  1  0.32047000  0.11476000  0.52430000  1
  O  O758  1  0.03537000  0.45050000  0.18106000  1
  O  O759  1  0.33307000  0.95050000  0.68106000  1
  O  O760  1  0.06558000  0.66675000  0.93719000  1
  O  O761  1  0.33048000  0.16675000  0.43719000  1
  O  O762  1  0.94091000  0.47148000  0.11596000  1
  O  O763  1  0.47165000  0.97148000  0.61596000  1
  O  O764  1  0.29247000  0.51652000  0.02622000  1
  O  O765  1  0.16479000  0.01652000  0.52622000  1
  O  O766  1  0.22746000  0.61152000  0.92098000  1
  O  O767  1  0.24004000  0.11152000  0.42098000  1
  O  O768  1  0.05205000  0.35677000  0.15955000  1
  O  O769  1  0.43163000  0.85677000  0.65955000  1
  O  O770  1  0.79775000  0.54701000  0.96871000  1
  O  O771  1  0.68653000  0.04701000  0.46871000  1
  O  O772  1  0.20225000  0.45299000  0.03129000  1
  O  O773  1  0.31347000  0.95299000  0.53129000  1
  O  O774  1  0.94795000  0.64323000  0.84045000  1
  O  O775  1  0.56837000  0.14323000  0.34045000  1
  O  O776  1  0.77254000  0.38848000  0.07902000  1
  O  O777  1  0.75996000  0.88848000  0.57902000  1
  O  O778  1  0.70753000  0.48348000  0.97378000  1
  O  O779  1  0.83521000  0.98348000  0.47378000  1
  O  O780  1  0.05909000  0.52852000  0.88404000  1
  O  O781  1  0.52835000  0.02852000  0.38404000  1
  O  O782  1  0.93442000  0.33325000  0.06281000  1
  O  O783  1  0.66952000  0.83325000  0.56281000  1
  O  O784  1  0.96463000  0.54950000  0.81894000  1
  O  O785  1  0.66693000  0.04950000  0.31894000  1
  O  O786  1  0.95953000  0.38524000  0.97570000  1
  O  O787  1  0.67953000  0.88524000  0.47570000  1
  O  O788  1  0.78633000  0.47613000  0.87413000  1
  O  O789  1  0.86341000  0.97613000  0.37413000  1
  O  O790  1  0.90882000  0.15955000  0.14323000  1
  O  O791  1  0.78840000  0.65955000  0.64323000  1
  O  O792  1  0.98587000  0.18106000  0.04950000  1
  O  O793  1  0.78357000  0.68106000  0.54950000  1
  O  O794  1  0.00277000  0.56281000  0.66675000  1
  O  O795  1  0.76767000  0.06281000  0.16675000  1
  O  O796  1  0.14844000  0.57902000  0.61152000  1
  O  O797  1  0.66102000  0.07902000  0.11152000  1
  O  O798  1  0.91239000  0.11596000  0.02852000  1
  O  O799  1  0.94313000  0.61596000  0.52852000  1
  O  O800  1  0.23754000  0.12587000  0.97613000  1
  O  O801  1  0.66046000  0.62587000  0.47613000  1
  O  O802  1  0.06477000  0.47570000  0.61476000  1
  O  O803  1  0.84477000  0.97570000  0.11476000  1
  O  O804  1  0.76646000  0.53129000  0.54701000  1
  O  O805  1  0.15524000  0.03129000  0.04701000  1
  O  O806  1  0.30899000  0.02622000  0.98348000  1
  O  O807  1  0.68131000  0.52622000  0.48348000  1
