# generated using pymatgen
data_Ni3H12(C18O13)2
_symmetry_space_group_name_H-M   'P 1'
_cell_length_a   10.71100000
_cell_length_b   13.79630000
_cell_length_c   18.75110000
_cell_angle_alpha   90.00000000
_cell_angle_beta   98.15800000
_cell_angle_gamma   90.00000000
_symmetry_Int_Tables_number   1
_chemical_formula_structural   Ni3H12(C18O13)2
_chemical_formula_sum   'Ni6 H24 C72 O52'
_cell_volume   2742.85074341
_cell_formula_units_Z   2
loop_
 _symmetry_equiv_pos_site_id
 _symmetry_equiv_pos_as_xyz
  1  'x, y, z'
loop_
 _atom_site_type_symbol
 _atom_site_label
 _atom_site_symmetry_multiplicity
 _atom_site_fract_x
 _atom_site_fract_y
 _atom_site_fract_z
 _atom_site_occupancy
  Ni  Ni0  1  0.39800000  0.23230000  0.02411000  1
  Ni  Ni1  1  0.39800000  0.26770000  0.52411000  1
  Ni  Ni2  1  0.50000000  0.00000000  0.00000000  1
  Ni  Ni3  1  0.50000000  0.50000000  0.50000000  1
  Ni  Ni4  1  0.60200000  0.73230000  0.47589000  1
  Ni  Ni5  1  0.60200000  0.76770000  0.97589000  1
  H  H6  1  0.07790000  0.12370000  0.57040000  1
  H  H7  1  0.07790000  0.37630000  0.07040000  1
  H  H8  1  0.10220000  0.62040000  0.47940000  1
  H  H9  1  0.10220000  0.87960000  0.97940000  1
  H  H10  1  0.30360000  0.63490000  0.96390000  1
  H  H11  1  0.30360000  0.86510000  0.46390000  1
  H  H12  1  0.38540000  0.20370000  0.23580000  1
  H  H13  1  0.38540000  0.29630000  0.73580000  1
  H  H14  1  0.44590000  0.05880000  0.76830000  1
  H  H15  1  0.44590000  0.44120000  0.26830000  1
  H  H16  1  0.45080000  0.04420000  0.41780000  1
  H  H17  1  0.45080000  0.45580000  0.91780000  1
  H  H18  1  0.54920000  0.54420000  0.08220000  1
  H  H19  1  0.54920000  0.95580000  0.58220000  1
  H  H20  1  0.55410000  0.55880000  0.73170000  1
  H  H21  1  0.55410000  0.94120000  0.23170000  1
  H  H22  1  0.61460000  0.70370000  0.26420000  1
  H  H23  1  0.61460000  0.79630000  0.76420000  1
  H  H24  1  0.69640000  0.13490000  0.53610000  1
  H  H25  1  0.69640000  0.36510000  0.03610000  1
  H  H26  1  0.89780000  0.12040000  0.02060000  1
  H  H27  1  0.89780000  0.37960000  0.52060000  1
  H  H28  1  0.92210000  0.62370000  0.92960000  1
  H  H29  1  0.92210000  0.87630000  0.42960000  1
  C  C30  1  0.00230000  0.15970000  0.55842000  1
  C  C31  1  0.00230000  0.34030000  0.05842000  1
  C  C32  1  0.00770000  0.24090000  0.04456000  1
  C  C33  1  0.00770000  0.25910000  0.54456000  1
  C  C34  1  0.10550000  0.68810000  0.47071000  1
  C  C35  1  0.10550000  0.81190000  0.97071000  1
  C  C36  1  0.11370000  0.61400000  0.94532000  1
  C  C37  1  0.11370000  0.88600000  0.44532000  1
  C  C38  1  0.12090000  0.50640000  0.93342000  1
  C  C39  1  0.12090000  0.99360000  0.43342000  1
  C  C40  1  0.13090000  0.19290000  0.03925000  1
  C  C41  1  0.13090000  0.30710000  0.53925000  1
  C  C42  1  0.22090000  0.73310000  0.47319000  1
  C  C43  1  0.22090000  0.76690000  0.97319000  1
  C  C44  1  0.22450000  0.66690000  0.96119000  1
  C  C45  1  0.22450000  0.83310000  0.46119000  1
  C  C46  1  0.34470000  0.68180000  0.49093000  1
  C  C47  1  0.34470000  0.81820000  0.99093000  1
  C  C48  1  0.35580000  0.21730000  0.37298000  1
  C  C49  1  0.35580000  0.28270000  0.87298000  1
  C  C50  1  0.40950000  0.13530000  0.33316000  1
  C  C51  1  0.40950000  0.36470000  0.83316000  1
  C  C52  1  0.41630000  0.10010000  0.62732000  1
  C  C53  1  0.41630000  0.14610000  0.25982000  1
  C  C54  1  0.41630000  0.35390000  0.75982000  1
  C  C55  1  0.41630000  0.39990000  0.12732000  1
  C  C56  1  0.45760000  0.05300000  0.36822000  1
  C  C57  1  0.45760000  0.44700000  0.86822000  1
  C  C58  1  0.46760000  0.07360000  0.22147000  1
  C  C59  1  0.46760000  0.42640000  0.72147000  1
  C  C60  1  0.47060000  0.08530000  0.14124000  1
  C  C61  1  0.47060000  0.41470000  0.64124000  1
  C  C62  1  0.48150000  0.00910000  0.74253000  1
  C  C63  1  0.48150000  0.49090000  0.24253000  1
  C  C64  1  0.48300000  0.01850000  0.66881000  1
  C  C65  1  0.48300000  0.48150000  0.16881000  1
  C  C66  1  0.51700000  0.51850000  0.83119000  1
  C  C67  1  0.51700000  0.98150000  0.33119000  1
  C  C68  1  0.51850000  0.50910000  0.75747000  1
  C  C69  1  0.51850000  0.99090000  0.25747000  1
  C  C70  1  0.52940000  0.58530000  0.35876000  1
  C  C71  1  0.52940000  0.91470000  0.85876000  1
  C  C72  1  0.53240000  0.57360000  0.27853000  1
  C  C73  1  0.53240000  0.92640000  0.77853000  1
  C  C74  1  0.54240000  0.55300000  0.13178000  1
  C  C75  1  0.54240000  0.94700000  0.63178000  1
  C  C76  1  0.58370000  0.60010000  0.87268000  1
  C  C77  1  0.58370000  0.64610000  0.24018000  1
  C  C78  1  0.58370000  0.85390000  0.74018000  1
  C  C79  1  0.58370000  0.89990000  0.37268000  1
  C  C80  1  0.59050000  0.63530000  0.16684000  1
  C  C81  1  0.59050000  0.86470000  0.66684000  1
  C  C82  1  0.64420000  0.71730000  0.12702000  1
  C  C83  1  0.64420000  0.78270000  0.62702000  1
  C  C84  1  0.65530000  0.18180000  0.00907000  1
  C  C85  1  0.65530000  0.31820000  0.50907000  1
  C  C86  1  0.77550000  0.16690000  0.53881000  1
  C  C87  1  0.77550000  0.33310000  0.03881000  1
  C  C88  1  0.77910000  0.23310000  0.02681000  1
  C  C89  1  0.77910000  0.26690000  0.52681000  1
  C  C90  1  0.86910000  0.69290000  0.46075000  1
  C  C91  1  0.86910000  0.80710000  0.96075000  1
  C  C92  1  0.87910000  0.00640000  0.56658000  1
  C  C93  1  0.87910000  0.49360000  0.06658000  1
  C  C94  1  0.88630000  0.11400000  0.55468000  1
  C  C95  1  0.88630000  0.38600000  0.05468000  1
  C  C96  1  0.89450000  0.18810000  0.02929000  1
  C  C97  1  0.89450000  0.31190000  0.52929000  1
  C  C98  1  0.99230000  0.74090000  0.45544000  1
  C  C99  1  0.99230000  0.75910000  0.95544000  1
  C  C100  1  0.99770000  0.65970000  0.94158000  1
  C  C101  1  0.99770000  0.84030000  0.44158000  1
  O  O102  1  0.03820000  0.04061000  0.40137000  1
  O  O103  1  0.03820000  0.45939000  0.90137000  1
  O  O104  1  0.13190000  0.10984000  0.01226000  1
  O  O105  1  0.13190000  0.39016000  0.51226000  1
  O  O106  1  0.23001000  0.24131000  0.06147000  1
  O  O107  1  0.23001000  0.25869000  0.56147000  1
  O  O108  1  0.23160000  0.02895000  0.46491000  1
  O  O109  1  0.23160000  0.47105000  0.96491000  1
  O  O110  1  0.31788000  0.19516000  0.43240000  1
  O  O111  1  0.31788000  0.30484000  0.93240000  1
  O  O112  1  0.31900000  0.13383000  0.65586000  1
  O  O113  1  0.31900000  0.36617000  0.15586000  1
  O  O114  1  0.34687000  0.59198000  0.48147000  1
  O  O115  1  0.34687000  0.90802000  0.98147000  1
  O  O116  1  0.35450000  0.19957000  0.84731000  1
  O  O117  1  0.35450000  0.30043000  0.34731000  1
  O  O118  1  0.35831000  0.10297000  0.96977000  1
  O  O119  1  0.35831000  0.39703000  0.46977000  1
  O  O120  1  0.43681000  0.73516000  0.51428000  1
  O  O121  1  0.43681000  0.76484000  0.01428000  1
  O  O122  1  0.44942000  0.13233000  0.57242000  1
  O  O123  1  0.44942000  0.36767000  0.07242000  1
  O  O124  1  0.47010000  0.17183000  0.11897000  1
  O  O125  1  0.47010000  0.32817000  0.61897000  1
  O  O126  1  0.47321000  0.00972000  0.10483000  1
  O  O127  1  0.47321000  0.49028000  0.60483000  1
  O  O128  1  0.52679000  0.50972000  0.39517000  1
  O  O129  1  0.52679000  0.99028000  0.89517000  1
  O  O130  1  0.52990000  0.67183000  0.38103000  1
  O  O131  1  0.52990000  0.82817000  0.88103000  1
  O  O132  1  0.55058000  0.63233000  0.92758000  1
  O  O133  1  0.55058000  0.86767000  0.42758000  1
  O  O134  1  0.56319000  0.23516000  0.98572000  1
  O  O135  1  0.56319000  0.26484000  0.48572000  1
  O  O136  1  0.64169000  0.60297000  0.53023000  1
  O  O137  1  0.64169000  0.89703000  0.03023000  1
  O  O138  1  0.64550000  0.69957000  0.65269000  1
  O  O139  1  0.64550000  0.80043000  0.15269000  1
  O  O140  1  0.65313000  0.09198000  0.01853000  1
  O  O141  1  0.65313000  0.40802000  0.51853000  1
  O  O142  1  0.68100000  0.63383000  0.84414000  1
  O  O143  1  0.68100000  0.86617000  0.34414000  1
  O  O144  1  0.68212000  0.69516000  0.06760000  1
  O  O145  1  0.68212000  0.80484000  0.56760000  1
  O  O146  1  0.76840000  0.52895000  0.03509000  1
  O  O147  1  0.76840000  0.97105000  0.53509000  1
  O  O148  1  0.76999000  0.74131000  0.43853000  1
  O  O149  1  0.76999000  0.75869000  0.93853000  1
  O  O150  1  0.86810000  0.60984000  0.48774000  1
  O  O151  1  0.86810000  0.89016000  0.98774000  1
  O  O152  1  0.96180000  0.54061000  0.09863000  1
  O  O153  1  0.96180000  0.95939000  0.59863000  1
