# generated using pymatgen
data_CdH14C20N3O4
_symmetry_space_group_name_H-M   'P 1'
_cell_length_a   11.14140000
_cell_length_b   11.14140000
_cell_length_c   18.66200000
_cell_angle_alpha   93.48580000
_cell_angle_beta   93.48580000
_cell_angle_gamma   114.96100000
_symmetry_Int_Tables_number   1
_chemical_formula_structural   CdH14C20N3O4
_chemical_formula_sum   'Cd4 H56 C80 N12 O16'
_cell_volume   2086.67860324
_cell_formula_units_Z   4
loop_
 _symmetry_equiv_pos_site_id
 _symmetry_equiv_pos_as_xyz
  1  'x, y, z'
loop_
 _atom_site_type_symbol
 _atom_site_label
 _atom_site_symmetry_multiplicity
 _atom_site_fract_x
 _atom_site_fract_y
 _atom_site_fract_z
 _atom_site_occupancy
  Cd  Cd0  1  0.63082000  0.86500000  0.08983000  1
  Cd  Cd1  1  0.86500000  0.63082000  0.58983000  1
  Cd  Cd2  1  0.13500000  0.36918000  0.41017000  1
  Cd  Cd3  1  0.36918000  0.13500000  0.91017000  1
  H  H4  1  0.15830000  0.98850000  0.42680000  1
  H  H5  1  0.60950000  0.97370000  0.40370000  1
  H  H6  1  0.28490000  0.96330000  0.16840000  1
  H  H7  1  0.82080000  0.93740000  0.76380000  1
  H  H8  1  0.84890000  0.93650000  0.96030000  1
  H  H9  1  0.30320000  0.88040000  0.34350000  1
  H  H10  1  0.93650000  0.84890000  0.46030000  1
  H  H11  1  0.01150000  0.84170000  0.07320000  1
  H  H12  1  0.37830000  0.83410000  0.70270000  1
  H  H13  1  0.56260000  0.83360000  0.92330000  1
  H  H14  1  0.40810000  0.82170000  0.33800000  1
  H  H15  1  0.93740000  0.82080000  0.26380000  1
  H  H16  1  0.26140000  0.81580000  0.93900000  1
  H  H17  1  0.57230000  0.75530000  0.53560000  1
  H  H18  1  0.28420000  0.75240000  0.38110000  1
  H  H19  1  0.18420000  0.73860000  0.56100000  1
  H  H20  1  0.24760000  0.71580000  0.11890000  1
  H  H21  1  0.03670000  0.71510000  0.33160000  1
  H  H22  1  0.41450000  0.70550000  0.82930000  1
  H  H23  1  0.11960000  0.69680000  0.15650000  1
  H  H24  1  0.16590000  0.62170000  0.79730000  1
  H  H25  1  0.97370000  0.60950000  0.90370000  1
  H  H26  1  0.43460000  0.60140000  0.44570000  1
  H  H27  1  0.17830000  0.59190000  0.16200000  1
  H  H28  1  0.29450000  0.58550000  0.67070000  1
  H  H29  1  0.75530000  0.57230000  0.03560000  1
  H  H30  1  0.39860000  0.56540000  0.05430000  1
  H  H31  1  0.83360000  0.56260000  0.42330000  1
  H  H32  1  0.16640000  0.43740000  0.57670000  1
  H  H33  1  0.60140000  0.43460000  0.94570000  1
  H  H34  1  0.24470000  0.42770000  0.96440000  1
  H  H35  1  0.70550000  0.41450000  0.32930000  1
  H  H36  1  0.82170000  0.40810000  0.83800000  1
  H  H37  1  0.56540000  0.39860000  0.55430000  1
  H  H38  1  0.02630000  0.39050000  0.09630000  1
  H  H39  1  0.83410000  0.37830000  0.20270000  1
  H  H40  1  0.88040000  0.30320000  0.84350000  1
  H  H41  1  0.58550000  0.29450000  0.17070000  1
  H  H42  1  0.96330000  0.28490000  0.66840000  1
  H  H43  1  0.75240000  0.28420000  0.88110000  1
  H  H44  1  0.81580000  0.26140000  0.43900000  1
  H  H45  1  0.71580000  0.24760000  0.61890000  1
  H  H46  1  0.42770000  0.24470000  0.46440000  1
  H  H47  1  0.73860000  0.18420000  0.06100000  1
  H  H48  1  0.06260000  0.17920000  0.73620000  1
  H  H49  1  0.59190000  0.17830000  0.66200000  1
  H  H50  1  0.43740000  0.16640000  0.07670000  1
  H  H51  1  0.62170000  0.16590000  0.29730000  1
  H  H52  1  0.98850000  0.15830000  0.92680000  1
  H  H53  1  0.06350000  0.15110000  0.53970000  1
  H  H54  1  0.69680000  0.11960000  0.65650000  1
  H  H55  1  0.15110000  0.06350000  0.03970000  1
  H  H56  1  0.17920000  0.06260000  0.23620000  1
  H  H57  1  0.71510000  0.03670000  0.83160000  1
  H  H58  1  0.39050000  0.02630000  0.59630000  1
  H  H59  1  0.84170000  0.01150000  0.57320000  1
  C  C60  1  0.53340000  0.99320000  0.18080000  1
  C  C61  1  0.15600000  0.98520000  0.02350000  1
  C  C62  1  0.56400000  0.98320000  0.44220000  1
  C  C63  1  0.66840000  0.97560000  0.79230000  1
  C  C64  1  0.53540000  0.94500000  0.77376000  1
  C  C65  1  0.36520000  0.94160000  0.49540000  1
  C  C66  1  0.13670000  0.92170000  0.45780000  1
  C  C67  1  0.42530000  0.92090000  0.43560000  1
  C  C68  1  0.73100000  0.91500000  0.75210000  1
  C  C69  1  0.07830000  0.86330000  0.04220000  1
  C  C70  1  0.46698000  0.85342000  0.71546000  1
  C  C71  1  0.21680000  0.85060000  0.96820000  1
  C  C72  1  0.01480000  0.84400000  0.47650000  1
  C  C73  1  0.34830000  0.83630000  0.36850000  1
  C  C74  1  0.66228000  0.82112000  0.69468000  1
  C  C75  1  0.52840000  0.78920000  0.67534000  1
  C  C76  1  0.14940000  0.78320000  0.53180000  1
  C  C77  1  0.49720000  0.75120000  0.93170000  1
  C  C78  1  0.73367000  0.75033000  0.65749000  1
  C  C79  1  0.75033000  0.73367000  0.15749000  1
  C  C80  1  0.91500000  0.73100000  0.25210000  1
  C  C81  1  0.48990000  0.69190000  0.54530000  1
  C  C82  1  0.44908000  0.68972000  0.61480000  1
  C  C83  1  0.40850000  0.67450000  0.87480000  1
  C  C84  1  0.97560000  0.66840000  0.29230000  1
  C  C85  1  0.82112000  0.66228000  0.19468000  1
  C  C86  1  0.16370000  0.65170000  0.13150000  1
  C  C87  1  0.05840000  0.63480000  0.00460000  1
  C  C88  1  0.40620000  0.59900000  0.49160000  1
  C  C89  1  0.40100000  0.59380000  0.00840000  1
  C  C90  1  0.32550000  0.59150000  0.62520000  1
  C  C91  1  0.07910000  0.57470000  0.06440000  1
  C  C92  1  0.98320000  0.56400000  0.94220000  1
  C  C93  1  0.31028000  0.55092000  0.88520000  1
  C  C94  1  0.94500000  0.53540000  0.27376000  1
  C  C95  1  0.99320000  0.53340000  0.68080000  1
  C  C96  1  0.14658000  0.53302000  0.78454000  1
  C  C97  1  0.78920000  0.52840000  0.17534000  1
  C  C98  1  0.30810000  0.51010000  0.95470000  1
  C  C99  1  0.24880000  0.50280000  0.56830000  1
  C  C100  1  0.75120000  0.49720000  0.43170000  1
  C  C101  1  0.69190000  0.48990000  0.04530000  1
  C  C102  1  0.21080000  0.47160000  0.82466000  1
  C  C103  1  0.85342000  0.46698000  0.21546000  1
  C  C104  1  0.00680000  0.46660000  0.31920000  1
  C  C105  1  0.05500000  0.46460000  0.72624000  1
  C  C106  1  0.68972000  0.44908000  0.11480000  1
  C  C107  1  0.01680000  0.43600000  0.05780000  1
  C  C108  1  0.92090000  0.42530000  0.93560000  1
  C  C109  1  0.67450000  0.40850000  0.37480000  1
  C  C110  1  0.59900000  0.40620000  0.99160000  1
  C  C111  1  0.59380000  0.40100000  0.50840000  1
  C  C112  1  0.94160000  0.36520000  0.99540000  1
  C  C113  1  0.83630000  0.34830000  0.86850000  1
  C  C114  1  0.17888000  0.33772000  0.80532000  1
  C  C115  1  0.02440000  0.33160000  0.70770000  1
  C  C116  1  0.59150000  0.32550000  0.12520000  1
  C  C117  1  0.55092000  0.31028000  0.38520000  1
  C  C118  1  0.51010000  0.30810000  0.45470000  1
  C  C119  1  0.08500000  0.26900000  0.74790000  1
  C  C120  1  0.24967000  0.26633000  0.84251000  1
  C  C121  1  0.26633000  0.24967000  0.34251000  1
  C  C122  1  0.50280000  0.24880000  0.06830000  1
  C  C123  1  0.85060000  0.21680000  0.46820000  1
  C  C124  1  0.47160000  0.21080000  0.32466000  1
  C  C125  1  0.33772000  0.17888000  0.30532000  1
  C  C126  1  0.65170000  0.16370000  0.63150000  1
  C  C127  1  0.98520000  0.15600000  0.52350000  1
  C  C128  1  0.78320000  0.14940000  0.03180000  1
  C  C129  1  0.53302000  0.14658000  0.28454000  1
  C  C130  1  0.92170000  0.13670000  0.95780000  1
  C  C131  1  0.26900000  0.08500000  0.24790000  1
  C  C132  1  0.57470000  0.07910000  0.56440000  1
  C  C133  1  0.86330000  0.07830000  0.54220000  1
  C  C134  1  0.63480000  0.05840000  0.50460000  1
  C  C135  1  0.46460000  0.05500000  0.22624000  1
  C  C136  1  0.33160000  0.02440000  0.20770000  1
  C  C137  1  0.43600000  0.01680000  0.55780000  1
  C  C138  1  0.84400000  0.01480000  0.97650000  1
  C  C139  1  0.46660000  0.00680000  0.81920000  1
  N  N140  1  0.24317000  0.97683000  0.97709000  1
  N  N141  1  0.22222000  0.88158000  0.49389000  1
  N  N142  1  0.11842000  0.77778000  0.00611000  1
  N  N143  1  0.02317000  0.75683000  0.52291000  1
  N  N144  1  0.49499000  0.71421000  0.99813000  1
  N  N145  1  0.28579000  0.50501000  0.50187000  1
  N  N146  1  0.71421000  0.49499000  0.49813000  1
  N  N147  1  0.50501000  0.28579000  0.00187000  1
  N  N148  1  0.97683000  0.24317000  0.47709000  1
  N  N149  1  0.88158000  0.22222000  0.99389000  1
  N  N150  1  0.77778000  0.11842000  0.50611000  1
  N  N151  1  0.75683000  0.02317000  0.02291000  1
  O  O152  1  0.34686000  0.98054000  0.80291000  1
  O  O153  1  0.47002000  0.91938000  0.12561000  1
  O  O154  1  0.81768000  0.83572000  0.12937000  1
  O  O155  1  0.83572000  0.81768000  0.62937000  1
  O  O156  1  0.62753000  0.69007000  0.15652000  1
  O  O157  1  0.01946000  0.65314000  0.69709000  1
  O  O158  1  0.69007000  0.62753000  0.65652000  1
  O  O159  1  0.08062000  0.52998000  0.37439000  1
  O  O160  1  0.91938000  0.47002000  0.62561000  1
  O  O161  1  0.30993000  0.37247000  0.34348000  1
  O  O162  1  0.98054000  0.34686000  0.30291000  1
  O  O163  1  0.37247000  0.30993000  0.84348000  1
  O  O164  1  0.16428000  0.18232000  0.37063000  1
  O  O165  1  0.18232000  0.16428000  0.87063000  1
  O  O166  1  0.52998000  0.08062000  0.87439000  1
  O  O167  1  0.65314000  0.01946000  0.19709000  1
