# generated using pymatgen
data_Zn6H68C120O31
_symmetry_space_group_name_H-M   'P 1'
_cell_length_a   28.83300000
_cell_length_b   30.56100000
_cell_length_c   41.68700000
_cell_angle_alpha   90.00000000
_cell_angle_beta   90.00000000
_cell_angle_gamma   90.00000000
_symmetry_Int_Tables_number   1
_chemical_formula_structural   Zn6H68C120O31
_chemical_formula_sum   'Zn24 H272 C480 O124'
_cell_volume   36733.13840303
_cell_formula_units_Z   4
loop_
 _symmetry_equiv_pos_site_id
 _symmetry_equiv_pos_as_xyz
  1  'x, y, z'
loop_
 _atom_site_type_symbol
 _atom_site_label
 _atom_site_symmetry_multiplicity
 _atom_site_fract_x
 _atom_site_fract_y
 _atom_site_fract_z
 _atom_site_occupancy
  Zn  Zn0  1  0.99620000  0.16867000  0.91241000  1
  Zn  Zn1  1  0.98446000  0.67714000  0.63621000  1
  Zn  Zn2  1  0.98159000  0.61011000  0.14795000  1
  Zn  Zn3  1  0.97853000  0.26561000  0.40753000  1
  Zn  Zn4  1  0.96905000  0.71359000  0.15185000  1
  Zn  Zn5  1  0.93066000  0.16898000  0.85402000  1
  Zn  Zn6  1  0.56934000  0.66898000  0.85402000  1
  Zn  Zn7  1  0.53095000  0.21359000  0.15185000  1
  Zn  Zn8  1  0.52147000  0.76561000  0.40753000  1
  Zn  Zn9  1  0.51841000  0.11011000  0.14795000  1
  Zn  Zn10  1  0.51554000  0.17714000  0.63621000  1
  Zn  Zn11  1  0.50380000  0.66867000  0.91241000  1
  Zn  Zn12  1  0.49620000  0.16867000  0.08759000  1
  Zn  Zn13  1  0.48446000  0.67714000  0.36379000  1
  Zn  Zn14  1  0.48159000  0.61011000  0.85205000  1
  Zn  Zn15  1  0.47853000  0.26561000  0.59247000  1
  Zn  Zn16  1  0.46905000  0.71359000  0.84815000  1
  Zn  Zn17  1  0.43066000  0.16898000  0.14598000  1
  Zn  Zn18  1  0.06934000  0.66898000  0.14598000  1
  Zn  Zn19  1  0.03095000  0.21359000  0.84815000  1
  Zn  Zn20  1  0.02147000  0.76561000  0.59247000  1
  Zn  Zn21  1  0.01841000  0.11011000  0.85205000  1
  Zn  Zn22  1  0.01554000  0.17714000  0.36379000  1
  Zn  Zn23  1  0.00380000  0.66867000  0.08759000  1
  H  H24  1  0.99050000  0.08850000  0.37940000  1
  H  H25  1  0.98870000  0.49530000  0.44000000  1
  H  H26  1  0.97980000  0.92500000  0.55170000  1
  H  H27  1  0.97460000  0.33550000  0.80340000  1
  H  H28  1  0.96830000  0.82570000  0.57800000  1
  H  H29  1  0.96710000  0.49230000  0.64640000  1
  H  H30  1  0.96530000  0.71630000  0.50250000  1
  H  H31  1  0.95270000  0.00150000  0.80560000  1
  H  H32  1  0.95250000  0.85240000  0.64750000  1
  H  H33  1  0.94080000  0.61080000  0.55750000  1
  H  H34  1  0.93690000  0.67910000  0.45810000  1
  H  H35  1  0.93620000  0.54040000  0.46820000  1
  H  H36  1  0.93540000  0.38960000  0.77530000  1
  H  H37  1  0.91890000  0.28750000  0.94780000  1
  H  H38  1  0.91870000  0.44120000  0.67030000  1
  H  H39  1  0.91700000  0.58440000  0.23450000  1
  H  H40  1  0.91490000  0.42310000  0.73430000  1
  H  H41  1  0.91240000  0.09950000  0.98940000  1
  H  H42  1  0.91240000  0.57370000  0.51310000  1
  H  H43  1  0.91180000  0.95040000  0.77570000  1
  H  H44  1  0.90640000  0.58790000  0.69760000  1
  H  H45  1  0.90460000  0.90310000  0.67230000  1
  H  H46  1  0.90188000  0.67915000  0.42446000  1
  H  H47  1  0.89930000  0.60393000  0.34133000  1
  H  H48  1  0.89640000  0.38440000  0.40920000  1
  H  H49  1  0.89580000  0.72230000  0.03060000  1
  H  H50  1  0.89250000  0.61580000  0.03440000  1
  H  H51  1  0.88920000  0.92400000  0.72830000  1
  H  H52  1  0.88740000  0.52310000  0.10260000  1
  H  H53  1  0.88430000  0.57600000  0.28500000  1
  H  H54  1  0.88020000  0.15250000  0.32900000  1
  H  H55  1  0.87840000  0.75450000  0.68640000  1
  H  H56  1  0.87620000  0.24850000  0.77910000  1
  H  H57  1  0.87390000  0.80250000  0.10550000  1
  H  H58  1  0.87198000  0.52537000  0.37845000  1
  H  H59  1  0.87100000  0.70840000  0.23130000  1
  H  H60  1  0.86590000  0.32170000  0.98130000  1
  H  H61  1  0.86510000  0.45520000  0.40590000  1
  H  H62  1  0.85800000  0.53670000  0.72150000  1
  H  H63  1  0.85630000  0.07360000  0.90320000  1
  H  H64  1  0.85470000  0.05850000  0.01400000  1
  H  H65  1  0.85377000  0.96041000  0.98210000  1
  H  H66  1  0.85170000  0.08980000  0.79070000  1
  H  H67  1  0.84110000  0.21700000  0.40850000  1
  H  H68  1  0.83930000  0.75910000  0.00150000  1
  H  H69  1  0.83830000  0.70000000  0.28180000  1
  H  H70  1  0.83700000  0.30260000  0.75100000  1
  H  H71  1  0.83250000  0.58140000  0.00710000  1
  H  H72  1  0.83040000  0.80520000  0.71120000  1
  H  H73  1  0.82750000  0.48870000  0.07540000  1
  H  H74  1  0.81972000  0.42184000  0.97737000  1
  H  H75  1  0.81740000  0.83930000  0.07640000  1
  H  H76  1  0.81440000  0.22590000  0.90270000  1
  H  H77  1  0.81180000  0.44196000  0.03151000  1
  H  H78  1  0.81080000  0.03870000  0.76080000  1
  H  H79  1  0.80716000  0.89163000  0.03516000  1
  H  H80  1  0.80460000  0.12850000  0.32170000  1
  H  H81  1  0.79934000  0.51950000  0.71317000  1
  H  H82  1  0.79870000  0.03260000  0.92780000  1
  H  H83  1  0.79109000  0.35660000  0.75549000  1
  H  H84  1  0.77450000  0.66050000  0.30990000  1
  H  H85  1  0.77192000  0.36013000  0.69431000  1
  H  H86  1  0.76550000  0.19290000  0.40120000  1
  H  H87  1  0.76319000  0.12944000  0.40604000  1
  H  H88  1  0.76289000  0.97654000  0.76054000  1
  H  H89  1  0.76140000  0.26010000  0.93630000  1
  H  H90  1  0.75770000  0.77160000  0.99990000  1
  H  H91  1  0.75570000  0.56290000  0.00340000  1
  H  H92  1  0.74430000  0.06290000  0.00340000  1
  H  H93  1  0.74230000  0.27160000  0.99990000  1
  H  H94  1  0.73860000  0.76010000  0.93630000  1
  H  H95  1  0.73711000  0.47654000  0.76054000  1
  H  H96  1  0.73681000  0.62944000  0.40604000  1
  H  H97  1  0.73450000  0.69290000  0.40120000  1
  H  H98  1  0.72808000  0.86013000  0.69431000  1
  H  H99  1  0.72550000  0.16050000  0.30990000  1
  H  H100  1  0.70891000  0.85660000  0.75549000  1
  H  H101  1  0.70130000  0.53260000  0.92780000  1
  H  H102  1  0.70066000  0.01950000  0.71317000  1
  H  H103  1  0.69540000  0.62850000  0.32170000  1
  H  H104  1  0.69284000  0.39163000  0.03516000  1
  H  H105  1  0.68920000  0.53870000  0.76080000  1
  H  H106  1  0.68820000  0.94196000  0.03151000  1
  H  H107  1  0.68560000  0.72590000  0.90270000  1
  H  H108  1  0.68260000  0.33930000  0.07640000  1
  H  H109  1  0.68028000  0.92184000  0.97737000  1
  H  H110  1  0.67250000  0.98870000  0.07540000  1
  H  H111  1  0.66960000  0.30520000  0.71120000  1
  H  H112  1  0.66750000  0.08140000  0.00710000  1
  H  H113  1  0.66300000  0.80260000  0.75100000  1
  H  H114  1  0.66170000  0.20000000  0.28180000  1
  H  H115  1  0.66070000  0.25910000  0.00150000  1
  H  H116  1  0.65890000  0.71700000  0.40850000  1
  H  H117  1  0.64830000  0.58980000  0.79070000  1
  H  H118  1  0.64623000  0.46041000  0.98210000  1
  H  H119  1  0.64530000  0.55850000  0.01400000  1
  H  H120  1  0.64370000  0.57360000  0.90320000  1
  H  H121  1  0.64200000  0.03670000  0.72150000  1
  H  H122  1  0.63490000  0.95520000  0.40590000  1
  H  H123  1  0.63410000  0.82170000  0.98130000  1
  H  H124  1  0.62900000  0.20840000  0.23130000  1
  H  H125  1  0.62802000  0.02537000  0.37845000  1
  H  H126  1  0.62610000  0.30250000  0.10550000  1
  H  H127  1  0.62380000  0.74850000  0.77910000  1
  H  H128  1  0.62160000  0.25450000  0.68640000  1
  H  H129  1  0.61980000  0.65250000  0.32900000  1
  H  H130  1  0.61570000  0.07600000  0.28500000  1
  H  H131  1  0.61260000  0.02310000  0.10260000  1
  H  H132  1  0.61080000  0.42400000  0.72830000  1
  H  H133  1  0.60750000  0.11580000  0.03440000  1
  H  H134  1  0.60420000  0.22230000  0.03060000  1
  H  H135  1  0.60360000  0.88440000  0.40920000  1
  H  H136  1  0.60070000  0.10393000  0.34133000  1
  H  H137  1  0.59812000  0.17915000  0.42446000  1
  H  H138  1  0.59540000  0.40310000  0.67230000  1
  H  H139  1  0.59360000  0.08790000  0.69760000  1
  H  H140  1  0.58820000  0.45040000  0.77570000  1
  H  H141  1  0.58760000  0.59950000  0.98940000  1
  H  H142  1  0.58760000  0.07370000  0.51310000  1
  H  H143  1  0.58510000  0.92310000  0.73430000  1
  H  H144  1  0.58300000  0.08440000  0.23450000  1
  H  H145  1  0.58130000  0.94120000  0.67030000  1
  H  H146  1  0.58110000  0.78750000  0.94780000  1
  H  H147  1  0.56460000  0.88960000  0.77530000  1
  H  H148  1  0.56380000  0.04040000  0.46820000  1
  H  H149  1  0.56310000  0.17910000  0.45810000  1
  H  H150  1  0.55920000  0.11080000  0.55750000  1
  H  H151  1  0.54750000  0.35240000  0.64750000  1
  H  H152  1  0.54730000  0.50150000  0.80560000  1
  H  H153  1  0.53470000  0.21630000  0.50250000  1
  H  H154  1  0.53290000  0.99230000  0.64640000  1
  H  H155  1  0.53170000  0.32570000  0.57800000  1
  H  H156  1  0.52540000  0.83550000  0.80340000  1
  H  H157  1  0.52020000  0.42500000  0.55170000  1
  H  H158  1  0.51130000  0.99530000  0.44000000  1
  H  H159  1  0.50950000  0.58850000  0.37940000  1
  H  H160  1  0.49050000  0.08850000  0.62060000  1
  H  H161  1  0.48870000  0.49530000  0.56000000  1
  H  H162  1  0.47980000  0.92500000  0.44830000  1
  H  H163  1  0.47460000  0.33550000  0.19660000  1
  H  H164  1  0.46830000  0.82570000  0.42200000  1
  H  H165  1  0.46710000  0.49230000  0.35360000  1
  H  H166  1  0.46530000  0.71630000  0.49750000  1
  H  H167  1  0.45270000  0.00150000  0.19440000  1
  H  H168  1  0.45250000  0.85240000  0.35250000  1
  H  H169  1  0.44080000  0.61080000  0.44250000  1
  H  H170  1  0.43690000  0.67910000  0.54190000  1
  H  H171  1  0.43620000  0.54040000  0.53180000  1
  H  H172  1  0.43540000  0.38960000  0.22470000  1
  H  H173  1  0.41890000  0.28750000  0.05220000  1
  H  H174  1  0.41870000  0.44120000  0.32970000  1
  H  H175  1  0.41700000  0.58440000  0.76550000  1
  H  H176  1  0.41490000  0.42310000  0.26570000  1
  H  H177  1  0.41240000  0.57370000  0.48690000  1
  H  H178  1  0.41240000  0.09950000  0.01060000  1
  H  H179  1  0.41180000  0.95040000  0.22430000  1
  H  H180  1  0.40640000  0.58790000  0.30240000  1
  H  H181  1  0.40460000  0.90310000  0.32770000  1
  H  H182  1  0.40188000  0.67915000  0.57554000  1
  H  H183  1  0.39930000  0.60393000  0.65867000  1
  H  H184  1  0.39640000  0.38440000  0.59080000  1
  H  H185  1  0.39580000  0.72230000  0.96940000  1
  H  H186  1  0.39250000  0.61580000  0.96560000  1
  H  H187  1  0.38920000  0.92400000  0.27170000  1
  H  H188  1  0.38740000  0.52310000  0.89740000  1
  H  H189  1  0.38430000  0.57600000  0.71500000  1
  H  H190  1  0.38020000  0.15250000  0.67100000  1
  H  H191  1  0.37840000  0.75450000  0.31360000  1
  H  H192  1  0.37620000  0.24850000  0.22090000  1
  H  H193  1  0.37390000  0.80250000  0.89450000  1
  H  H194  1  0.37198000  0.52537000  0.62155000  1
  H  H195  1  0.37100000  0.70840000  0.76870000  1
  H  H196  1  0.36590000  0.32170000  0.01870000  1
  H  H197  1  0.36510000  0.45520000  0.59410000  1
  H  H198  1  0.35800000  0.53670000  0.27850000  1
  H  H199  1  0.35630000  0.07360000  0.09680000  1
  H  H200  1  0.35470000  0.05850000  0.98600000  1
  H  H201  1  0.35377000  0.96041000  0.01790000  1
  H  H202  1  0.35170000  0.08980000  0.20930000  1
  H  H203  1  0.34110000  0.21700000  0.59150000  1
  H  H204  1  0.33930000  0.75910000  0.99850000  1
  H  H205  1  0.33830000  0.70000000  0.71820000  1
  H  H206  1  0.33700000  0.30260000  0.24900000  1
  H  H207  1  0.33250000  0.58140000  0.99290000  1
  H  H208  1  0.33040000  0.80520000  0.28880000  1
  H  H209  1  0.32750000  0.48870000  0.92460000  1
  H  H210  1  0.31972000  0.42184000  0.02263000  1
  H  H211  1  0.31740000  0.83930000  0.92360000  1
  H  H212  1  0.31440000  0.22590000  0.09730000  1
  H  H213  1  0.31180000  0.44196000  0.96849000  1
  H  H214  1  0.31080000  0.03870000  0.23920000  1
  H  H215  1  0.30716000  0.89163000  0.96484000  1
  H  H216  1  0.30460000  0.12850000  0.67830000  1
  H  H217  1  0.29934000  0.51950000  0.28683000  1
  H  H218  1  0.29870000  0.03260000  0.07220000  1
  H  H219  1  0.29109000  0.35660000  0.24451000  1
  H  H220  1  0.27450000  0.66050000  0.69010000  1
  H  H221  1  0.27192000  0.36013000  0.30569000  1
  H  H222  1  0.26550000  0.19290000  0.59880000  1
  H  H223  1  0.26319000  0.12944000  0.59396000  1
  H  H224  1  0.26289000  0.97654000  0.23946000  1
  H  H225  1  0.26140000  0.26010000  0.06370000  1
  H  H226  1  0.25770000  0.77160000  0.00010000  1
  H  H227  1  0.25570000  0.56290000  0.99660000  1
  H  H228  1  0.24430000  0.06290000  0.99660000  1
  H  H229  1  0.24230000  0.27160000  0.00010000  1
  H  H230  1  0.23860000  0.76010000  0.06370000  1
  H  H231  1  0.23711000  0.47654000  0.23946000  1
  H  H232  1  0.23681000  0.62944000  0.59396000  1
  H  H233  1  0.23450000  0.69290000  0.59880000  1
  H  H234  1  0.22808000  0.86013000  0.30569000  1
  H  H235  1  0.22550000  0.16050000  0.69010000  1
  H  H236  1  0.20891000  0.85660000  0.24451000  1
  H  H237  1  0.20130000  0.53260000  0.07220000  1
  H  H238  1  0.20066000  0.01950000  0.28683000  1
  H  H239  1  0.19540000  0.62850000  0.67830000  1
  H  H240  1  0.19284000  0.39163000  0.96484000  1
  H  H241  1  0.18920000  0.53870000  0.23920000  1
  H  H242  1  0.18820000  0.94196000  0.96849000  1
  H  H243  1  0.18560000  0.72590000  0.09730000  1
  H  H244  1  0.18260000  0.33930000  0.92360000  1
  H  H245  1  0.18028000  0.92184000  0.02263000  1
  H  H246  1  0.17250000  0.98870000  0.92460000  1
  H  H247  1  0.16960000  0.30520000  0.28880000  1
  H  H248  1  0.16750000  0.08140000  0.99290000  1
  H  H249  1  0.16300000  0.80260000  0.24900000  1
  H  H250  1  0.16170000  0.20000000  0.71820000  1
  H  H251  1  0.16070000  0.25910000  0.99850000  1
  H  H252  1  0.15890000  0.71700000  0.59150000  1
  H  H253  1  0.14830000  0.58980000  0.20930000  1
  H  H254  1  0.14623000  0.46041000  0.01790000  1
  H  H255  1  0.14530000  0.55850000  0.98600000  1
  H  H256  1  0.14370000  0.57360000  0.09680000  1
  H  H257  1  0.14200000  0.03670000  0.27850000  1
  H  H258  1  0.13490000  0.95520000  0.59410000  1
  H  H259  1  0.13410000  0.82170000  0.01870000  1
  H  H260  1  0.12900000  0.20840000  0.76870000  1
  H  H261  1  0.12802000  0.02537000  0.62155000  1
  H  H262  1  0.12610000  0.30250000  0.89450000  1
  H  H263  1  0.12380000  0.74850000  0.22090000  1
  H  H264  1  0.12160000  0.25450000  0.31360000  1
  H  H265  1  0.11980000  0.65250000  0.67100000  1
  H  H266  1  0.11570000  0.07600000  0.71500000  1
  H  H267  1  0.11260000  0.02310000  0.89740000  1
  H  H268  1  0.11080000  0.42400000  0.27170000  1
  H  H269  1  0.10750000  0.11580000  0.96560000  1
  H  H270  1  0.10420000  0.22230000  0.96940000  1
  H  H271  1  0.10360000  0.88440000  0.59080000  1
  H  H272  1  0.10070000  0.10393000  0.65867000  1
  H  H273  1  0.09812000  0.17915000  0.57554000  1
  H  H274  1  0.09540000  0.40310000  0.32770000  1
  H  H275  1  0.09360000  0.08790000  0.30240000  1
  H  H276  1  0.08820000  0.45040000  0.22430000  1
  H  H277  1  0.08760000  0.07370000  0.48690000  1
  H  H278  1  0.08760000  0.59950000  0.01060000  1
  H  H279  1  0.08510000  0.92310000  0.26570000  1
  H  H280  1  0.08300000  0.08440000  0.76550000  1
  H  H281  1  0.08130000  0.94120000  0.32970000  1
  H  H282  1  0.08110000  0.78750000  0.05220000  1
  H  H283  1  0.06460000  0.88960000  0.22470000  1
  H  H284  1  0.06380000  0.04040000  0.53180000  1
  H  H285  1  0.06310000  0.17910000  0.54190000  1
  H  H286  1  0.05920000  0.11080000  0.44250000  1
  H  H287  1  0.04750000  0.35240000  0.35250000  1
  H  H288  1  0.04730000  0.50150000  0.19440000  1
  H  H289  1  0.03470000  0.21630000  0.49750000  1
  H  H290  1  0.03290000  0.99230000  0.35360000  1
  H  H291  1  0.03170000  0.32570000  0.42200000  1
  H  H292  1  0.02540000  0.83550000  0.19660000  1
  H  H293  1  0.02020000  0.42500000  0.44830000  1
  H  H294  1  0.01130000  0.99530000  0.56000000  1
  H  H295  1  0.00950000  0.58850000  0.62060000  1
  C  C296  1  0.99090000  0.42990000  0.43970000  1
  C  C297  1  0.97370000  0.35220000  0.42580000  1
  C  C298  1  0.97250000  0.69140000  0.56150000  1
  C  C299  1  0.96950000  0.47180000  0.43510000  1
  C  C300  1  0.96370000  0.57950000  0.65290000  1
  C  C301  1  0.95910000  0.39710000  0.42890000  1
  C  C302  1  0.95590000  0.66730000  0.53436000  1
  C  C303  1  0.95470000  0.68773000  0.50460000  1
  C  C304  1  0.94750000  0.25810000  0.81860000  1
  C  C305  1  0.94700000  0.32890000  0.79290000  1
  C  C306  1  0.94680000  0.76570000  0.64880000  1
  C  C307  1  0.94530000  0.50120000  0.66150000  1
  C  C308  1  0.94160000  0.54520000  0.66970000  1
  C  C309  1  0.94000000  0.62450000  0.53755000  1
  C  C310  1  0.93760000  0.66540000  0.47801000  1
  C  C311  1  0.93600000  0.08330000  0.81510000  1
  C  C312  1  0.93490000  0.59300000  0.08870000  1
  C  C313  1  0.93150000  0.10770000  0.92870000  1
  C  C314  1  0.92930000  0.28670000  0.79400000  1
  C  C315  1  0.92810000  0.84290000  0.66020000  1
  C  C316  1  0.92430000  0.00900000  0.79660000  1
  C  C317  1  0.92420000  0.48420000  0.42430000  1
  C  C318  1  0.92350000  0.36130000  0.77600000  1
  C  C319  1  0.92300000  0.60230000  0.51100000  1
  C  C320  1  0.92180000  0.62270000  0.48120000  1
  C  C321  1  0.92170000  0.73360000  0.09030000  1
  C  C322  1  0.92070000  0.65270000  0.19800000  1
  C  C323  1  0.92020000  0.79840000  0.66450000  1
  C  C324  1  0.91940000  0.55280000  0.45151000  1
  C  C325  1  0.91630000  0.47060000  0.67580000  1
  C  C326  1  0.91550000  0.19970000  0.37480000  1
  C  C327  1  0.91450000  0.40770000  0.41640000  1
  C  C328  1  0.90890000  0.55850000  0.69210000  1
  C  C329  1  0.90710000  0.52760000  0.42511000  1
  C  C330  1  0.90650000  0.59660000  0.45291000  1
  C  C331  1  0.90630000  0.05070000  0.80110000  1
  C  C332  1  0.90570000  0.22950000  0.90350000  1
  C  C333  1  0.90120000  0.60760000  0.24400000  1
  C  C334  1  0.89970000  0.97840000  0.77870000  1
  C  C335  1  0.89930000  0.87330000  0.67510000  1
  C  C336  1  0.89720000  0.64720000  0.22794000  1
  C  C337  1  0.89590000  0.57290000  0.07120000  1
  C  C338  1  0.89480000  0.45020000  0.41380000  1
  C  C339  1  0.89040000  0.75880000  0.07090000  1
  C  C340  1  0.89010000  0.09060000  0.94390000  1
  C  C341  1  0.88960000  0.08610000  0.97710000  1
  C  C342  1  0.88810000  0.27680000  0.77830000  1
  C  C343  1  0.88730000  0.28200000  0.94550000  1
  C  C344  1  0.88360000  0.48390000  0.69830000  1
  C  C345  1  0.88360000  0.78430000  0.68350000  1
  C  C346  1  0.88270000  0.42200000  0.73300000  1
  C  C347  1  0.88230000  0.35150000  0.76033000  1
  C  C348  1  0.88200000  0.54610000  0.40011000  1
  C  C349  1  0.88170000  0.60250000  0.27430000  1
  C  C350  1  0.88140000  0.61510000  0.42790000  1
  C  C351  1  0.88010000  0.74580000  0.03980000  1
  C  C352  1  0.87990000  0.52780000  0.70650000  1
  C  C353  1  0.87940000  0.59030000  0.04260000  1
  C  C354  1  0.87640000  0.53480000  0.08350000  1
  C  C355  1  0.87360000  0.68190000  0.24210000  1
  C  C356  1  0.87190000  0.25330000  0.92190000  1
  C  C357  1  0.86910000  0.58990000  0.40151000  1
  C  C358  1  0.86810000  0.18710000  0.36950000  1
  C  C359  1  0.86700000  0.79380000  0.08462000  1
  C  C360  1  0.86460000  0.30920000  0.76147000  1
  C  C361  1  0.86370000  0.06190000  0.78770000  1
  C  C362  1  0.86280000  0.85920000  0.69420000  1
  C  C363  1  0.86220000  0.61530000  0.34580000  1
  C  C364  1  0.85880000  0.38700000  0.74643000  1
  C  C365  1  0.85850000  0.45520000  0.71756000  1
  C  C366  1  0.85810000  0.63720000  0.28843000  1
  C  C367  1  0.85720000  0.98950000  0.76530000  1
  C  C368  1  0.85720000  0.16060000  0.34348000  1
  C  C369  1  0.85700000  0.92290000  0.72840000  1
  C  C370  1  0.85600000  0.07060000  0.92545000  1
  C  C371  1  0.85560000  0.30250000  0.96560000  1
  C  C372  1  0.85500000  0.06150000  0.99180000  1
  C  C373  1  0.85490000  0.81470000  0.69842000  1
  C  C374  1  0.85410000  0.67680000  0.27230000  1
  C  C375  1  0.84620000  0.76780000  0.02235000  1
  C  C376  1  0.84350000  0.56970000  0.02629000  1
  C  C377  1  0.84240000  0.61050000  0.37600000  1
  C  C378  1  0.84050000  0.51420000  0.06720000  1
  C  C379  1  0.83920000  0.03120000  0.76979000  1
  C  C380  1  0.83670000  0.63400000  0.32102000  1
  C  C381  1  0.83410000  0.89070000  0.71100000  1
  C  C382  1  0.83380000  0.19920000  0.39114000  1
  C  C383  1  0.83310000  0.81590000  0.06720000  1
  C  C384  1  0.83170000  0.95330000  0.74600000  1
  C  C385  1  0.82470000  0.24510000  0.91850000  1
  C  C386  1  0.82410000  0.53160000  0.03860000  1
  C  C387  1  0.82280000  0.80280000  0.03610000  1
  C  C388  1  0.82150000  0.04600000  0.94020000  1
  C  C389  1  0.82100000  0.04150000  0.97330000  1
  C  C390  1  0.81190000  0.14620000  0.33910000  1
  C  C391  1  0.81070000  0.38530000  0.74448000  1
  C  C392  1  0.81040000  0.45360000  0.71561000  1
  C  C393  1  0.80840000  0.29430000  0.96220000  1
  C  C394  1  0.79720000  0.62450000  0.38146000  1
  C  C395  1  0.79300000  0.26560000  0.93860000  1
  C  C396  1  0.79150000  0.64800000  0.32647000  1
  C  C397  1  0.78850000  0.18480000  0.38676000  1
  C  C398  1  0.78720000  0.50770000  0.01890000  1
  C  C399  1  0.78650000  0.41860000  0.72910000  1
  C  C400  1  0.78590000  0.88900000  0.71110000  1
  C  C401  1  0.78560000  0.82630000  0.01920000  1
  C  C402  1  0.78460000  0.46230000  0.01840000  1
  C  C403  1  0.78440000  0.96650000  0.98600000  1
  C  C404  1  0.78360000  0.95160000  0.74610000  1
  C  C405  1  0.78270000  0.87170000  0.01940000  1
  C  C406  1  0.78180000  0.01190000  0.98660000  1
  C  C407  1  0.77990000  0.36850000  0.98120000  1
  C  C408  1  0.77760000  0.15830000  0.36070000  1
  C  C409  1  0.77700000  0.32310000  0.98100000  1
  C  C410  1  0.77180000  0.64320000  0.35670000  1
  C  C411  1  0.76060000  0.91950000  0.72860000  1
  C  C412  1  0.75580000  0.80200000  0.00000000  1
  C  C413  1  0.75400000  0.53250000  0.00300000  1
  C  C414  1  0.75120000  0.94170000  0.00190000  1
  C  C415  1  0.75000000  0.89280000  0.00040000  1
  C  C416  1  0.75000000  0.39280000  0.00040000  1
  C  C417  1  0.74880000  0.44170000  0.00190000  1
  C  C418  1  0.74600000  0.03250000  0.00300000  1
  C  C419  1  0.74420000  0.30200000  0.00000000  1
  C  C420  1  0.73940000  0.41950000  0.72860000  1
  C  C421  1  0.72820000  0.14320000  0.35670000  1
  C  C422  1  0.72300000  0.82310000  0.98100000  1
  C  C423  1  0.72240000  0.65830000  0.36070000  1
  C  C424  1  0.72010000  0.86850000  0.98120000  1
  C  C425  1  0.71820000  0.51190000  0.98660000  1
  C  C426  1  0.71730000  0.37170000  0.01940000  1
  C  C427  1  0.71640000  0.45160000  0.74610000  1
  C  C428  1  0.71560000  0.46650000  0.98600000  1
  C  C429  1  0.71540000  0.96230000  0.01840000  1
  C  C430  1  0.71440000  0.32630000  0.01920000  1
  C  C431  1  0.71410000  0.38900000  0.71110000  1
  C  C432  1  0.71350000  0.91860000  0.72910000  1
  C  C433  1  0.71280000  0.00770000  0.01890000  1
  C  C434  1  0.71150000  0.68480000  0.38676000  1
  C  C435  1  0.70850000  0.14800000  0.32647000  1
  C  C436  1  0.70700000  0.76560000  0.93860000  1
  C  C437  1  0.70280000  0.12450000  0.38146000  1
  C  C438  1  0.69160000  0.79430000  0.96220000  1
  C  C439  1  0.68960000  0.95360000  0.71561000  1
  C  C440  1  0.68930000  0.88530000  0.74448000  1
  C  C441  1  0.68810000  0.64620000  0.33910000  1
  C  C442  1  0.67900000  0.54150000  0.97330000  1
  C  C443  1  0.67850000  0.54600000  0.94020000  1
  C  C444  1  0.67720000  0.30280000  0.03610000  1
  C  C445  1  0.67590000  0.03160000  0.03860000  1
  C  C446  1  0.67530000  0.74510000  0.91850000  1
  C  C447  1  0.66830000  0.45330000  0.74600000  1
  C  C448  1  0.66690000  0.31590000  0.06720000  1
  C  C449  1  0.66620000  0.69920000  0.39114000  1
  C  C450  1  0.66590000  0.39070000  0.71100000  1
  C  C451  1  0.66330000  0.13400000  0.32102000  1
  C  C452  1  0.66080000  0.53120000  0.76979000  1
  C  C453  1  0.65950000  0.01420000  0.06720000  1
  C  C454  1  0.65760000  0.11050000  0.37600000  1
  C  C455  1  0.65650000  0.06970000  0.02629000  1
  C  C456  1  0.65380000  0.26780000  0.02235000  1
  C  C457  1  0.64590000  0.17680000  0.27230000  1
  C  C458  1  0.64510000  0.31470000  0.69842000  1
  C  C459  1  0.64500000  0.56150000  0.99180000  1
  C  C460  1  0.64440000  0.80250000  0.96560000  1
  C  C461  1  0.64400000  0.57060000  0.92545000  1
  C  C462  1  0.64300000  0.42290000  0.72840000  1
  C  C463  1  0.64280000  0.48950000  0.76530000  1
  C  C464  1  0.64280000  0.66060000  0.34348000  1
  C  C465  1  0.64190000  0.13720000  0.28843000  1
  C  C466  1  0.64150000  0.95520000  0.71756000  1
  C  C467  1  0.64120000  0.88700000  0.74643000  1
  C  C468  1  0.63780000  0.11530000  0.34580000  1
  C  C469  1  0.63720000  0.35920000  0.69420000  1
  C  C470  1  0.63630000  0.56190000  0.78770000  1
  C  C471  1  0.63540000  0.80920000  0.76147000  1
  C  C472  1  0.63300000  0.29380000  0.08462000  1
  C  C473  1  0.63190000  0.68710000  0.36950000  1
  C  C474  1  0.63090000  0.08990000  0.40151000  1
  C  C475  1  0.62810000  0.75330000  0.92190000  1
  C  C476  1  0.62640000  0.18190000  0.24210000  1
  C  C477  1  0.62360000  0.03480000  0.08350000  1
  C  C478  1  0.62060000  0.09030000  0.04260000  1
  C  C479  1  0.62010000  0.02780000  0.70650000  1
  C  C480  1  0.61990000  0.24580000  0.03980000  1
  C  C481  1  0.61860000  0.11510000  0.42790000  1
  C  C482  1  0.61830000  0.10250000  0.27430000  1
  C  C483  1  0.61800000  0.04610000  0.40011000  1
  C  C484  1  0.61770000  0.85150000  0.76033000  1
  C  C485  1  0.61730000  0.92200000  0.73300000  1
  C  C486  1  0.61640000  0.98390000  0.69830000  1
  C  C487  1  0.61640000  0.28430000  0.68350000  1
  C  C488  1  0.61270000  0.78200000  0.94550000  1
  C  C489  1  0.61190000  0.77680000  0.77830000  1
  C  C490  1  0.61040000  0.58610000  0.97710000  1
  C  C491  1  0.60990000  0.59060000  0.94390000  1
  C  C492  1  0.60960000  0.25880000  0.07090000  1
  C  C493  1  0.60520000  0.95020000  0.41380000  1
  C  C494  1  0.60410000  0.07290000  0.07120000  1
  C  C495  1  0.60280000  0.14720000  0.22794000  1
  C  C496  1  0.60070000  0.37330000  0.67510000  1
  C  C497  1  0.60030000  0.47840000  0.77870000  1
  C  C498  1  0.59880000  0.10760000  0.24400000  1
  C  C499  1  0.59430000  0.72950000  0.90350000  1
  C  C500  1  0.59370000  0.55070000  0.80110000  1
  C  C501  1  0.59350000  0.09660000  0.45291000  1
  C  C502  1  0.59290000  0.02760000  0.42511000  1
  C  C503  1  0.59110000  0.05850000  0.69210000  1
  C  C504  1  0.58550000  0.90770000  0.41640000  1
  C  C505  1  0.58450000  0.69970000  0.37480000  1
  C  C506  1  0.58370000  0.97060000  0.67580000  1
  C  C507  1  0.58060000  0.05280000  0.45151000  1
  C  C508  1  0.57980000  0.29840000  0.66450000  1
  C  C509  1  0.57930000  0.15270000  0.19800000  1
  C  C510  1  0.57830000  0.23360000  0.09030000  1
  C  C511  1  0.57820000  0.12270000  0.48120000  1
  C  C512  1  0.57700000  0.10230000  0.51100000  1
  C  C513  1  0.57650000  0.86130000  0.77600000  1
  C  C514  1  0.57580000  0.98420000  0.42430000  1
  C  C515  1  0.57570000  0.50900000  0.79660000  1
  C  C516  1  0.57190000  0.34290000  0.66020000  1
  C  C517  1  0.57070000  0.78670000  0.79400000  1
  C  C518  1  0.56850000  0.60770000  0.92870000  1
  C  C519  1  0.56510000  0.09300000  0.08870000  1
  C  C520  1  0.56400000  0.58330000  0.81510000  1
  C  C521  1  0.56240000  0.16540000  0.47801000  1
  C  C522  1  0.56000000  0.12450000  0.53755000  1
  C  C523  1  0.55840000  0.04520000  0.66970000  1
  C  C524  1  0.55470000  0.00120000  0.66150000  1
  C  C525  1  0.55320000  0.26570000  0.64880000  1
  C  C526  1  0.55300000  0.82890000  0.79290000  1
  C  C527  1  0.55250000  0.75810000  0.81860000  1
  C  C528  1  0.54530000  0.18773000  0.50460000  1
  C  C529  1  0.54410000  0.16730000  0.53436000  1
  C  C530  1  0.54090000  0.89710000  0.42890000  1
  C  C531  1  0.53630000  0.07950000  0.65290000  1
  C  C532  1  0.53050000  0.97180000  0.43510000  1
  C  C533  1  0.52750000  0.19140000  0.56150000  1
  C  C534  1  0.52630000  0.85220000  0.42580000  1
  C  C535  1  0.50910000  0.92990000  0.43970000  1
  C  C536  1  0.49090000  0.42990000  0.56030000  1
  C  C537  1  0.47370000  0.35220000  0.57420000  1
  C  C538  1  0.47250000  0.69140000  0.43850000  1
  C  C539  1  0.46950000  0.47180000  0.56490000  1
  C  C540  1  0.46370000  0.57950000  0.34710000  1
  C  C541  1  0.45910000  0.39710000  0.57110000  1
  C  C542  1  0.45590000  0.66730000  0.46564000  1
  C  C543  1  0.45470000  0.68773000  0.49540000  1
  C  C544  1  0.44750000  0.25810000  0.18140000  1
  C  C545  1  0.44700000  0.32890000  0.20710000  1
  C  C546  1  0.44680000  0.76570000  0.35120000  1
  C  C547  1  0.44530000  0.50120000  0.33850000  1
  C  C548  1  0.44160000  0.54520000  0.33030000  1
  C  C549  1  0.44000000  0.62450000  0.46245000  1
  C  C550  1  0.43760000  0.66540000  0.52199000  1
  C  C551  1  0.43600000  0.08330000  0.18490000  1
  C  C552  1  0.43490000  0.59300000  0.91130000  1
  C  C553  1  0.43150000  0.10770000  0.07130000  1
  C  C554  1  0.42930000  0.28670000  0.20600000  1
  C  C555  1  0.42810000  0.84290000  0.33980000  1
  C  C556  1  0.42430000  0.00900000  0.20340000  1
  C  C557  1  0.42420000  0.48420000  0.57570000  1
  C  C558  1  0.42350000  0.36130000  0.22400000  1
  C  C559  1  0.42300000  0.60230000  0.48900000  1
  C  C560  1  0.42180000  0.62270000  0.51880000  1
  C  C561  1  0.42170000  0.73360000  0.90970000  1
  C  C562  1  0.42070000  0.65270000  0.80200000  1
  C  C563  1  0.42020000  0.79840000  0.33550000  1
  C  C564  1  0.41940000  0.55280000  0.54849000  1
  C  C565  1  0.41630000  0.47060000  0.32420000  1
  C  C566  1  0.41550000  0.19970000  0.62520000  1
  C  C567  1  0.41450000  0.40770000  0.58360000  1
  C  C568  1  0.40890000  0.55850000  0.30790000  1
  C  C569  1  0.40710000  0.52760000  0.57489000  1
  C  C570  1  0.40650000  0.59660000  0.54709000  1
  C  C571  1  0.40630000  0.05070000  0.19890000  1
  C  C572  1  0.40570000  0.22950000  0.09650000  1
  C  C573  1  0.40120000  0.60760000  0.75600000  1
  C  C574  1  0.39970000  0.97840000  0.22130000  1
  C  C575  1  0.39930000  0.87330000  0.32490000  1
  C  C576  1  0.39720000  0.64720000  0.77206000  1
  C  C577  1  0.39590000  0.57290000  0.92880000  1
  C  C578  1  0.39480000  0.45020000  0.58620000  1
  C  C579  1  0.39040000  0.75880000  0.92910000  1
  C  C580  1  0.39010000  0.09060000  0.05610000  1
  C  C581  1  0.38960000  0.08610000  0.02290000  1
  C  C582  1  0.38810000  0.27680000  0.22170000  1
  C  C583  1  0.38730000  0.28200000  0.05450000  1
  C  C584  1  0.38360000  0.78430000  0.31650000  1
  C  C585  1  0.38360000  0.48390000  0.30170000  1
  C  C586  1  0.38270000  0.42200000  0.26700000  1
  C  C587  1  0.38230000  0.35150000  0.23967000  1
  C  C588  1  0.38200000  0.54610000  0.59989000  1
  C  C589  1  0.38170000  0.60250000  0.72570000  1
  C  C590  1  0.38140000  0.61510000  0.57210000  1
  C  C591  1  0.38010000  0.74580000  0.96020000  1
  C  C592  1  0.37990000  0.52780000  0.29350000  1
  C  C593  1  0.37940000  0.59030000  0.95740000  1
  C  C594  1  0.37640000  0.53480000  0.91650000  1
  C  C595  1  0.37360000  0.68190000  0.75790000  1
  C  C596  1  0.37190000  0.25330000  0.07810000  1
  C  C597  1  0.36910000  0.58990000  0.59849000  1
  C  C598  1  0.36810000  0.18710000  0.63050000  1
  C  C599  1  0.36700000  0.79380000  0.91538000  1
  C  C600  1  0.36460000  0.30920000  0.23853000  1
  C  C601  1  0.36370000  0.06190000  0.21230000  1
  C  C602  1  0.36280000  0.85920000  0.30580000  1
  C  C603  1  0.36220000  0.61530000  0.65420000  1
  C  C604  1  0.35880000  0.38700000  0.25357000  1
  C  C605  1  0.35850000  0.45520000  0.28244000  1
  C  C606  1  0.35810000  0.63720000  0.71157000  1
  C  C607  1  0.35720000  0.16060000  0.65652000  1
  C  C608  1  0.35720000  0.98950000  0.23470000  1
  C  C609  1  0.35700000  0.92290000  0.27160000  1
  C  C610  1  0.35600000  0.07060000  0.07455000  1
  C  C611  1  0.35560000  0.30250000  0.03440000  1
  C  C612  1  0.35500000  0.06150000  0.00820000  1
  C  C613  1  0.35490000  0.81470000  0.30158000  1
  C  C614  1  0.35410000  0.67680000  0.72770000  1
  C  C615  1  0.34620000  0.76780000  0.97765000  1
  C  C616  1  0.34350000  0.56970000  0.97371000  1
  C  C617  1  0.34240000  0.61050000  0.62400000  1
  C  C618  1  0.34050000  0.51420000  0.93280000  1
  C  C619  1  0.33920000  0.03120000  0.23021000  1
  C  C620  1  0.33670000  0.63400000  0.67898000  1
  C  C621  1  0.33410000  0.89070000  0.28900000  1
  C  C622  1  0.33380000  0.19920000  0.60886000  1
  C  C623  1  0.33310000  0.81590000  0.93280000  1
  C  C624  1  0.33170000  0.95330000  0.25400000  1
  C  C625  1  0.32470000  0.24510000  0.08150000  1
  C  C626  1  0.32410000  0.53160000  0.96140000  1
  C  C627  1  0.32280000  0.80280000  0.96390000  1
  C  C628  1  0.32150000  0.04600000  0.05980000  1
  C  C629  1  0.32100000  0.04150000  0.02670000  1
  C  C630  1  0.31190000  0.14620000  0.66090000  1
  C  C631  1  0.31070000  0.38530000  0.25552000  1
  C  C632  1  0.31040000  0.45360000  0.28439000  1
  C  C633  1  0.30840000  0.29430000  0.03780000  1
  C  C634  1  0.29720000  0.62450000  0.61854000  1
  C  C635  1  0.29300000  0.26560000  0.06140000  1
  C  C636  1  0.29150000  0.64800000  0.67353000  1
  C  C637  1  0.28850000  0.18480000  0.61324000  1
  C  C638  1  0.28720000  0.50770000  0.98110000  1
  C  C639  1  0.28650000  0.41860000  0.27090000  1
  C  C640  1  0.28590000  0.88900000  0.28890000  1
  C  C641  1  0.28560000  0.82630000  0.98080000  1
  C  C642  1  0.28460000  0.46230000  0.98160000  1
  C  C643  1  0.28440000  0.96650000  0.01400000  1
  C  C644  1  0.28360000  0.95160000  0.25390000  1
  C  C645  1  0.28270000  0.87170000  0.98060000  1
  C  C646  1  0.28180000  0.01190000  0.01340000  1
  C  C647  1  0.27990000  0.36850000  0.01880000  1
  C  C648  1  0.27760000  0.15830000  0.63930000  1
  C  C649  1  0.27700000  0.32310000  0.01900000  1
  C  C650  1  0.27180000  0.64320000  0.64330000  1
  C  C651  1  0.26060000  0.91950000  0.27140000  1
  C  C652  1  0.25580000  0.80200000  0.00000000  1
  C  C653  1  0.25400000  0.53250000  0.99700000  1
  C  C654  1  0.25120000  0.94170000  0.99810000  1
  C  C655  1  0.25000000  0.89280000  0.99960000  1
  C  C656  1  0.25000000  0.39280000  0.99960000  1
  C  C657  1  0.24880000  0.44170000  0.99810000  1
  C  C658  1  0.24600000  0.03250000  0.99700000  1
  C  C659  1  0.24420000  0.30200000  0.00000000  1
  C  C660  1  0.23940000  0.41950000  0.27140000  1
  C  C661  1  0.22820000  0.14320000  0.64330000  1
  C  C662  1  0.22300000  0.82310000  0.01900000  1
  C  C663  1  0.22240000  0.65830000  0.63930000  1
  C  C664  1  0.22010000  0.86850000  0.01880000  1
  C  C665  1  0.21820000  0.51190000  0.01340000  1
  C  C666  1  0.21730000  0.37170000  0.98060000  1
  C  C667  1  0.21640000  0.45160000  0.25390000  1
  C  C668  1  0.21560000  0.46650000  0.01400000  1
  C  C669  1  0.21540000  0.96230000  0.98160000  1
  C  C670  1  0.21440000  0.32630000  0.98080000  1
  C  C671  1  0.21410000  0.38900000  0.28890000  1
  C  C672  1  0.21350000  0.91860000  0.27090000  1
  C  C673  1  0.21280000  0.00770000  0.98110000  1
  C  C674  1  0.21150000  0.68480000  0.61324000  1
  C  C675  1  0.20850000  0.14800000  0.67353000  1
  C  C676  1  0.20700000  0.76560000  0.06140000  1
  C  C677  1  0.20280000  0.12450000  0.61854000  1
  C  C678  1  0.19160000  0.79430000  0.03780000  1
  C  C679  1  0.18960000  0.95360000  0.28439000  1
  C  C680  1  0.18930000  0.88530000  0.25552000  1
  C  C681  1  0.18810000  0.64620000  0.66090000  1
  C  C682  1  0.17900000  0.54150000  0.02670000  1
  C  C683  1  0.17850000  0.54600000  0.05980000  1
  C  C684  1  0.17720000  0.30280000  0.96390000  1
  C  C685  1  0.17590000  0.03160000  0.96140000  1
  C  C686  1  0.17530000  0.74510000  0.08150000  1
  C  C687  1  0.16830000  0.45330000  0.25400000  1
  C  C688  1  0.16690000  0.31590000  0.93280000  1
  C  C689  1  0.16620000  0.69920000  0.60886000  1
  C  C690  1  0.16590000  0.39070000  0.28900000  1
  C  C691  1  0.16330000  0.13400000  0.67898000  1
  C  C692  1  0.16080000  0.53120000  0.23021000  1
  C  C693  1  0.15950000  0.01420000  0.93280000  1
  C  C694  1  0.15760000  0.11050000  0.62400000  1
  C  C695  1  0.15650000  0.06970000  0.97371000  1
  C  C696  1  0.15380000  0.26780000  0.97765000  1
  C  C697  1  0.14590000  0.17680000  0.72770000  1
  C  C698  1  0.14510000  0.31470000  0.30158000  1
  C  C699  1  0.14500000  0.56150000  0.00820000  1
  C  C700  1  0.14440000  0.80250000  0.03440000  1
  C  C701  1  0.14400000  0.57060000  0.07455000  1
  C  C702  1  0.14300000  0.42290000  0.27160000  1
  C  C703  1  0.14280000  0.66060000  0.65652000  1
  C  C704  1  0.14280000  0.48950000  0.23470000  1
  C  C705  1  0.14190000  0.13720000  0.71157000  1
  C  C706  1  0.14150000  0.95520000  0.28244000  1
  C  C707  1  0.14120000  0.88700000  0.25357000  1
  C  C708  1  0.13780000  0.11530000  0.65420000  1
  C  C709  1  0.13720000  0.35920000  0.30580000  1
  C  C710  1  0.13630000  0.56190000  0.21230000  1
  C  C711  1  0.13540000  0.80920000  0.23853000  1
  C  C712  1  0.13300000  0.29380000  0.91538000  1
  C  C713  1  0.13190000  0.68710000  0.63050000  1
  C  C714  1  0.13090000  0.08990000  0.59849000  1
  C  C715  1  0.12810000  0.75330000  0.07810000  1
  C  C716  1  0.12640000  0.18190000  0.75790000  1
  C  C717  1  0.12360000  0.03480000  0.91650000  1
  C  C718  1  0.12060000  0.09030000  0.95740000  1
  C  C719  1  0.12010000  0.02780000  0.29350000  1
  C  C720  1  0.11990000  0.24580000  0.96020000  1
  C  C721  1  0.11860000  0.11510000  0.57210000  1
  C  C722  1  0.11830000  0.10250000  0.72570000  1
  C  C723  1  0.11800000  0.04610000  0.59989000  1
  C  C724  1  0.11770000  0.85150000  0.23967000  1
  C  C725  1  0.11730000  0.92200000  0.26700000  1
  C  C726  1  0.11640000  0.28430000  0.31650000  1
  C  C727  1  0.11640000  0.98390000  0.30170000  1
  C  C728  1  0.11270000  0.78200000  0.05450000  1
  C  C729  1  0.11190000  0.77680000  0.22170000  1
  C  C730  1  0.11040000  0.58610000  0.02290000  1
  C  C731  1  0.10990000  0.59060000  0.05610000  1
  C  C732  1  0.10960000  0.25880000  0.92910000  1
  C  C733  1  0.10520000  0.95020000  0.58620000  1
  C  C734  1  0.10410000  0.07290000  0.92880000  1
  C  C735  1  0.10280000  0.14720000  0.77206000  1
  C  C736  1  0.10070000  0.37330000  0.32490000  1
  C  C737  1  0.10030000  0.47840000  0.22130000  1
  C  C738  1  0.09880000  0.10760000  0.75600000  1
  C  C739  1  0.09430000  0.72950000  0.09650000  1
  C  C740  1  0.09370000  0.55070000  0.19890000  1
  C  C741  1  0.09350000  0.09660000  0.54709000  1
  C  C742  1  0.09290000  0.02760000  0.57489000  1
  C  C743  1  0.09110000  0.05850000  0.30790000  1
  C  C744  1  0.08550000  0.90770000  0.58360000  1
  C  C745  1  0.08450000  0.69970000  0.62520000  1
  C  C746  1  0.08370000  0.97060000  0.32420000  1
  C  C747  1  0.08060000  0.05280000  0.54849000  1
  C  C748  1  0.07980000  0.29840000  0.33550000  1
  C  C749  1  0.07930000  0.15270000  0.80200000  1
  C  C750  1  0.07830000  0.23360000  0.90970000  1
  C  C751  1  0.07820000  0.12270000  0.51880000  1
  C  C752  1  0.07700000  0.10230000  0.48900000  1
  C  C753  1  0.07650000  0.86130000  0.22400000  1
  C  C754  1  0.07580000  0.98420000  0.57570000  1
  C  C755  1  0.07570000  0.50900000  0.20340000  1
  C  C756  1  0.07190000  0.34290000  0.33980000  1
  C  C757  1  0.07070000  0.78670000  0.20600000  1
  C  C758  1  0.06850000  0.60770000  0.07130000  1
  C  C759  1  0.06510000  0.09300000  0.91130000  1
  C  C760  1  0.06400000  0.58330000  0.18490000  1
  C  C761  1  0.06240000  0.16540000  0.52199000  1
  C  C762  1  0.06000000  0.12450000  0.46245000  1
  C  C763  1  0.05840000  0.04520000  0.33030000  1
  C  C764  1  0.05470000  0.00120000  0.33850000  1
  C  C765  1  0.05320000  0.26570000  0.35120000  1
  C  C766  1  0.05300000  0.82890000  0.20710000  1
  C  C767  1  0.05250000  0.75810000  0.18140000  1
  C  C768  1  0.04530000  0.18773000  0.49540000  1
  C  C769  1  0.04410000  0.16730000  0.46564000  1
  C  C770  1  0.04090000  0.89710000  0.57110000  1
  C  C771  1  0.03630000  0.07950000  0.34710000  1
  C  C772  1  0.03050000  0.97180000  0.56490000  1
  C  C773  1  0.02750000  0.19140000  0.43850000  1
  C  C774  1  0.02630000  0.85220000  0.57420000  1
  C  C775  1  0.00910000  0.92990000  0.56030000  1
  O  O776  1  0.99860000  0.56660000  0.62910000  1
  O  O777  1  0.99520000  0.25790000  0.82490000  1
  O  O778  1  0.99160000  0.16540000  0.86523000  1
  O  O779  1  0.99050000  0.73430000  0.55874000  1
  O  O780  1  0.98130000  0.77800000  0.62520000  1
  O  O781  1  0.97930000  0.84390000  0.56570000  1
  O  O782  1  0.97550000  0.67040000  0.59182000  1
  O  O783  1  0.97510000  0.07110000  0.83336000  1
  O  O784  1  0.96060000  0.62400000  0.65440000  1
  O  O785  1  0.95950000  0.71600000  0.07286000  1
  O  O786  1  0.95520000  0.14360000  0.94210000  1
  O  O787  1  0.95190000  0.63330000  0.07610000  1
  O  O788  1  0.95120000  0.18010000  0.35673000  1
  O  O789  1  0.94870000  0.21960000  0.91750000  1
  O  O790  1  0.94750000  0.72100000  0.65740000  1
  O  O791  1  0.94570000  0.31880000  0.41600000  1
  O  O792  1  0.94240000  0.57690000  0.12010000  1
  O  O793  1  0.94040000  0.61440000  0.18530000  1
  O  O794  1  0.93400000  0.21340000  0.81720000  1
  O  O795  1  0.92900000  0.74470000  0.12252000  1
  O  O796  1  0.92710000  0.69580000  0.18621000  1
  O  O797  1  0.92660000  0.11390000  0.89550000  1
  O  O798  1  0.92650000  0.23070000  0.39776000  1
  O  O799  1  0.91380000  0.12300000  0.82340000  1
  O  O800  1  0.88650000  0.20160000  0.87980000  1
  O  O801  1  0.87050000  0.65940000  0.42980000  1
  O  O802  1  0.82120000  0.94680000  0.97200000  1
  O  O803  1  0.81090000  0.39130000  0.96430000  1
  O  O804  1  0.78830000  0.48870000  0.70130000  1
  O  O805  1  0.77280000  0.61720000  0.40900000  1
  O  O806  1  0.76640000  0.85840000  0.69210000  1
  O  O807  1  0.73360000  0.35840000  0.69210000  1
  O  O808  1  0.72720000  0.11720000  0.40900000  1
  O  O809  1  0.71170000  0.98870000  0.70130000  1
  O  O810  1  0.68910000  0.89130000  0.96430000  1
  O  O811  1  0.67880000  0.44680000  0.97200000  1
  O  O812  1  0.62950000  0.15940000  0.42980000  1
  O  O813  1  0.61350000  0.70160000  0.87980000  1
  O  O814  1  0.58620000  0.62300000  0.82340000  1
  O  O815  1  0.57350000  0.73070000  0.39776000  1
  O  O816  1  0.57340000  0.61390000  0.89550000  1
  O  O817  1  0.57290000  0.19580000  0.18621000  1
  O  O818  1  0.57100000  0.24470000  0.12252000  1
  O  O819  1  0.56600000  0.71340000  0.81720000  1
  O  O820  1  0.55960000  0.11440000  0.18530000  1
  O  O821  1  0.55760000  0.07690000  0.12010000  1
  O  O822  1  0.55430000  0.81880000  0.41600000  1
  O  O823  1  0.55250000  0.22100000  0.65740000  1
  O  O824  1  0.55130000  0.71960000  0.91750000  1
  O  O825  1  0.54880000  0.68010000  0.35673000  1
  O  O826  1  0.54810000  0.13330000  0.07610000  1
  O  O827  1  0.54480000  0.64360000  0.94210000  1
  O  O828  1  0.54050000  0.21600000  0.07286000  1
  O  O829  1  0.53940000  0.12400000  0.65440000  1
  O  O830  1  0.52490000  0.57110000  0.83336000  1
  O  O831  1  0.52450000  0.17040000  0.59182000  1
  O  O832  1  0.52070000  0.34390000  0.56570000  1
  O  O833  1  0.51870000  0.27800000  0.62520000  1
  O  O834  1  0.50950000  0.23430000  0.55874000  1
  O  O835  1  0.50840000  0.66540000  0.86523000  1
  O  O836  1  0.50480000  0.75790000  0.82490000  1
  O  O837  1  0.50140000  0.06660000  0.62910000  1
  O  O838  1  0.49860000  0.56660000  0.37090000  1
  O  O839  1  0.49520000  0.25790000  0.17510000  1
  O  O840  1  0.49160000  0.16540000  0.13477000  1
  O  O841  1  0.49050000  0.73430000  0.44126000  1
  O  O842  1  0.48130000  0.77800000  0.37480000  1
  O  O843  1  0.47930000  0.84390000  0.43430000  1
  O  O844  1  0.47550000  0.67040000  0.40818000  1
  O  O845  1  0.47510000  0.07110000  0.16664000  1
  O  O846  1  0.46060000  0.62400000  0.34560000  1
  O  O847  1  0.45950000  0.71600000  0.92714000  1
  O  O848  1  0.45520000  0.14360000  0.05790000  1
  O  O849  1  0.45190000  0.63330000  0.92390000  1
  O  O850  1  0.45120000  0.18010000  0.64327000  1
  O  O851  1  0.44870000  0.21960000  0.08250000  1
  O  O852  1  0.44750000  0.72100000  0.34260000  1
  O  O853  1  0.44570000  0.31880000  0.58400000  1
  O  O854  1  0.44240000  0.57690000  0.87990000  1
  O  O855  1  0.44040000  0.61440000  0.81470000  1
  O  O856  1  0.43400000  0.21340000  0.18280000  1
  O  O857  1  0.42900000  0.74470000  0.87748000  1
  O  O858  1  0.42710000  0.69580000  0.81379000  1
  O  O859  1  0.42660000  0.11390000  0.10450000  1
  O  O860  1  0.42650000  0.23070000  0.60224000  1
  O  O861  1  0.41380000  0.12300000  0.17660000  1
  O  O862  1  0.38650000  0.20160000  0.12020000  1
  O  O863  1  0.37050000  0.65940000  0.57020000  1
  O  O864  1  0.32120000  0.94680000  0.02800000  1
  O  O865  1  0.31090000  0.39130000  0.03570000  1
  O  O866  1  0.28830000  0.48870000  0.29870000  1
  O  O867  1  0.27280000  0.61720000  0.59100000  1
  O  O868  1  0.26640000  0.85840000  0.30790000  1
  O  O869  1  0.23360000  0.35840000  0.30790000  1
  O  O870  1  0.22720000  0.11720000  0.59100000  1
  O  O871  1  0.21170000  0.98870000  0.29870000  1
  O  O872  1  0.18910000  0.89130000  0.03570000  1
  O  O873  1  0.17880000  0.44680000  0.02800000  1
  O  O874  1  0.12950000  0.15940000  0.57020000  1
  O  O875  1  0.11350000  0.70160000  0.12020000  1
  O  O876  1  0.08620000  0.62300000  0.17660000  1
  O  O877  1  0.07350000  0.73070000  0.60224000  1
  O  O878  1  0.07340000  0.61390000  0.10450000  1
  O  O879  1  0.07290000  0.19580000  0.81379000  1
  O  O880  1  0.07100000  0.24470000  0.87748000  1
  O  O881  1  0.06600000  0.71340000  0.18280000  1
  O  O882  1  0.05960000  0.11440000  0.81470000  1
  O  O883  1  0.05760000  0.07690000  0.87990000  1
  O  O884  1  0.05430000  0.81880000  0.58400000  1
  O  O885  1  0.05250000  0.22100000  0.34260000  1
  O  O886  1  0.05130000  0.71960000  0.08250000  1
  O  O887  1  0.04880000  0.68010000  0.64327000  1
  O  O888  1  0.04810000  0.13330000  0.92390000  1
  O  O889  1  0.04480000  0.64360000  0.05790000  1
  O  O890  1  0.04050000  0.21600000  0.92714000  1
  O  O891  1  0.03940000  0.12400000  0.34560000  1
  O  O892  1  0.02490000  0.57110000  0.16664000  1
  O  O893  1  0.02450000  0.17040000  0.40818000  1
  O  O894  1  0.02070000  0.34390000  0.43430000  1
  O  O895  1  0.01870000  0.27800000  0.37480000  1
  O  O896  1  0.00950000  0.23430000  0.44126000  1
  O  O897  1  0.00840000  0.66540000  0.13477000  1
  O  O898  1  0.00480000  0.75790000  0.17510000  1
  O  O899  1  0.00140000  0.06660000  0.37090000  1
