# generated using pymatgen
data_Cd2H38C38N5O8
_symmetry_space_group_name_H-M   'P 1'
_cell_length_a   15.86350000
_cell_length_b   15.86350000
_cell_length_c   20.06000000
_cell_angle_alpha   84.22630000
_cell_angle_beta   84.22630000
_cell_angle_gamma   71.39960000
_symmetry_Int_Tables_number   1
_chemical_formula_structural   Cd2H38C38N5O8
_chemical_formula_sum   'Cd8 H152 C152 N20 O32'
_cell_volume   4747.57720467
_cell_formula_units_Z   4
loop_
 _symmetry_equiv_pos_site_id
 _symmetry_equiv_pos_as_xyz
  1  'x, y, z'
loop_
 _atom_site_type_symbol
 _atom_site_label
 _atom_site_symmetry_multiplicity
 _atom_site_fract_x
 _atom_site_fract_y
 _atom_site_fract_z
 _atom_site_occupancy
  Cd  Cd0  1  0.82352000  0.82758000  0.73118000  1
  Cd  Cd1  1  0.82758000  0.82352000  0.23118000  1
  Cd  Cd2  1  0.67837000  0.72085000  0.81164000  1
  Cd  Cd3  1  0.72085000  0.67837000  0.31164000  1
  Cd  Cd4  1  0.27915000  0.32163000  0.68836000  1
  Cd  Cd5  1  0.32163000  0.27915000  0.18836000  1
  Cd  Cd6  1  0.17242000  0.17648000  0.76882000  1
  Cd  Cd7  1  0.17648000  0.17242000  0.26882000  1
  H  H8  1  0.58550000  0.99010000  0.88830000  1
  H  H9  1  0.34020000  0.98720000  0.72390000  1
  H  H10  1  0.33810000  0.98490000  0.95920000  1
  H  H11  1  0.23300000  0.97900000  0.23110000  1
  H  H12  1  0.63480000  0.97460000  0.62190000  1
  H  H13  1  0.40960000  0.96880000  0.04480000  1
  H  H14  1  0.39900000  0.96840000  0.78530000  1
  H  H15  1  0.61030000  0.96750000  0.38570000  1
  H  H16  1  0.85470000  0.96710000  0.99960000  1
  H  H17  1  0.83020000  0.96660000  0.89350000  1
  H  H18  1  0.82860000  0.95520000  0.58430000  1
  H  H19  1  0.24870000  0.94310000  0.10300000  1
  H  H20  1  0.59760000  0.93860000  0.56480000  1
  H  H21  1  0.36880000  0.93540000  0.11290000  1
  H  H22  1  0.21040000  0.93420000  0.00210000  1
  H  H23  1  0.49650000  0.92730000  0.45500000  1
  H  H24  1  0.42560000  0.90340000  0.62270000  1
  H  H25  1  0.19270000  0.89830000  0.45260000  1
  H  H26  1  0.41250000  0.89410000  0.73580000  1
  H  H27  1  0.46310000  0.89250000  0.39470000  1
  H  H28  1  0.61390000  0.88610000  0.01960000  1
  H  H29  1  0.82300000  0.86340000  0.51650000  1
  H  H30  1  0.83540000  0.85500000  0.43870000  1
  H  H31  1  0.96710000  0.85470000  0.49960000  1
  H  H32  1  0.51440000  0.84960000  0.58410000  1
  H  H33  1  0.85500000  0.83540000  0.93870000  1
  H  H34  1  0.96660000  0.83020000  0.39350000  1
  H  H35  1  0.95520000  0.82860000  0.08430000  1
  H  H36  1  0.26300000  0.82800000  0.26610000  1
  H  H37  1  0.68780000  0.82620000  0.06540000  1
  H  H38  1  0.86340000  0.82300000  0.01650000  1
  H  H39  1  0.76910000  0.81370000  0.48290000  1
  H  H40  1  0.48410000  0.81150000  0.65430000  1
  H  H41  1  0.10170000  0.80730000  0.04740000  1
  H  H42  1  0.36340000  0.80720000  0.93430000  1
  H  H43  1  0.68310000  0.79910000  0.99320000  1
  H  H44  1  0.47460000  0.79840000  0.85070000  1
  H  H45  1  0.06580000  0.78960000  0.49790000  1
  H  H46  1  0.81370000  0.76910000  0.98290000  1
  H  H47  1  0.02100000  0.76700000  0.26890000  1
  H  H48  1  0.54930000  0.75410000  0.09170000  1
  H  H49  1  0.05690000  0.75130000  0.39700000  1
  H  H50  1  0.26320000  0.74780000  0.01480000  1
  H  H51  1  0.17200000  0.73700000  0.23390000  1
  H  H52  1  0.25220000  0.73680000  0.48520000  1
  H  H53  1  0.66290000  0.72570000  0.15910000  1
  H  H54  1  0.82620000  0.68780000  0.56540000  1
  H  H55  1  0.40350000  0.68750000  0.25140000  1
  H  H56  1  0.79910000  0.68310000  0.49320000  1
  H  H57  1  0.72570000  0.66290000  0.65910000  1
  H  H58  1  0.01510000  0.66190000  0.54080000  1
  H  H59  1  0.01280000  0.65980000  0.77610000  1
  H  H60  1  0.53070000  0.65290000  0.31430000  1
  H  H61  1  0.60730000  0.64370000  0.45090000  1
  H  H62  1  0.19280000  0.63660000  0.56570000  1
  H  H63  1  0.97460000  0.63480000  0.12190000  1
  H  H64  1  0.06460000  0.63120000  0.38710000  1
  H  H65  1  0.88610000  0.61390000  0.51960000  1
  H  H66  1  0.96750000  0.61030000  0.88570000  1
  H  H67  1  0.64370000  0.60730000  0.95090000  1
  H  H68  1  0.53880000  0.60580000  0.03600000  1
  H  H69  1  0.03160000  0.60100000  0.71470000  1
  H  H70  1  0.93860000  0.59760000  0.06480000  1
  H  H71  1  0.31250000  0.59650000  0.24860000  1
  H  H72  1  0.03120000  0.59040000  0.45520000  1
  H  H73  1  0.10590000  0.58750000  0.76420000  1
  H  H74  1  0.99010000  0.58550000  0.38830000  1
  H  H75  1  0.09660000  0.57440000  0.87730000  1
  H  H76  1  0.75410000  0.54930000  0.59170000  1
  H  H77  1  0.60580000  0.53880000  0.53600000  1
  H  H78  1  0.10750000  0.53690000  0.10530000  1
  H  H79  1  0.65290000  0.53070000  0.81430000  1
  H  H80  1  0.20160000  0.52540000  0.64930000  1
  H  H81  1  0.18850000  0.51590000  0.84570000  1
  H  H82  1  0.84960000  0.51440000  0.08410000  1
  H  H83  1  0.07270000  0.50350000  0.04500000  1
  H  H84  1  0.92730000  0.49650000  0.95500000  1
  H  H85  1  0.15040000  0.48560000  0.91590000  1
  H  H86  1  0.81150000  0.48410000  0.15430000  1
  H  H87  1  0.79840000  0.47460000  0.35070000  1
  H  H88  1  0.34710000  0.46930000  0.18570000  1
  H  H89  1  0.89250000  0.46310000  0.89470000  1
  H  H90  1  0.39420000  0.46120000  0.46400000  1
  H  H91  1  0.24590000  0.45070000  0.40830000  1
  H  H92  1  0.90340000  0.42560000  0.12270000  1
  H  H93  1  0.00990000  0.41450000  0.61170000  1
  H  H94  1  0.89410000  0.41250000  0.23580000  1
  H  H95  1  0.96880000  0.40960000  0.54480000  1
  H  H96  1  0.68750000  0.40350000  0.75140000  1
  H  H97  1  0.06140000  0.40240000  0.93520000  1
  H  H98  1  0.96840000  0.39900000  0.28530000  1
  H  H99  1  0.46120000  0.39420000  0.96400000  1
  H  H100  1  0.35630000  0.39270000  0.04910000  1
  H  H101  1  0.03250000  0.38970000  0.11430000  1
  H  H102  1  0.11390000  0.38610000  0.48040000  1
  H  H103  1  0.93540000  0.36880000  0.61290000  1
  H  H104  1  0.02540000  0.36520000  0.87810000  1
  H  H105  1  0.80720000  0.36340000  0.43430000  1
  H  H106  1  0.39270000  0.35630000  0.54910000  1
  H  H107  1  0.46930000  0.34710000  0.68570000  1
  H  H108  1  0.98720000  0.34020000  0.22390000  1
  H  H109  1  0.98490000  0.33810000  0.45920000  1
  H  H110  1  0.27430000  0.33710000  0.34090000  1
  H  H111  1  0.20090000  0.31690000  0.50680000  1
  H  H112  1  0.59650000  0.31250000  0.74860000  1
  H  H113  1  0.17380000  0.31220000  0.43460000  1
  H  H114  1  0.33710000  0.27430000  0.84090000  1
  H  H115  1  0.74780000  0.26320000  0.51480000  1
  H  H116  1  0.82800000  0.26300000  0.76610000  1
  H  H117  1  0.73680000  0.25220000  0.98520000  1
  H  H118  1  0.94310000  0.24870000  0.60300000  1
  H  H119  1  0.45070000  0.24590000  0.90830000  1
  H  H120  1  0.97900000  0.23300000  0.73110000  1
  H  H121  1  0.18630000  0.23090000  0.01710000  1
  H  H122  1  0.93420000  0.21040000  0.50210000  1
  H  H123  1  0.52540000  0.20160000  0.14930000  1
  H  H124  1  0.31690000  0.20090000  0.00680000  1
  H  H125  1  0.63660000  0.19280000  0.06570000  1
  H  H126  1  0.89830000  0.19270000  0.95260000  1
  H  H127  1  0.51590000  0.18850000  0.34570000  1
  H  H128  1  0.23090000  0.18630000  0.51710000  1
  H  H129  1  0.13660000  0.17700000  0.98350000  1
  H  H130  1  0.31220000  0.17380000  0.93460000  1
  H  H131  1  0.73700000  0.17200000  0.73390000  1
  H  H132  1  0.04480000  0.17140000  0.91570000  1
  H  H133  1  0.03340000  0.16980000  0.60650000  1
  H  H134  1  0.14500000  0.16460000  0.06130000  1
  H  H135  1  0.48560000  0.15040000  0.41590000  1
  H  H136  1  0.03290000  0.14530000  0.50040000  1
  H  H137  1  0.16460000  0.14500000  0.56130000  1
  H  H138  1  0.17700000  0.13660000  0.48350000  1
  H  H139  1  0.38610000  0.11390000  0.98040000  1
  H  H140  1  0.53690000  0.10750000  0.60530000  1
  H  H141  1  0.58750000  0.10590000  0.26420000  1
  H  H142  1  0.80730000  0.10170000  0.54740000  1
  H  H143  1  0.57440000  0.09660000  0.37730000  1
  H  H144  1  0.50350000  0.07270000  0.54500000  1
  H  H145  1  0.78960000  0.06580000  0.99790000  1
  H  H146  1  0.63120000  0.06460000  0.88710000  1
  H  H147  1  0.40240000  0.06140000  0.43520000  1
  H  H148  1  0.75130000  0.05690000  0.89700000  1
  H  H149  1  0.17140000  0.04480000  0.41570000  1
  H  H150  1  0.16980000  0.03340000  0.10650000  1
  H  H151  1  0.14530000  0.03290000  0.00040000  1
  H  H152  1  0.38970000  0.03250000  0.61430000  1
  H  H153  1  0.60100000  0.03160000  0.21470000  1
  H  H154  1  0.59040000  0.03120000  0.95520000  1
  H  H155  1  0.36520000  0.02540000  0.37810000  1
  H  H156  1  0.76700000  0.02100000  0.76890000  1
  H  H157  1  0.66190000  0.01510000  0.04080000  1
  H  H158  1  0.65980000  0.01280000  0.27610000  1
  H  H159  1  0.41450000  0.00990000  0.11170000  1
  C  C160  1  0.81101000  0.99861000  0.61520000  1
  C  C161  1  0.77576000  0.99796000  0.91900000  1
  C  C162  1  0.20515000  0.99515000  0.00940000  1
  C  C163  1  0.46763000  0.99123000  0.69610000  1
  C  C164  1  0.37889000  0.98629000  0.08740000  1
  C  C165  1  0.72197000  0.97217000  0.03848000  1
  C  C166  1  0.58117000  0.96917000  0.60595000  1
  C  C167  1  0.48939000  0.96619000  0.25460000  1
  C  C168  1  0.22592000  0.96312000  0.27669000  1
  C  C169  1  0.39844000  0.95704000  0.73930000  1
  C  C170  1  0.76588000  0.94968000  0.10350000  1
  C  C171  1  0.70693000  0.94513000  0.92353000  1
  C  C172  1  0.57369000  0.94329000  0.36140000  1
  C  C173  1  0.48484000  0.93864000  0.40780000  1
  C  C174  1  0.20363000  0.91323000  0.40727000  1
  C  C175  1  0.53656000  0.91216000  0.66195000  1
  C  C176  1  0.73655000  0.90135000  0.99170000  1
  C  C177  1  0.71905000  0.88205000  0.87030000  1
  C  C178  1  0.24439000  0.87099000  0.29728000  1
  C  C179  1  0.48543000  0.86483000  0.62760000  1
  C  C180  1  0.62663000  0.85023000  0.34050000  1
  C  C181  1  0.60245000  0.84965000  0.70330000  1
  C  C182  1  0.67467000  0.84827000  0.02010000  1
  C  C183  1  0.23409000  0.84769000  0.36375000  1
  C  C184  1  0.82500000  0.82560000  0.48150000  1
  C  C185  1  0.82560000  0.82500000  0.98150000  1
  C  C186  1  0.99861000  0.81101000  0.11520000  1
  C  C187  1  0.08677000  0.79637000  0.09273000  1
  C  C188  1  0.00485000  0.79485000  0.49060000  1
  C  C189  1  0.99796000  0.77576000  0.41900000  1
  C  C190  1  0.03688000  0.77408000  0.22331000  1
  C  C191  1  0.42017000  0.76717000  0.93955000  1
  C  C192  1  0.15231000  0.76591000  0.13625000  1
  C  C193  1  0.94968000  0.76588000  0.60350000  1
  C  C194  1  0.48603000  0.75883000  0.88870000  1
  C  C195  1  0.12901000  0.75561000  0.20272000  1
  C  C196  1  0.25160000  0.75140000  0.38270000  1
  C  C197  1  0.24860000  0.74840000  0.11730000  1
  C  C198  1  0.90135000  0.73655000  0.49170000  1
  C  C199  1  0.54282000  0.73362000  0.13640000  1
  C  C200  1  0.37600000  0.72500000  0.05830000  1
  C  C201  1  0.38628000  0.72248000  0.12701000  1
  C  C202  1  0.97217000  0.72197000  0.53848000  1
  C  C203  1  0.60892000  0.71992000  0.17830000  1
  C  C204  1  0.88205000  0.71905000  0.37030000  1
  C  C205  1  0.46168000  0.71528000  0.16380000  1
  C  C206  1  0.44033000  0.71373000  0.00012000  1
  C  C207  1  0.94513000  0.70693000  0.42353000  1
  C  C208  1  0.45671000  0.69311000  0.23050000  1
  C  C209  1  0.53208000  0.67768000  0.27030000  1
  C  C210  1  0.84827000  0.67467000  0.52010000  1
  C  C211  1  0.52497000  0.64797000  0.99980000  1
  C  C212  1  0.58601000  0.64581000  0.94710000  1
  C  C213  1  0.85023000  0.62663000  0.84050000  1
  C  C214  1  0.27500000  0.62400000  0.44170000  1
  C  C215  1  0.01371000  0.62111000  0.41260000  1
  C  C216  1  0.27752000  0.61372000  0.37299000  1
  C  C217  1  0.71992000  0.60892000  0.67830000  1
  C  C218  1  0.84965000  0.60245000  0.20330000  1
  C  C219  1  0.04296000  0.60156000  0.76070000  1
  C  C220  1  0.64581000  0.58601000  0.44710000  1
  C  C221  1  0.96917000  0.58117000  0.10595000  1
  C  C222  1  0.23283000  0.57983000  0.56045000  1
  C  C223  1  0.94329000  0.57369000  0.86140000  1
  C  C224  1  0.28627000  0.55967000  0.49988000  1
  C  C225  1  0.30689000  0.54329000  0.26950000  1
  C  C226  1  0.73362000  0.54282000  0.63640000  1
  C  C227  1  0.28472000  0.53832000  0.33620000  1
  C  C228  1  0.91216000  0.53656000  0.16195000  1
  C  C229  1  0.00877000  0.53237000  0.80390000  1
  C  C230  1  0.67768000  0.53208000  0.77030000  1
  C  C231  1  0.64797000  0.52497000  0.49980000  1
  C  C232  1  0.06136000  0.51516000  0.09220000  1
  C  C233  1  0.13517000  0.51457000  0.87240000  1
  C  C234  1  0.24117000  0.51397000  0.61130000  1
  C  C235  1  0.03381000  0.51061000  0.24540000  1
  C  C236  1  0.96619000  0.48939000  0.75460000  1
  C  C237  1  0.75883000  0.48603000  0.38870000  1
  C  C238  1  0.86483000  0.48543000  0.12760000  1
  C  C239  1  0.93864000  0.48484000  0.90780000  1
  C  C240  1  0.35203000  0.47503000  0.50020000  1
  C  C241  1  0.32232000  0.46792000  0.22970000  1
  C  C242  1  0.99123000  0.46763000  0.19610000  1
  C  C243  1  0.08784000  0.46344000  0.83805000  1
  C  C244  1  0.71528000  0.46168000  0.66380000  1
  C  C245  1  0.26638000  0.45718000  0.36360000  1
  C  C246  1  0.69311000  0.45671000  0.73050000  1
  C  C247  1  0.71373000  0.44033000  0.50012000  1
  C  C248  1  0.05671000  0.42631000  0.13860000  1
  C  C249  1  0.76717000  0.42017000  0.43955000  1
  C  C250  1  0.03083000  0.41883000  0.89405000  1
  C  C251  1  0.35419000  0.41399000  0.55290000  1
  C  C252  1  0.95704000  0.39844000  0.23930000  1
  C  C253  1  0.15035000  0.39755000  0.79670000  1
  C  C254  1  0.28008000  0.39108000  0.32170000  1
  C  C255  1  0.72248000  0.38628000  0.62701000  1
  C  C256  1  0.98629000  0.37889000  0.58740000  1
  C  C257  1  0.72500000  0.37600000  0.55830000  1
  C  C258  1  0.14977000  0.37337000  0.15950000  1
  C  C259  1  0.41399000  0.35419000  0.05290000  1
  C  C260  1  0.47503000  0.35203000  0.00020000  1
  C  C261  1  0.15173000  0.32533000  0.47990000  1
  C  C262  1  0.46792000  0.32232000  0.72970000  1
  C  C263  1  0.54329000  0.30689000  0.76950000  1
  C  C264  1  0.05487000  0.29307000  0.57647000  1
  C  C265  1  0.55967000  0.28627000  0.99988000  1
  C  C266  1  0.53832000  0.28472000  0.83620000  1
  C  C267  1  0.11795000  0.28095000  0.62970000  1
  C  C268  1  0.39108000  0.28008000  0.82170000  1
  C  C269  1  0.02783000  0.27803000  0.46152000  1
  C  C270  1  0.61372000  0.27752000  0.87299000  1
  C  C271  1  0.62400000  0.27500000  0.94170000  1
  C  C272  1  0.45718000  0.26638000  0.86360000  1
  C  C273  1  0.09865000  0.26345000  0.50830000  1
  C  C274  1  0.75140000  0.25160000  0.88270000  1
  C  C275  1  0.74840000  0.24860000  0.61730000  1
  C  C276  1  0.87099000  0.24439000  0.79728000  1
  C  C277  1  0.51397000  0.24117000  0.11130000  1
  C  C278  1  0.05032000  0.23412000  0.39650000  1
  C  C279  1  0.84769000  0.23409000  0.86375000  1
  C  C280  1  0.57983000  0.23283000  0.06045000  1
  C  C281  1  0.96312000  0.22592000  0.77669000  1
  C  C282  1  0.00204000  0.22424000  0.58100000  1
  C  C283  1  0.99515000  0.20515000  0.50940000  1
  C  C284  1  0.91323000  0.20363000  0.90727000  1
  C  C285  1  0.00139000  0.18899000  0.88480000  1
  C  C286  1  0.17440000  0.17500000  0.01850000  1
  C  C287  1  0.17500000  0.17440000  0.51850000  1
  C  C288  1  0.76591000  0.15231000  0.63625000  1
  C  C289  1  0.32533000  0.15173000  0.97990000  1
  C  C290  1  0.39755000  0.15035000  0.29670000  1
  C  C291  1  0.37337000  0.14977000  0.65950000  1
  C  C292  1  0.51457000  0.13517000  0.37240000  1
  C  C293  1  0.75561000  0.12901000  0.70272000  1
  C  C294  1  0.28095000  0.11795000  0.12970000  1
  C  C295  1  0.26345000  0.09865000  0.00830000  1
  C  C296  1  0.46344000  0.08784000  0.33805000  1
  C  C297  1  0.79637000  0.08677000  0.59273000  1
  C  C298  1  0.51516000  0.06136000  0.59220000  1
  C  C299  1  0.42631000  0.05671000  0.63860000  1
  C  C300  1  0.29307000  0.05487000  0.07647000  1
  C  C301  1  0.23412000  0.05032000  0.89650000  1
  C  C302  1  0.60156000  0.04296000  0.26070000  1
  C  C303  1  0.77408000  0.03688000  0.72331000  1
  C  C304  1  0.51061000  0.03381000  0.74540000  1
  C  C305  1  0.41883000  0.03083000  0.39405000  1
  C  C306  1  0.27803000  0.02783000  0.96152000  1
  C  C307  1  0.62111000  0.01371000  0.91260000  1
  C  C308  1  0.53237000  0.00877000  0.30390000  1
  C  C309  1  0.79485000  0.00485000  0.99060000  1
  C  C310  1  0.22424000  0.00204000  0.08100000  1
  C  C311  1  0.18899000  0.00139000  0.38480000  1
  N  N312  1  0.80024000  0.97358000  0.68225000  1
  N  N313  1  0.97358000  0.80024000  0.18225000  1
  N  N314  1  0.28891000  0.74201000  0.05152000  1
  N  N315  1  0.30684000  0.73932000  0.16082000  1
  N  N316  1  0.25799000  0.71109000  0.44848000  1
  N  N317  1  0.60376000  0.69920000  0.24333000  1
  N  N318  1  0.56708000  0.69582000  0.89082000  1
  N  N319  1  0.26068000  0.69316000  0.33918000  1
  N  N320  1  0.69920000  0.60376000  0.74333000  1
  N  N321  1  0.69582000  0.56708000  0.39082000  1
  N  N322  1  0.30418000  0.43292000  0.60918000  1
  N  N323  1  0.30080000  0.39624000  0.25667000  1
  N  N324  1  0.73932000  0.30684000  0.66082000  1
  N  N325  1  0.43292000  0.30418000  0.10918000  1
  N  N326  1  0.39624000  0.30080000  0.75667000  1
  N  N327  1  0.74201000  0.28891000  0.55152000  1
  N  N328  1  0.69316000  0.26068000  0.83918000  1
  N  N329  1  0.71109000  0.25799000  0.94848000  1
  N  N330  1  0.02642000  0.19976000  0.81775000  1
  N  N331  1  0.19976000  0.02642000  0.31775000  1
  O  O332  1  0.20194000  0.99368000  0.87483000  1
  O  O333  1  0.78280000  0.88376000  0.83080000  1
  O  O334  1  0.76053000  0.88075000  0.13701000  1
  O  O335  1  0.68569000  0.84145000  0.29261000  1
  O  O336  1  0.68081000  0.83885000  0.70141000  1
  O  O337  1  0.66693000  0.83459000  0.86881000  1
  O  O338  1  0.56722000  0.80206000  0.74660000  1
  O  O339  1  0.00632000  0.79806000  0.62517000  1
  O  O340  1  0.61480000  0.78666000  0.37463000  1
  O  O341  1  0.88376000  0.78280000  0.33080000  1
  O  O342  1  0.88075000  0.76053000  0.63701000  1
  O  O343  1  0.84145000  0.68569000  0.79261000  1
  O  O344  1  0.83885000  0.68081000  0.20141000  1
  O  O345  1  0.83459000  0.66693000  0.36881000  1
  O  O346  1  0.78666000  0.61480000  0.87463000  1
  O  O347  1  0.80206000  0.56722000  0.24660000  1
  O  O348  1  0.19794000  0.43278000  0.75340000  1
  O  O349  1  0.21334000  0.38520000  0.12537000  1
  O  O350  1  0.16541000  0.33307000  0.63119000  1
  O  O351  1  0.16115000  0.31919000  0.79859000  1
  O  O352  1  0.15855000  0.31431000  0.20739000  1
  O  O353  1  0.11925000  0.23947000  0.36299000  1
  O  O354  1  0.11624000  0.21720000  0.66920000  1
  O  O355  1  0.38520000  0.21334000  0.62537000  1
  O  O356  1  0.99368000  0.20194000  0.37483000  1
  O  O357  1  0.43278000  0.19794000  0.25340000  1
  O  O358  1  0.33307000  0.16541000  0.13119000  1
  O  O359  1  0.31919000  0.16115000  0.29859000  1
  O  O360  1  0.31431000  0.15855000  0.70739000  1
  O  O361  1  0.23947000  0.11925000  0.86299000  1
  O  O362  1  0.21720000  0.11624000  0.16920000  1
  O  O363  1  0.79806000  0.00632000  0.12517000  1
