# generated using pymatgen
data_Ba3H36C44(NO9)2
_symmetry_space_group_name_H-M   'P 1'
_cell_length_a   19.51900000
_cell_length_b   19.94300000
_cell_length_c   32.10600000
_cell_angle_alpha   76.68700000
_cell_angle_beta   83.42500000
_cell_angle_gamma   61.03400000
_symmetry_Int_Tables_number   1
_chemical_formula_structural   Ba3H36C44(NO9)2
_chemical_formula_sum   'Ba18 H216 C264 N12 O108'
_cell_volume   10640.52272476
_cell_formula_units_Z   6
loop_
 _symmetry_equiv_pos_site_id
 _symmetry_equiv_pos_as_xyz
  1  'x, y, z'
loop_
 _atom_site_type_symbol
 _atom_site_label
 _atom_site_symmetry_multiplicity
 _atom_site_fract_x
 _atom_site_fract_y
 _atom_site_fract_z
 _atom_site_occupancy
  Ba  Ba0  1  0.22306000  0.38500000  0.36961000  1
  Ba  Ba1  1  0.29171000  0.31348000  0.83070000  1
  Ba  Ba2  1  0.29957000  0.38530000  0.02355000  1
  Ba  Ba3  1  0.31022000  0.28289000  0.60366000  1
  Ba  Ba4  1  0.33591000  0.37914000  0.47704000  1
  Ba  Ba5  1  0.34477000  0.39805000  0.24769000  1
  Ba  Ba6  1  0.36122000  0.27424000  0.15695000  1
  Ba  Ba7  1  0.38986000  0.33493000  0.70371000  1
  Ba  Ba8  1  0.44209000  0.25974000  0.93034000  1
  Ba  Ba9  1  0.55791000  0.74026000  0.06966000  1
  Ba  Ba10  1  0.61014000  0.66507000  0.29629000  1
  Ba  Ba11  1  0.63878000  0.72576000  0.84305000  1
  Ba  Ba12  1  0.65523000  0.60195000  0.75231000  1
  Ba  Ba13  1  0.66409000  0.62086000  0.52296000  1
  Ba  Ba14  1  0.68978000  0.71711000  0.39634000  1
  Ba  Ba15  1  0.70043000  0.61470000  0.97645000  1
  Ba  Ba16  1  0.70829000  0.68652000  0.16930000  1
  Ba  Ba17  1  0.77694000  0.61500000  0.63039000  1
  H  H18  1  0.00490000  0.91390000  0.37960000  1
  H  H19  1  0.01260000  0.12680000  0.98320000  1
  H  H20  1  0.01580000  0.11920000  0.49330000  1
  H  H21  1  0.01980000  0.13520000  0.85160000  1
  H  H22  1  0.02190000  0.29110000  0.32370000  1
  H  H23  1  0.02790000  0.14610000  0.10420000  1
  H  H24  1  0.03250000  0.79790000  0.77220000  1
  H  H25  1  0.03260000  0.15220000  0.35580000  1
  H  H26  1  0.03320000  0.15480000  0.89460000  1
  H  H27  1  0.03340000  0.17400000  0.40060000  1
  H  H28  1  0.03820000  0.16550000  0.14800000  1
  H  H29  1  0.05010000  0.84580000  0.24300000  1
  H  H30  1  0.05140000  0.08700000  0.73130000  1
  H  H31  1  0.05460000  0.13610000  0.24250000  1
  H  H32  1  0.06750000  0.73360000  0.31180000  1
  H  H33  1  0.07910000  0.20660000  0.58670000  1
  H  H34  1  0.08240000  0.22020000  0.80630000  1
  H  H35  1  0.08270000  0.91470000  0.35780000  1
  H  H36  1  0.09250000  0.80720000  0.89090000  1
  H  H37  1  0.09300000  0.79400000  0.63000000  1
  H  H38  1  0.09400000  0.80960000  0.96600000  1
  H  H39  1  0.10130000  0.05700000  0.98710000  1
  H  H40  1  0.10280000  0.08470000  0.87510000  1
  H  H41  1  0.10410000  0.82570000  0.46220000  1
  H  H42  1  0.10430000  0.20830000  0.21450000  1
  H  H43  1  0.10470000  0.81960000  0.13420000  1
  H  H44  1  0.10490000  0.68530000  0.04660000  1
  H  H45  1  0.10540000  0.05520000  0.50400000  1
  H  H46  1  0.10620000  0.85920000  0.50250000  1
  H  H47  1  0.10700000  0.09140000  0.13110000  1
  H  H48  1  0.10790000  0.84230000  0.00360000  1
  H  H49  1  0.10880000  0.83670000  0.20300000  1
  H  H50  1  0.10980000  0.10430000  0.38470000  1
  H  H51  1  0.11150000  0.33890000  0.31650000  1
  H  H52  1  0.11610000  0.00480000  0.26160000  1
  H  H53  1  0.11670000  0.04060000  0.61710000  1
  H  H54  1  0.11720000  0.07020000  0.65930000  1
  H  H55  1  0.11960000  0.15770000  0.46860000  1
  H  H56  1  0.12030000  0.86560000  0.24300000  1
  H  H57  1  0.12350000  0.03470000  0.30220000  1
  H  H58  1  0.12880000  0.95040000  0.30830000  1
  H  H59  1  0.13220000  0.19630000  0.05910000  1
  H  H60  1  0.13290000  0.74050000  0.74720000  1
  H  H61  1  0.13410000  0.13700000  0.94600000  1
  H  H62  1  0.13540000  0.80810000  0.39850000  1
  H  H63  1  0.13760000  0.60390000  0.34870000  1
  H  H64  1  0.13820000  0.02160000  0.74740000  1
  H  H65  1  0.13830000  0.28380000  0.56900000  1
  H  H66  1  0.14210000  0.64440000  0.81130000  1
  H  H67  1  0.15550000  0.97610000  0.87640000  1
  H  H68  1  0.15560000  0.98750000  0.13850000  1
  H  H69  1  0.15790000  0.28350000  0.78570000  1
  H  H70  1  0.16030000  0.83620000  0.96110000  1
  H  H71  1  0.16140000  0.90370000  0.15910000  1
  H  H72  1  0.16170000  0.81730000  0.61540000  1
  H  H73  1  0.16440000  0.85830000  0.46300000  1
  H  H74  1  0.16820000  0.80780000  0.86550000  1
  H  H75  1  0.17130000  0.82850000  0.10250000  1
  H  H76  1  0.17280000  0.70000000  0.51590000  1
  H  H77  1  0.17530000  0.89150000  0.90490000  1
  H  H78  1  0.17600000  0.24280000  0.44930000  1
  H  H79  1  0.17650000  0.99460000  0.38370000  1
  H  H80  1  0.17720000  0.54910000  0.06550000  1
  H  H81  1  0.18180000  0.94020000  0.01420000  1
  H  H82  1  0.18180000  0.95960000  0.57050000  1
  H  H83  1  0.18250000  0.09810000  0.71100000  1
  H  H84  1  0.18390000  0.92760000  0.52880000  1
  H  H85  1  0.18920000  0.97320000  0.05350000  1
  H  H86  1  0.19080000  0.99270000  0.64830000  1
  H  H87  1  0.19400000  0.73850000  0.70910000  1
  H  H88  1  0.19470000  0.90810000  0.40950000  1
  H  H89  1  0.19540000  0.25500000  0.20910000  1
  H  H90  1  0.19690000  0.89700000  0.77020000  1
  H  H91  1  0.19800000  0.87160000  0.57500000  1
  H  H92  1  0.20070000  0.67320000  0.64140000  1
  H  H93  1  0.20190000  0.69160000  0.91260000  1
  H  H94  1  0.20250000  0.75810000  0.75320000  1
  H  H95  1  0.20460000  0.88490000  0.06070000  1
  H  H96  1  0.20770000  0.93050000  0.80830000  1
  H  H97  1  0.21190000  0.84620000  0.81790000  1
  H  H98  1  0.21200000  0.67400000  0.43400000  1
  H  H99  1  0.21350000  0.24960000  0.03000000  1
  H  H100  1  0.21400000  0.70090000  0.14200000  1
  H  H101  1  0.21800000  0.19190000  0.91820000  1
  H  H102  1  0.22150000  0.51280000  0.83390000  1
  H  H103  1  0.23840000  0.56560000  0.52070000  1
  H  H104  1  0.24540000  0.90670000  0.69330000  1
  H  H105  1  0.25570000  0.82290000  0.71830000  1
  H  H106  1  0.26240000  0.15850000  0.69340000  1
  H  H107  1  0.27090000  0.53930000  0.64670000  1
  H  H108  1  0.27670000  0.56620000  0.16130000  1
  H  H109  1  0.27870000  0.55700000  0.93860000  1
  H  H110  1  0.27920000  0.92080000  0.12830000  1
  H  H111  1  0.28290000  0.96630000  0.50420000  1
  H  H112  1  0.29140000  0.85420000  0.88480000  1
  H  H113  1  0.29200000  0.88510000  0.25650000  1
  H  H114  1  0.29700000  0.94660000  0.98280000  1
  H  H115  1  0.30420000  0.88470000  0.39670000  1
  H  H116  1  0.34320000  0.77140000  0.59380000  1
  H  H117  1  0.37230000  0.81300000  0.70650000  1
  H  H118  1  0.41380000  0.85950000  0.12470000  1
  H  H119  1  0.41900000  0.88780000  0.52090000  1
  H  H120  1  0.42580000  0.86140000  0.99290000  1
  H  H121  1  0.42600000  0.77140000  0.89180000  1
  H  H122  1  0.42630000  0.80850000  0.25270000  1
  H  H123  1  0.44320000  0.81100000  0.40880000  1
  H  H124  1  0.47650000  0.71160000  0.58390000  1
  H  H125  1  0.49300000  0.25520000  0.30310000  1
  H  H126  1  0.50700000  0.74480000  0.69690000  1
  H  H127  1  0.52350000  0.28840000  0.41610000  1
  H  H128  1  0.55680000  0.18900000  0.59120000  1
  H  H129  1  0.57370000  0.19150000  0.74730000  1
  H  H130  1  0.57400000  0.22860000  0.10820000  1
  H  H131  1  0.57420000  0.13860000  0.00710000  1
  H  H132  1  0.58100000  0.11220000  0.47910000  1
  H  H133  1  0.58620000  0.14050000  0.87530000  1
  H  H134  1  0.62770000  0.18700000  0.29350000  1
  H  H135  1  0.65680000  0.22860000  0.40620000  1
  H  H136  1  0.69580000  0.11530000  0.60330000  1
  H  H137  1  0.70300000  0.05340000  0.01720000  1
  H  H138  1  0.70800000  0.11490000  0.74350000  1
  H  H139  1  0.70860000  0.14580000  0.11520000  1
  H  H140  1  0.71710000  0.03370000  0.49580000  1
  H  H141  1  0.72080000  0.07920000  0.87170000  1
  H  H142  1  0.72130000  0.44300000  0.06140000  1
  H  H143  1  0.72330000  0.43380000  0.83870000  1
  H  H144  1  0.72910000  0.46070000  0.35330000  1
  H  H145  1  0.73760000  0.84150000  0.30660000  1
  H  H146  1  0.74430000  0.17710000  0.28170000  1
  H  H147  1  0.75460000  0.09330000  0.30670000  1
  H  H148  1  0.76160000  0.43440000  0.47930000  1
  H  H149  1  0.77850000  0.48720000  0.16610000  1
  H  H150  1  0.78200000  0.80810000  0.08180000  1
  H  H151  1  0.78600000  0.29910000  0.85800000  1
  H  H152  1  0.78650000  0.75040000  0.97000000  1
  H  H153  1  0.78800000  0.32600000  0.56600000  1
  H  H154  1  0.78810000  0.15380000  0.18210000  1
  H  H155  1  0.79230000  0.06950000  0.19170000  1
  H  H156  1  0.79540000  0.11510000  0.93930000  1
  H  H157  1  0.79750000  0.24190000  0.24680000  1
  H  H158  1  0.79810000  0.30840000  0.08740000  1
  H  H159  1  0.79930000  0.32680000  0.35860000  1
  H  H160  1  0.80200000  0.12840000  0.42500000  1
  H  H161  1  0.80310000  0.10300000  0.22980000  1
  H  H162  1  0.80460000  0.74500000  0.79090000  1
  H  H163  1  0.80530000  0.09190000  0.59050000  1
  H  H164  1  0.80600000  0.26150000  0.29090000  1
  H  H165  1  0.80920000  0.00730000  0.35170000  1
  H  H166  1  0.81080000  0.02680000  0.94650000  1
  H  H167  1  0.81610000  0.07240000  0.47120000  1
  H  H168  1  0.81750000  0.90190000  0.28900000  1
  H  H169  1  0.81820000  0.04040000  0.42950000  1
  H  H170  1  0.81820000  0.05980000  0.98580000  1
  H  H171  1  0.82280000  0.45090000  0.93450000  1
  H  H172  1  0.82350000  0.00540000  0.61630000  1
  H  H173  1  0.82400000  0.75720000  0.55070000  1
  H  H174  1  0.82470000  0.10850000  0.09510000  1
  H  H175  1  0.82720000  0.30000000  0.48410000  1
  H  H176  1  0.82870000  0.17150000  0.89750000  1
  H  H177  1  0.83180000  0.19220000  0.13450000  1
  H  H178  1  0.83560000  0.14170000  0.53700000  1
  H  H179  1  0.83830000  0.18270000  0.38460000  1
  H  H180  1  0.83860000  0.09630000  0.84090000  1
  H  H181  1  0.83970000  0.16380000  0.03890000  1
  H  H182  1  0.84210000  0.71650000  0.21430000  1
  H  H183  1  0.84440000  0.01250000  0.86150000  1
  H  H184  1  0.84450000  0.02390000  0.12360000  1
  H  H185  1  0.85790000  0.35560000  0.18870000  1
  H  H186  1  0.86170000  0.71620000  0.43100000  1
  H  H187  1  0.86180000  0.97840000  0.25260000  1
  H  H188  1  0.86240000  0.39610000  0.65130000  1
  H  H189  1  0.86460000  0.19190000  0.60150000  1
  H  H190  1  0.86590000  0.86300000  0.05400000  1
  H  H191  1  0.86710000  0.25950000  0.25280000  1
  H  H192  1  0.86780000  0.80370000  0.94090000  1
  H  H193  1  0.87120000  0.04960000  0.69170000  1
  H  H194  1  0.87650000  0.96530000  0.69780000  1
  H  H195  1  0.87970000  0.13440000  0.75700000  1
  H  H196  1  0.88040000  0.84230000  0.53140000  1
  H  H197  1  0.88280000  0.92980000  0.34070000  1
  H  H198  1  0.88330000  0.95940000  0.38290000  1
  H  H199  1  0.88390000  0.99520000  0.73840000  1
  H  H200  1  0.88850000  0.66110000  0.68350000  1
  H  H201  1  0.89020000  0.89570000  0.61530000  1
  H  H202  1  0.89120000  0.16330000  0.79700000  1
  H  H203  1  0.89210000  0.15770000  0.99640000  1
  H  H204  1  0.89300000  0.90860000  0.86890000  1
  H  H205  1  0.89380000  0.14080000  0.49750000  1
  H  H206  1  0.89460000  0.94480000  0.49600000  1
  H  H207  1  0.89510000  0.31470000  0.95340000  1
  H  H208  1  0.89530000  0.18040000  0.86580000  1
  H  H209  1  0.89570000  0.79170000  0.78550000  1
  H  H210  1  0.89590000  0.17430000  0.53780000  1
  H  H211  1  0.89720000  0.91530000  0.12490000  1
  H  H212  1  0.89870000  0.94300000  0.01290000  1
  H  H213  1  0.90600000  0.19040000  0.03400000  1
  H  H214  1  0.90700000  0.20600000  0.37000000  1
  H  H215  1  0.90750000  0.19280000  0.10910000  1
  H  H216  1  0.91730000  0.08530000  0.64220000  1
  H  H217  1  0.91760000  0.77980000  0.19370000  1
  H  H218  1  0.92090000  0.79340000  0.41330000  1
  H  H219  1  0.93250000  0.26640000  0.68820000  1
  H  H220  1  0.94540000  0.86390000  0.75750000  1
  H  H221  1  0.94860000  0.91300000  0.26870000  1
  H  H222  1  0.94990000  0.15420000  0.75700000  1
  H  H223  1  0.96180000  0.83450000  0.85200000  1
  H  H224  1  0.96660000  0.82600000  0.59940000  1
  H  H225  1  0.96680000  0.84520000  0.10540000  1
  H  H226  1  0.96740000  0.84780000  0.64420000  1
  H  H227  1  0.96750000  0.20210000  0.22780000  1
  H  H228  1  0.97210000  0.85390000  0.89580000  1
  H  H229  1  0.97810000  0.70890000  0.67630000  1
  H  H230  1  0.98020000  0.86480000  0.14840000  1
  H  H231  1  0.98420000  0.88080000  0.50670000  1
  H  H232  1  0.98740000  0.87320000  0.01680000  1
  H  H233  1  0.99510000  0.08610000  0.62040000  1
  C  C234  1  0.00130000  0.16840000  0.25292000  1
  C  C235  1  0.01400000  0.07140000  0.15819000  1
  C  C236  1  0.01610000  0.04040000  0.29861000  1
  C  C237  1  0.01730000  0.00320000  0.67617000  1
  C  C238  1  0.01810000  0.05540000  0.90621000  1
  C  C239  1  0.02420000  0.07470000  0.40716000  1
  C  C240  1  0.02690000  0.02860000  0.54359000  1
  C  C241  1  0.02910000  0.95140000  0.20413000  1
  C  C242  1  0.03090000  0.04000000  0.03698000  1
  C  C243  1  0.03120000  0.88410000  0.72097000  1
  C  C244  1  0.03200000  0.91860000  0.35195000  1
  C  C245  1  0.04600000  0.11280000  0.87946000  1
  C  C246  1  0.04780000  0.93100000  0.95178000  1
  C  C247  1  0.05010000  0.12340000  0.13307000  1
  C  C248  1  0.05010000  0.94770000  0.44987000  1
  C  C249  1  0.05180000  0.01200000  0.78749000  1
  C  C250  1  0.05240000  0.13110000  0.38521000  1
  C  C251  1  0.05340000  0.08450000  0.51676000  1
  C  C252  1  0.05390000  0.90210000  0.58805000  1
  C  C253  1  0.05600000  0.09010000  0.00343000  1
  C  C254  1  0.05600000  0.24450000  0.27056000  1
  C  C255  1  0.05760000  0.28340000  0.30030000  1
  C  C256  1  0.05860000  0.91730000  0.08428000  1
  C  C257  1  0.06180000  0.99460000  0.17693000  1
  C  C258  1  0.06330000  0.89520000  0.83587000  1
  C  C259  1  0.07200000  0.97930000  0.92214000  1
  C  C260  1  0.07900000  0.99700000  0.42564000  1
  C  C261  1  0.08000000  0.95320000  0.56370000  1
  C  C262  1  0.08170000  0.86750000  0.22513000  1
  C  C263  1  0.08530000  0.05730000  0.75679000  1
  C  C264  1  0.08580000  0.96590000  0.05557000  1
  C  C265  1  0.08860000  0.78160000  0.35393000  1
  C  C266  1  0.09210000  0.17580000  0.52954000  1
  C  C267  1  0.09300000  0.72250000  0.33786000  1
  C  C268  1  0.09600000  0.97410000  0.67271000  1
  C  C269  1  0.09810000  0.93710000  0.80882000  1
  C  C270  1  0.09940000  0.21310000  0.55861000  1
  C  C271  1  0.10380000  0.00440000  0.29214000  1
  C  C272  1  0.10640000  0.23380000  0.23563000  1
  C  C273  1  0.10800000  0.84710000  0.97252000  1
  C  C274  1  0.11110000  0.31130000  0.29617000  1
  C  C275  1  0.11180000  0.86520000  0.47137000  1
  C  C276  1  0.11400000  0.84930000  0.71573000  1
  C  C277  1  0.11470000  0.81860000  0.60566000  1
  C  C278  1  0.11550000  0.81400000  0.86213000  1
  C  C279  1  0.11790000  0.83410000  0.10391000  1
  C  C280  1  0.11890000  0.20740000  0.78338000  1
  C  C281  1  0.12230000  0.18440000  0.48885000  1
  C  C282  1  0.12370000  0.16430000  0.00560000  1
  C  C283  1  0.12840000  0.15100000  0.76270000  1
  C  C284  1  0.13370000  0.02400000  0.64699000  1
  C  C285  1  0.13420000  0.76680000  0.38926000  1
  C  C286  1  0.13450000  0.25880000  0.54813000  1
  C  C287  1  0.13510000  0.64540000  0.35970000  1
  C  C288  1  0.14070000  0.66110000  0.06973000  1
  C  C289  1  0.14530000  0.89690000  0.69381000  1
  C  C290  1  0.14640000  0.95570000  0.16495000  1
  C  C291  1  0.14860000  0.19570000  0.03015000  1
  C  C292  1  0.14970000  0.16030000  0.96304000  1
  C  C293  1  0.15310000  0.70580000  0.09270000  1
  C  C294  1  0.15420000  0.94730000  0.90579000  1
  C  C295  1  0.15760000  0.23420000  0.47769000  1
  C  C296  1  0.16020000  0.26190000  0.23270000  1
  C  C297  1  0.16290000  0.24560000  0.77065000  1
  C  C298  1  0.16420000  0.29900000  0.26230000  1
  C  C299  1  0.16470000  0.68050000  0.85852000  1
  C  C300  1  0.16520000  0.76430000  0.73276000  1
  C  C301  1  0.16550000  0.27010000  0.50731000  1
  C  C302  1  0.16910000  0.92550000  0.55907000  1
  C  C303  1  0.17050000  0.96380000  0.41147000  1
  C  C304  1  0.17110000  0.62660000  0.83692000  1
  C  C305  1  0.17330000  0.93860000  0.04503000  1
  C  C306  1  0.17350000  0.62890000  0.39763000  1
  C  C307  1  0.17890000  0.68670000  0.41078000  1
  C  C308  1  0.17940000  0.13430000  0.72681000  1
  C  C309  1  0.18130000  0.69860000  0.57810000  1
  C  C310  1  0.18230000  0.58070000  0.08180000  1
  C  C311  1  0.18660000  0.89930000  0.80057000  1
  C  C312  1  0.19240000  0.66650000  0.54283000  1
  C  C313  1  0.19760000  0.22660000  0.01286000  1
  C  C314  1  0.20020000  0.19280000  0.94694000  1
  C  C315  1  0.20470000  0.67060000  0.12676000  1
  C  C316  1  0.20560000  0.65490000  0.89701000  1
  C  C317  1  0.20910000  0.65140000  0.61676000  1
  C  C318  1  0.21400000  0.31180000  0.49619000  1
  C  C319  1  0.21490000  0.22980000  0.73597000  1
  C  C320  1  0.21720000  0.54870000  0.85032000  1
  C  C321  1  0.21840000  0.54670000  0.42114000  1
  C  C322  1  0.22360000  0.32740000  0.25860000  1
  C  C323  1  0.22420000  0.22500000  0.97104000  1
  C  C324  1  0.22440000  0.17240000  0.71553000  1
  C  C325  1  0.23070000  0.54540000  0.11677000  1
  C  C326  1  0.23140000  0.58660000  0.54548000  1
  C  C327  1  0.23220000  0.86480000  0.69278000  1
  C  C328  1  0.24160000  0.59090000  0.13773000  1
  C  C329  1  0.24970000  0.57170000  0.61977000  1
  C  C330  1  0.25180000  0.57490000  0.91218000  1
  C  C331  1  0.25850000  0.52190000  0.88912000  1
  C  C332  1  0.26080000  0.53650000  0.58530000  1
  C  C333  1  0.26510000  0.27050000  0.72402000  1
  C  C334  1  0.27130000  0.90740000  0.19356000  1
  C  C335  1  0.27620000  0.45690000  0.12813000  1
  C  C336  1  0.28030000  0.25550000  0.95338000  1
  C  C337  1  0.28040000  0.90610000  0.93435000  1
  C  C338  1  0.28590000  0.92810000  0.45046000  1
  C  C339  1  0.29770000  0.45130000  0.58931000  1
  C  C340  1  0.30900000  0.89960000  0.15384000  1
  C  C341  1  0.31320000  0.43550000  0.90347000  1
  C  C342  1  0.31630000  0.87660000  0.22949000  1
  C  C343  1  0.31680000  0.93190000  0.48612000  1
  C  C344  1  0.31930000  0.85530000  0.90680000  1
  C  C345  1  0.32290000  0.90890000  0.96518000  1
  C  C346  1  0.32750000  0.88510000  0.42092000  1
  C  C347  1  0.34390000  0.79470000  0.65205000  1
  C  C348  1  0.37630000  0.76580000  0.61527000  1
  C  C349  1  0.38940000  0.86100000  0.15209000  1
  C  C350  1  0.39330000  0.78970000  0.68217000  1
  C  C351  1  0.39680000  0.83330000  0.22695000  1
  C  C352  1  0.39780000  0.88580000  0.49634000  1
  C  C353  1  0.39900000  0.85990000  0.97047000  1
  C  C354  1  0.39950000  0.80570000  0.91123000  1
  C  C355  1  0.40850000  0.32520000  0.36310000  1
  C  C356  1  0.40980000  0.84010000  0.42922000  1
  C  C357  1  0.43650000  0.82460000  0.18761000  1
  C  C358  1  0.44140000  0.80530000  0.94333000  1
  C  C359  1  0.44410000  0.83750000  0.46796000  1
  C  C360  1  0.45540000  0.72950000  0.60972000  1
  C  C361  1  0.46810000  0.21440000  0.51956000  1
  C  C362  1  0.47320000  0.75010000  0.67593000  1
  C  C363  1  0.47560000  0.25090000  0.04980000  1
  C  C364  1  0.47900000  0.22230000  0.81651000  1
  C  C365  1  0.49440000  0.28190000  0.35956000  1
  C  C366  1  0.50560000  0.71810000  0.64044000  1
  C  C367  1  0.52100000  0.77770000  0.18349000  1
  C  C368  1  0.52440000  0.74910000  0.95020000  1
  C  C369  1  0.52680000  0.24990000  0.32407000  1
  C  C370  1  0.53190000  0.78560000  0.48044000  1
  C  C371  1  0.54460000  0.27050000  0.39028000  1
  C  C372  1  0.55590000  0.16250000  0.53204000  1
  C  C373  1  0.55860000  0.19470000  0.05667000  1
  C  C374  1  0.56350000  0.17540000  0.81239000  1
  C  C375  1  0.59020000  0.15990000  0.57078000  1
  C  C376  1  0.59150000  0.67480000  0.63690000  1
  C  C377  1  0.60050000  0.19430000  0.08877000  1
  C  C378  1  0.60100000  0.14010000  0.02953000  1
  C  C379  1  0.60220000  0.11420000  0.50366000  1
  C  C380  1  0.60320000  0.16670000  0.77305000  1
  C  C381  1  0.60670000  0.21030000  0.31783000  1
  C  C382  1  0.61060000  0.13900000  0.84791000  1
  C  C383  1  0.62370000  0.23420000  0.38473000  1
  C  C384  1  0.65610000  0.20530000  0.34795000  1
  C  C385  1  0.67250000  0.11490000  0.57908000  1
  C  C386  1  0.67710000  0.09110000  0.03482000  1
  C  C387  1  0.68070000  0.14470000  0.09320000  1
  C  C388  1  0.68320000  0.06810000  0.51388000  1
  C  C389  1  0.68370000  0.12340000  0.77051000  1
  C  C390  1  0.68680000  0.56450000  0.09653000  1
  C  C391  1  0.69100000  0.10040000  0.84616000  1
  C  C392  1  0.70230000  0.54870000  0.41069000  1
  C  C393  1  0.71410000  0.07190000  0.54954000  1
  C  C394  1  0.71960000  0.09390000  0.06565000  1
  C  C395  1  0.71970000  0.74450000  0.04662000  1
  C  C396  1  0.72380000  0.54310000  0.87187000  1
  C  C397  1  0.72870000  0.09260000  0.80644000  1
  C  C398  1  0.73490000  0.72950000  0.27598000  1
  C  C399  1  0.73920000  0.46350000  0.41470000  1
  C  C400  1  0.74150000  0.47810000  0.11088000  1
  C  C401  1  0.74820000  0.42510000  0.08782000  1
  C  C402  1  0.75030000  0.42830000  0.38023000  1
  C  C403  1  0.75840000  0.40910000  0.86227000  1
  C  C404  1  0.76780000  0.13520000  0.30722000  1
  C  C405  1  0.76860000  0.41340000  0.45452000  1
  C  C406  1  0.76930000  0.45460000  0.88323000  1
  C  C407  1  0.77560000  0.82760000  0.28447000  1
  C  C408  1  0.77580000  0.77500000  0.02896000  1
  C  C409  1  0.77640000  0.67260000  0.74140000  1
  C  C410  1  0.78160000  0.45330000  0.57886000  1
  C  C411  1  0.78280000  0.45130000  0.14968000  1
  C  C412  1  0.78510000  0.77020000  0.26403000  1
  C  C413  1  0.78600000  0.68820000  0.50381000  1
  C  C414  1  0.79090000  0.34860000  0.38324000  1
  C  C415  1  0.79440000  0.34510000  0.10299000  1
  C  C416  1  0.79530000  0.32940000  0.87324000  1
  C  C417  1  0.79980000  0.80720000  0.05306000  1
  C  C418  1  0.80240000  0.77340000  0.98714000  1
  C  C419  1  0.80760000  0.33350000  0.45717000  1
  C  C420  1  0.81340000  0.10070000  0.19943000  1
  C  C421  1  0.81770000  0.41930000  0.91820000  1
  C  C422  1  0.81870000  0.30140000  0.42190000  1
  C  C423  1  0.82060000  0.86570000  0.27319000  1
  C  C424  1  0.82110000  0.31330000  0.58922000  1
  C  C425  1  0.82650000  0.37110000  0.60237000  1
  C  C426  1  0.82670000  0.06140000  0.95497000  1
  C  C427  1  0.82890000  0.37340000  0.16308000  1
  C  C428  1  0.82950000  0.03620000  0.58853000  1
  C  C429  1  0.83090000  0.07450000  0.44093000  1
  C  C430  1  0.83450000  0.72990000  0.49269000  1
  C  C431  1  0.83480000  0.23570000  0.26724000  1
  C  C432  1  0.83530000  0.31950000  0.14148000  1
  C  C433  1  0.83580000  0.70100000  0.73770000  1
  C  C434  1  0.83710000  0.75440000  0.22935000  1
  C  C435  1  0.83980000  0.73810000  0.76730000  1
  C  C436  1  0.84240000  0.76580000  0.52231000  1
  C  C437  1  0.84580000  0.05270000  0.09421000  1
  C  C438  1  0.84690000  0.29420000  0.90730000  1
  C  C439  1  0.85030000  0.83970000  0.03696000  1
  C  C440  1  0.85140000  0.80430000  0.96985000  1
  C  C441  1  0.85360000  0.04430000  0.83505000  1
  C  C442  1  0.85470000  0.10310000  0.30619000  1
  C  C443  1  0.85930000  0.33890000  0.93027000  1
  C  C444  1  0.86490000  0.35460000  0.64030000  1
  C  C445  1  0.86550000  0.74120000  0.45187000  1
  C  C446  1  0.86580000  0.23320000  0.61074000  1
  C  C447  1  0.86630000  0.97600000  0.35301000  1
  C  C448  1  0.87160000  0.84900000  0.23730000  1
  C  C449  1  0.87630000  0.83570000  0.99440000  1
  C  C450  1  0.87770000  0.81560000  0.51115000  1
  C  C451  1  0.88110000  0.79260000  0.21662000  1
  C  C452  1  0.88210000  0.16590000  0.89609000  1
  C  C453  1  0.88450000  0.18600000  0.13787000  1
  C  C454  1  0.88530000  0.18140000  0.39434000  1
  C  C455  1  0.88600000  0.15070000  0.28427000  1
  C  C456  1  0.88820000  0.13480000  0.52863000  1
  C  C457  1  0.88890000  0.68870000  0.70383000  1
  C  C458  1  0.89200000  0.15290000  0.02748000  1
  C  C459  1  0.89360000  0.76620000  0.76437000  1
  C  C460  1  0.89620000  0.99560000  0.70786000  1
  C  C461  1  0.90060000  0.78690000  0.44139000  1
  C  C462  1  0.90190000  0.06290000  0.19118000  1
  C  C463  1  0.90400000  0.02590000  0.32729000  1
  C  C464  1  0.90700000  0.27750000  0.66214000  1
  C  C465  1  0.90790000  0.82420000  0.47046000  1
  C  C466  1  0.91140000  0.21840000  0.64607000  1
  C  C467  1  0.91420000  0.03410000  0.94443000  1
  C  C468  1  0.91470000  0.94270000  0.24321000  1
  C  C469  1  0.91830000  0.13250000  0.77487000  1
  C  C470  1  0.92000000  0.04680000  0.43630000  1
  C  C471  1  0.92100000  0.00300000  0.57436000  1
  C  C472  1  0.92800000  0.02070000  0.07786000  1
  C  C473  1  0.93670000  0.10480000  0.16413000  1
  C  C474  1  0.93820000  0.00540000  0.82307000  1
  C  C475  1  0.94140000  0.08270000  0.91572000  1
  C  C476  1  0.94240000  0.71660000  0.69970000  1
  C  C477  1  0.94400000  0.75550000  0.72944000  1
  C  C478  1  0.94400000  0.90990000  0.99657000  1
  C  C479  1  0.94610000  0.09790000  0.41195000  1
  C  C480  1  0.94660000  0.91550000  0.48324000  1
  C  C481  1  0.94760000  0.86890000  0.61479000  1
  C  C482  1  0.94820000  0.98800000  0.21251000  1
  C  C483  1  0.94990000  0.05230000  0.55013000  1
  C  C484  1  0.94990000  0.87660000  0.86693000  1
  C  C485  1  0.95220000  0.06900000  0.04822000  1
  C  C486  1  0.95400000  0.88720000  0.12054000  1
  C  C487  1  0.96800000  0.08140000  0.64805000  1
  C  C488  1  0.96880000  0.11590000  0.27903000  1
  C  C489  1  0.96910000  0.96000000  0.96302000  1
  C  C490  1  0.97090000  0.04860000  0.79587000  1
  C  C491  1  0.97310000  0.97140000  0.45641000  1
  C  C492  1  0.97580000  0.92530000  0.59284000  1
  C  C493  1  0.98190000  0.94460000  0.09379000  1
  C  C494  1  0.98270000  0.99680000  0.32383000  1
  C  C495  1  0.98390000  0.95960000  0.70139000  1
  C  C496  1  0.98600000  0.92860000  0.84181000  1
  C  C497  1  0.99870000  0.83160000  0.74708000  1
  N  N498  1  0.17600000  0.54140000  0.27220000  1
  N  N499  1  0.21340000  0.31000000  0.09638000  1
  N  N500  1  0.28190000  0.49420000  0.74260000  1
  N  N501  1  0.39100000  0.73920000  0.10062000  1
  N  N502  1  0.48980000  0.16470000  0.66613000  1
  N  N503  1  0.49000000  0.79730000  0.78145000  1
  N  N504  1  0.51000000  0.20270000  0.21855000  1
  N  N505  1  0.51020000  0.83530000  0.33387000  1
  N  N506  1  0.60900000  0.26080000  0.89938000  1
  N  N507  1  0.71810000  0.50580000  0.25740000  1
  N  N508  1  0.78660000  0.69000000  0.90362000  1
  N  N509  1  0.82400000  0.45860000  0.72780000  1
  O  O510  1  0.00382000  0.21550000  0.27936000  1
  O  O511  1  0.04609000  0.85562000  0.33143000  1
  O  O512  1  0.05783000  0.13043000  0.54438000  1
  O  O513  1  0.07705000  0.13265000  0.02560000  1
  O  O514  1  0.08916000  0.11038000  0.77961000  1
  O  O515  1  0.10810000  0.60080000  0.27026000  1
  O  O516  1  0.11266000  0.78554000  0.07809000  1
  O  O517  1  0.12102000  0.75685000  0.83971000  1
  O  O518  1  0.13368000  0.77913000  0.57077000  1
  O  O519  1  0.17060000  0.36240000  0.06902000  1
  O  O520  1  0.18980000  0.29760000  0.13343000  1
  O  O521  1  0.19351000  0.94690000  0.19868000  1
  O  O522  1  0.20000000  0.53770000  0.23320000  1
  O  O523  1  0.20094000  0.95558000  0.93362000  1
  O  O524  1  0.20400000  0.97382000  0.44636000  1
  O  O525  1  0.21742000  0.49126000  0.40992000  1
  O  O526  1  0.22220000  0.50320000  0.29954000  1
  O  O527  1  0.22280000  0.56400000  0.74442000  1
  O  O528  1  0.22626000  0.35931000  0.28732000  1
  O  O529  1  0.22912000  0.33034000  0.45755000  1
  O  O530  1  0.23565000  0.32635000  0.52655000  1
  O  O531  1  0.26345000  0.83388000  0.65467000  1
  O  O532  1  0.26729000  0.30936000  0.74905000  1
  O  O533  1  0.26780000  0.53398000  0.45000000  1
  O  O534  1  0.26992000  0.31626000  0.22670000  1
  O  O535  1  0.27172000  0.41828000  0.10479000  1
  O  O536  1  0.28350000  0.43760000  0.76952000  1
  O  O537  1  0.28460000  0.26824000  0.09075000  1
  O  O538  1  0.30114000  0.42431000  0.55712000  1
  O  O539  1  0.30250000  0.28281000  0.97776000  1
  O  O540  1  0.30473000  0.26030000  0.68947000  1
  O  O541  1  0.30647000  0.24838000  0.91621000  1
  O  O542  1  0.31703000  0.42757000  0.16176000  1
  O  O543  1  0.32340000  0.40819000  0.62576000  1
  O  O544  1  0.32606000  0.39201000  0.87818000  1
  O  O545  1  0.32640000  0.74300000  0.11794000  1
  O  O546  1  0.33190000  0.48617000  0.71393000  1
  O  O547  1  0.34667000  0.41432000  0.93913000  1
  O  O548  1  0.36647000  0.34077000  0.33129000  1
  O  O549  1  0.37801000  0.34339000  0.39897000  1
  O  O550  1  0.39010000  0.79188000  0.07057000  1
  O  O551  1  0.42620000  0.25733000  0.54611000  1
  O  O552  1  0.42960000  0.83830000  0.75792000  1
  O  O553  1  0.43400000  0.28223000  0.07934000  1
  O  O554  1  0.43753000  0.25823000  0.78328000  1
  O  O555  1  0.44110000  0.24051000  0.23432000  1
  O  O556  1  0.44820000  0.21683000  0.48552000  1
  O  O557  1  0.44833000  0.22555000  0.85318000  1
  O  O558  1  0.44849000  0.26636000  0.01268000  1
  O  O559  1  0.45530000  0.68601000  0.11795000  1
  O  O560  1  0.45970000  0.23360000  0.64686000  1
  O  O561  1  0.47760000  0.11430000  0.65529000  1
  O  O562  1  0.48200000  0.79541000  0.82083000  1
  O  O563  1  0.49720000  0.83920000  0.29417000  1
  O  O564  1  0.50280000  0.16080000  0.70583000  1
  O  O565  1  0.51800000  0.20459000  0.17917000  1
  O  O566  1  0.52240000  0.88570000  0.34471000  1
  O  O567  1  0.54030000  0.76640000  0.35314000  1
  O  O568  1  0.54470000  0.31399000  0.88205000  1
  O  O569  1  0.55151000  0.73364000  0.98732000  1
  O  O570  1  0.55167000  0.77445000  0.14682000  1
  O  O571  1  0.55180000  0.78317000  0.51448000  1
  O  O572  1  0.55890000  0.75949000  0.76568000  1
  O  O573  1  0.56247000  0.74177000  0.21672000  1
  O  O574  1  0.56600000  0.71777000  0.92066000  1
  O  O575  1  0.57040000  0.16170000  0.24208000  1
  O  O576  1  0.57380000  0.74267000  0.45389000  1
  O  O577  1  0.60990000  0.20812000  0.92943000  1
  O  O578  1  0.62199000  0.65661000  0.60103000  1
  O  O579  1  0.63353000  0.65923000  0.66871000  1
  O  O580  1  0.65333000  0.58568000  0.06087000  1
  O  O581  1  0.66810000  0.51383000  0.28607000  1
  O  O582  1  0.67360000  0.25700000  0.88206000  1
  O  O583  1  0.67394000  0.60799000  0.12182000  1
  O  O584  1  0.67660000  0.59181000  0.37424000  1
  O  O585  1  0.68297000  0.57243000  0.83824000  1
  O  O586  1  0.69353000  0.75162000  0.08379000  1
  O  O587  1  0.69527000  0.73970000  0.31053000  1
  O  O588  1  0.69750000  0.71719000  0.02224000  1
  O  O589  1  0.69886000  0.57569000  0.44288000  1
  O  O590  1  0.71540000  0.73176000  0.90925000  1
  O  O591  1  0.71650000  0.56240000  0.23048000  1
  O  O592  1  0.72828000  0.58172000  0.89521000  1
  O  O593  1  0.73008000  0.68374000  0.77330000  1
  O  O594  1  0.73220000  0.46602000  0.55000000  1
  O  O595  1  0.73271000  0.69064000  0.25095000  1
  O  O596  1  0.73655000  0.16612000  0.34533000  1
  O  O597  1  0.76435000  0.67365000  0.47345000  1
  O  O598  1  0.77088000  0.66966000  0.54245000  1
  O  O599  1  0.77374000  0.64069000  0.71268000  1
  O  O600  1  0.77720000  0.43600000  0.25558000  1
  O  O601  1  0.77780000  0.49680000  0.70046000  1
  O  O602  1  0.78258000  0.50874000  0.59008000  1
  O  O603  1  0.79600000  0.02618000  0.55364000  1
  O  O604  1  0.79906000  0.04442000  0.06638000  1
  O  O605  1  0.80000000  0.46230000  0.76680000  1
  O  O606  1  0.80649000  0.05310000  0.80132000  1
  O  O607  1  0.81020000  0.70240000  0.86657000  1
  O  O608  1  0.82940000  0.63760000  0.93098000  1
  O  O609  1  0.86632000  0.22087000  0.42923000  1
  O  O610  1  0.87898000  0.24315000  0.16029000  1
  O  O611  1  0.88734000  0.21446000  0.92191000  1
  O  O612  1  0.89190000  0.39920000  0.72974000  1
  O  O613  1  0.91084000  0.88962000  0.22039000  1
  O  O614  1  0.92295000  0.86735000  0.97440000  1
  O  O615  1  0.94217000  0.86957000  0.45562000  1
  O  O616  1  0.95391000  0.14438000  0.66857000  1
  O  O617  1  0.99618000  0.78450000  0.72064000  1
