# generated using pymatgen
data_Fe3H88C124O17
_symmetry_space_group_name_H-M   'P 1'
_cell_length_a   14.92080000
_cell_length_b   38.39800000
_cell_length_c   41.28000000
_cell_angle_alpha   90.00000000
_cell_angle_beta   90.00000000
_cell_angle_gamma   90.00000000
_symmetry_Int_Tables_number   1
_chemical_formula_structural   Fe3H88C124O17
_chemical_formula_sum   'Fe12 H352 C496 O68'
_cell_volume   23650.50410035
_cell_formula_units_Z   4
loop_
 _symmetry_equiv_pos_site_id
 _symmetry_equiv_pos_as_xyz
  1  'x, y, z'
loop_
 _atom_site_type_symbol
 _atom_site_label
 _atom_site_symmetry_multiplicity
 _atom_site_fract_x
 _atom_site_fract_y
 _atom_site_fract_z
 _atom_site_occupancy
  Fe  Fe0  1  0.04004000  0.25000000  0.68737000  1
  Fe  Fe1  1  0.04004000  0.75000000  0.81263000  1
  Fe  Fe2  1  0.07220000  0.25000000  0.60808000  1
  Fe  Fe3  1  0.07220000  0.75000000  0.89192000  1
  Fe  Fe4  1  0.24727000  0.25000000  0.65692000  1
  Fe  Fe5  1  0.24727000  0.75000000  0.84308000  1
  Fe  Fe6  1  0.75273000  0.25000000  0.15692000  1
  Fe  Fe7  1  0.75273000  0.75000000  0.34308000  1
  Fe  Fe8  1  0.92780000  0.25000000  0.10808000  1
  Fe  Fe9  1  0.92780000  0.75000000  0.39192000  1
  Fe  Fe10  1  0.95996000  0.25000000  0.18737000  1
  Fe  Fe11  1  0.95996000  0.75000000  0.31263000  1
  H  H12  1  0.01180000  0.03900000  0.98200000  1
  H  H13  1  0.01180000  0.46100000  0.98200000  1
  H  H14  1  0.01180000  0.53900000  0.51800000  1
  H  H15  1  0.01180000  0.96100000  0.51800000  1
  H  H16  1  0.03710000  0.11780000  0.53900000  1
  H  H17  1  0.03710000  0.38220000  0.53900000  1
  H  H18  1  0.03710000  0.61780000  0.96100000  1
  H  H19  1  0.03710000  0.88220000  0.96100000  1
  H  H20  1  0.10110000  0.17300000  0.75850000  1
  H  H21  1  0.10110000  0.32700000  0.75850000  1
  H  H22  1  0.10110000  0.67300000  0.74150000  1
  H  H23  1  0.10110000  0.82700000  0.74150000  1
  H  H24  1  0.10300000  0.07950000  0.57060000  1
  H  H25  1  0.10300000  0.16810000  0.08840000  1
  H  H26  1  0.10300000  0.33190000  0.08840000  1
  H  H27  1  0.10300000  0.42050000  0.57060000  1
  H  H28  1  0.10300000  0.57950000  0.92940000  1
  H  H29  1  0.10300000  0.66810000  0.41160000  1
  H  H30  1  0.10300000  0.83190000  0.41160000  1
  H  H31  1  0.10300000  0.92050000  0.92940000  1
  H  H32  1  0.10430000  0.14530000  0.02320000  1
  H  H33  1  0.10430000  0.35470000  0.02320000  1
  H  H34  1  0.10430000  0.64530000  0.47680000  1
  H  H35  1  0.10430000  0.85470000  0.47680000  1
  H  H36  1  0.12750000  0.02810000  0.48840000  1
  H  H37  1  0.12750000  0.47190000  0.48840000  1
  H  H38  1  0.12750000  0.52810000  0.01160000  1
  H  H39  1  0.12750000  0.97190000  0.01160000  1
  H  H40  1  0.14110000  0.06700000  0.96090000  1
  H  H41  1  0.14110000  0.43300000  0.96090000  1
  H  H42  1  0.14110000  0.56700000  0.53910000  1
  H  H43  1  0.14110000  0.93300000  0.53910000  1
  H  H44  1  0.14540000  0.13550000  0.79770000  1
  H  H45  1  0.14540000  0.36450000  0.79770000  1
  H  H46  1  0.14540000  0.63550000  0.70230000  1
  H  H47  1  0.14540000  0.86450000  0.70230000  1
  H  H48  1  0.16850000  0.16990000  0.18200000  1
  H  H49  1  0.16850000  0.33010000  0.18200000  1
  H  H50  1  0.16850000  0.66990000  0.31800000  1
  H  H51  1  0.16850000  0.83010000  0.31800000  1
  H  H52  1  0.17260000  0.16950000  0.54820000  1
  H  H53  1  0.17260000  0.33050000  0.54820000  1
  H  H54  1  0.17260000  0.66950000  0.95180000  1
  H  H55  1  0.17260000  0.83050000  0.95180000  1
  H  H56  1  0.20650000  0.12550000  0.08000000  1
  H  H57  1  0.20650000  0.37450000  0.08000000  1
  H  H58  1  0.20650000  0.62550000  0.42000000  1
  H  H59  1  0.20650000  0.87450000  0.42000000  1
  H  H60  1  0.22130000  0.04930000  0.59100000  1
  H  H61  1  0.22130000  0.45070000  0.59100000  1
  H  H62  1  0.22130000  0.54930000  0.90900000  1
  H  H63  1  0.22130000  0.95070000  0.90900000  1
  H  H64  1  0.23000000  0.12600000  0.84330000  1
  H  H65  1  0.23000000  0.37400000  0.84330000  1
  H  H66  1  0.23000000  0.62600000  0.65670000  1
  H  H67  1  0.23000000  0.87400000  0.65670000  1
  H  H68  1  0.24110000  0.13060000  0.51450000  1
  H  H69  1  0.24110000  0.36940000  0.51450000  1
  H  H70  1  0.24110000  0.63060000  0.98550000  1
  H  H71  1  0.24110000  0.86940000  0.98550000  1
  H  H72  1  0.24430000  0.00460000  0.98850000  1
  H  H73  1  0.24430000  0.49540000  0.98850000  1
  H  H74  1  0.24430000  0.50460000  0.51150000  1
  H  H75  1  0.24430000  0.99540000  0.51150000  1
  H  H76  1  0.26460000  0.03790000  0.91050000  1
  H  H77  1  0.26460000  0.46210000  0.91050000  1
  H  H78  1  0.26460000  0.53790000  0.58950000  1
  H  H79  1  0.26460000  0.96210000  0.58950000  1
  H  H80  1  0.27370000  0.12810000  0.17300000  1
  H  H81  1  0.27370000  0.37190000  0.17300000  1
  H  H82  1  0.27370000  0.62810000  0.32700000  1
  H  H83  1  0.27370000  0.87190000  0.32700000  1
  H  H84  1  0.27500000  0.00570000  0.88740000  1
  H  H85  1  0.27500000  0.49430000  0.88740000  1
  H  H86  1  0.27500000  0.50570000  0.61260000  1
  H  H87  1  0.27500000  0.99430000  0.61260000  1
  H  H88  1  0.27640000  0.08950000  0.88460000  1
  H  H89  1  0.27640000  0.41050000  0.88460000  1
  H  H90  1  0.27640000  0.58950000  0.61540000  1
  H  H91  1  0.27640000  0.91050000  0.61540000  1
  H  H92  1  0.29900000  0.07900000  0.50070000  1
  H  H93  1  0.29900000  0.42100000  0.50070000  1
  H  H94  1  0.29900000  0.57900000  0.99930000  1
  H  H95  1  0.29900000  0.92100000  0.99930000  1
  H  H96  1  0.32410000  0.07150000  0.16050000  1
  H  H97  1  0.32410000  0.42850000  0.16050000  1
  H  H98  1  0.32410000  0.57150000  0.33950000  1
  H  H99  1  0.32410000  0.92850000  0.33950000  1
  H  H100  1  0.34000000  0.03820000  0.96480000  1
  H  H101  1  0.34000000  0.46180000  0.96480000  1
  H  H102  1  0.34000000  0.53820000  0.53520000  1
  H  H103  1  0.34000000  0.96180000  0.53520000  1
  H  H104  1  0.34210000  0.17030000  0.71990000  1
  H  H105  1  0.34210000  0.32970000  0.71990000  1
  H  H106  1  0.34210000  0.67030000  0.78010000  1
  H  H107  1  0.34210000  0.82970000  0.78010000  1
  H  H108  1  0.34450000  0.10840000  0.07230000  1
  H  H109  1  0.34450000  0.39160000  0.07230000  1
  H  H110  1  0.34450000  0.60840000  0.42770000  1
  H  H111  1  0.34450000  0.89160000  0.42770000  1
  H  H112  1  0.36450000  0.04280000  0.46420000  1
  H  H113  1  0.36450000  0.45720000  0.46420000  1
  H  H114  1  0.36450000  0.54280000  0.03580000  1
  H  H115  1  0.36450000  0.95720000  0.03580000  1
  H  H116  1  0.36820000  0.04580000  0.59500000  1
  H  H117  1  0.36820000  0.45420000  0.59500000  1
  H  H118  1  0.36820000  0.54580000  0.90500000  1
  H  H119  1  0.36820000  0.95420000  0.90500000  1
  H  H120  1  0.38710000  0.13230000  0.75950000  1
  H  H121  1  0.38710000  0.36770000  0.75950000  1
  H  H122  1  0.38710000  0.63230000  0.74050000  1
  H  H123  1  0.38710000  0.86770000  0.74050000  1
  H  H124  1  0.39290000  0.17840000  0.59850000  1
  H  H125  1  0.39290000  0.32160000  0.59850000  1
  H  H126  1  0.39290000  0.67840000  0.90150000  1
  H  H127  1  0.39290000  0.82160000  0.90150000  1
  H  H128  1  0.39410000  0.08080000  0.78600000  1
  H  H129  1  0.39410000  0.41920000  0.78600000  1
  H  H130  1  0.39410000  0.58080000  0.71400000  1
  H  H131  1  0.39410000  0.91920000  0.71400000  1
  H  H132  1  0.39590000  0.07770000  0.92010000  1
  H  H133  1  0.39590000  0.42230000  0.92010000  1
  H  H134  1  0.39590000  0.57770000  0.57990000  1
  H  H135  1  0.39590000  0.92230000  0.57990000  1
  H  H136  1  0.39790000  0.00640000  0.97610000  1
  H  H137  1  0.39790000  0.49360000  0.97610000  1
  H  H138  1  0.39790000  0.50640000  0.52390000  1
  H  H139  1  0.39790000  0.99360000  0.52390000  1
  H  H140  1  0.40100000  0.08610000  0.98200000  1
  H  H141  1  0.40100000  0.41390000  0.98200000  1
  H  H142  1  0.40100000  0.58610000  0.51800000  1
  H  H143  1  0.40100000  0.91390000  0.51800000  1
  H  H144  1  0.41510000  0.04590000  0.56100000  1
  H  H145  1  0.41510000  0.45410000  0.56100000  1
  H  H146  1  0.41510000  0.54590000  0.93900000  1
  H  H147  1  0.41510000  0.95410000  0.93900000  1
  H  H148  1  0.42010000  0.01940000  0.42130000  1
  H  H149  1  0.42010000  0.48060000  0.42130000  1
  H  H150  1  0.42010000  0.51940000  0.07870000  1
  H  H151  1  0.42010000  0.98060000  0.07870000  1
  H  H152  1  0.42450000  0.00680000  0.63930000  1
  H  H153  1  0.42450000  0.49320000  0.63930000  1
  H  H154  1  0.42450000  0.50680000  0.86070000  1
  H  H155  1  0.42450000  0.99320000  0.86070000  1
  H  H156  1  0.42960000  0.03080000  0.14850000  1
  H  H157  1  0.42960000  0.46920000  0.14850000  1
  H  H158  1  0.42960000  0.53080000  0.35150000  1
  H  H159  1  0.42960000  0.96920000  0.35150000  1
  H  H160  1  0.43610000  0.04340000  0.82660000  1
  H  H161  1  0.43610000  0.45660000  0.82660000  1
  H  H162  1  0.43610000  0.54340000  0.67340000  1
  H  H163  1  0.43610000  0.95660000  0.67340000  1
  H  H164  1  0.44560000  0.06610000  0.06020000  1
  H  H165  1  0.44560000  0.43390000  0.06020000  1
  H  H166  1  0.44560000  0.56610000  0.43980000  1
  H  H167  1  0.44560000  0.93390000  0.43980000  1
  H  H168  1  0.45340000  0.00510000  0.05080000  1
  H  H169  1  0.45340000  0.49490000  0.05080000  1
  H  H170  1  0.45340000  0.50510000  0.44920000  1
  H  H171  1  0.45340000  0.99490000  0.44920000  1
  H  H172  1  0.46450000  0.14020000  0.56410000  1
  H  H173  1  0.46450000  0.35980000  0.56410000  1
  H  H174  1  0.46450000  0.64020000  0.93590000  1
  H  H175  1  0.46450000  0.85980000  0.93590000  1
  H  H176  1  0.46990000  0.12380000  0.01770000  1
  H  H177  1  0.46990000  0.37620000  0.01770000  1
  H  H178  1  0.46990000  0.62380000  0.48230000  1
  H  H179  1  0.46990000  0.87620000  0.48230000  1
  H  H180  1  0.48810000  0.06980000  0.90340000  1
  H  H181  1  0.48810000  0.43020000  0.90340000  1
  H  H182  1  0.48810000  0.56980000  0.59660000  1
  H  H183  1  0.48810000  0.93020000  0.59660000  1
  H  H184  1  0.49400000  0.01810000  0.36700000  1
  H  H185  1  0.49400000  0.48190000  0.36700000  1
  H  H186  1  0.49400000  0.51810000  0.13300000  1
  H  H187  1  0.49400000  0.98190000  0.13300000  1
  H  H188  1  0.50600000  0.01810000  0.86700000  1
  H  H189  1  0.50600000  0.48190000  0.86700000  1
  H  H190  1  0.50600000  0.51810000  0.63300000  1
  H  H191  1  0.50600000  0.98190000  0.63300000  1
  H  H192  1  0.51190000  0.06980000  0.40340000  1
  H  H193  1  0.51190000  0.43020000  0.40340000  1
  H  H194  1  0.51190000  0.56980000  0.09660000  1
  H  H195  1  0.51190000  0.93020000  0.09660000  1
  H  H196  1  0.53010000  0.12380000  0.51770000  1
  H  H197  1  0.53010000  0.37620000  0.51770000  1
  H  H198  1  0.53010000  0.62380000  0.98230000  1
  H  H199  1  0.53010000  0.87620000  0.98230000  1
  H  H200  1  0.53550000  0.14020000  0.06410000  1
  H  H201  1  0.53550000  0.35980000  0.06410000  1
  H  H202  1  0.53550000  0.64020000  0.43590000  1
  H  H203  1  0.53550000  0.85980000  0.43590000  1
  H  H204  1  0.54660000  0.00510000  0.55080000  1
  H  H205  1  0.54660000  0.49490000  0.55080000  1
  H  H206  1  0.54660000  0.50510000  0.94920000  1
  H  H207  1  0.54660000  0.99490000  0.94920000  1
  H  H208  1  0.55440000  0.06610000  0.56020000  1
  H  H209  1  0.55440000  0.43390000  0.56020000  1
  H  H210  1  0.55440000  0.56610000  0.93980000  1
  H  H211  1  0.55440000  0.93390000  0.93980000  1
  H  H212  1  0.56390000  0.04340000  0.32660000  1
  H  H213  1  0.56390000  0.45660000  0.32660000  1
  H  H214  1  0.56390000  0.54340000  0.17340000  1
  H  H215  1  0.56390000  0.95660000  0.17340000  1
  H  H216  1  0.57040000  0.03080000  0.64850000  1
  H  H217  1  0.57040000  0.46920000  0.64850000  1
  H  H218  1  0.57040000  0.53080000  0.85150000  1
  H  H219  1  0.57040000  0.96920000  0.85150000  1
  H  H220  1  0.57550000  0.00680000  0.13930000  1
  H  H221  1  0.57550000  0.49320000  0.13930000  1
  H  H222  1  0.57550000  0.50680000  0.36070000  1
  H  H223  1  0.57550000  0.99320000  0.36070000  1
  H  H224  1  0.57990000  0.01940000  0.92130000  1
  H  H225  1  0.57990000  0.48060000  0.92130000  1
  H  H226  1  0.57990000  0.51940000  0.57870000  1
  H  H227  1  0.57990000  0.98060000  0.57870000  1
  H  H228  1  0.58490000  0.04590000  0.06100000  1
  H  H229  1  0.58490000  0.45410000  0.06100000  1
  H  H230  1  0.58490000  0.54590000  0.43900000  1
  H  H231  1  0.58490000  0.95410000  0.43900000  1
  H  H232  1  0.59900000  0.08610000  0.48200000  1
  H  H233  1  0.59900000  0.41390000  0.48200000  1
  H  H234  1  0.59900000  0.58610000  0.01800000  1
  H  H235  1  0.59900000  0.91390000  0.01800000  1
  H  H236  1  0.60210000  0.00640000  0.47610000  1
  H  H237  1  0.60210000  0.49360000  0.47610000  1
  H  H238  1  0.60210000  0.50640000  0.02390000  1
  H  H239  1  0.60210000  0.99360000  0.02390000  1
  H  H240  1  0.60410000  0.07770000  0.42010000  1
  H  H241  1  0.60410000  0.42230000  0.42010000  1
  H  H242  1  0.60410000  0.57770000  0.07990000  1
  H  H243  1  0.60410000  0.92230000  0.07990000  1
  H  H244  1  0.60590000  0.08080000  0.28600000  1
  H  H245  1  0.60590000  0.41920000  0.28600000  1
  H  H246  1  0.60590000  0.58080000  0.21400000  1
  H  H247  1  0.60590000  0.91920000  0.21400000  1
  H  H248  1  0.60710000  0.17840000  0.09850000  1
  H  H249  1  0.60710000  0.32160000  0.09850000  1
  H  H250  1  0.60710000  0.67840000  0.40150000  1
  H  H251  1  0.60710000  0.82160000  0.40150000  1
  H  H252  1  0.61290000  0.13230000  0.25950000  1
  H  H253  1  0.61290000  0.36770000  0.25950000  1
  H  H254  1  0.61290000  0.63230000  0.24050000  1
  H  H255  1  0.61290000  0.86770000  0.24050000  1
  H  H256  1  0.63180000  0.04580000  0.09500000  1
  H  H257  1  0.63180000  0.45420000  0.09500000  1
  H  H258  1  0.63180000  0.54580000  0.40500000  1
  H  H259  1  0.63180000  0.95420000  0.40500000  1
  H  H260  1  0.63550000  0.04280000  0.96420000  1
  H  H261  1  0.63550000  0.45720000  0.96420000  1
  H  H262  1  0.63550000  0.54280000  0.53580000  1
  H  H263  1  0.63550000  0.95720000  0.53580000  1
  H  H264  1  0.65550000  0.10840000  0.57230000  1
  H  H265  1  0.65550000  0.39160000  0.57230000  1
  H  H266  1  0.65550000  0.60840000  0.92770000  1
  H  H267  1  0.65550000  0.89160000  0.92770000  1
  H  H268  1  0.65790000  0.17030000  0.21990000  1
  H  H269  1  0.65790000  0.32970000  0.21990000  1
  H  H270  1  0.65790000  0.67030000  0.28010000  1
  H  H271  1  0.65790000  0.82970000  0.28010000  1
  H  H272  1  0.66000000  0.03820000  0.46480000  1
  H  H273  1  0.66000000  0.46180000  0.46480000  1
  H  H274  1  0.66000000  0.53820000  0.03520000  1
  H  H275  1  0.66000000  0.96180000  0.03520000  1
  H  H276  1  0.67590000  0.07150000  0.66050000  1
  H  H277  1  0.67590000  0.42850000  0.66050000  1
  H  H278  1  0.67590000  0.57150000  0.83950000  1
  H  H279  1  0.67590000  0.92850000  0.83950000  1
  H  H280  1  0.70100000  0.07900000  0.00070000  1
  H  H281  1  0.70100000  0.42100000  0.00070000  1
  H  H282  1  0.70100000  0.57900000  0.49930000  1
  H  H283  1  0.70100000  0.92100000  0.49930000  1
  H  H284  1  0.72360000  0.08950000  0.38460000  1
  H  H285  1  0.72360000  0.41050000  0.38460000  1
  H  H286  1  0.72360000  0.58950000  0.11540000  1
  H  H287  1  0.72360000  0.91050000  0.11540000  1
  H  H288  1  0.72500000  0.00570000  0.38740000  1
  H  H289  1  0.72500000  0.49430000  0.38740000  1
  H  H290  1  0.72500000  0.50570000  0.11260000  1
  H  H291  1  0.72500000  0.99430000  0.11260000  1
  H  H292  1  0.72630000  0.12810000  0.67300000  1
  H  H293  1  0.72630000  0.37190000  0.67300000  1
  H  H294  1  0.72630000  0.62810000  0.82700000  1
  H  H295  1  0.72630000  0.87190000  0.82700000  1
  H  H296  1  0.73540000  0.03790000  0.41050000  1
  H  H297  1  0.73540000  0.46210000  0.41050000  1
  H  H298  1  0.73540000  0.53790000  0.08950000  1
  H  H299  1  0.73540000  0.96210000  0.08950000  1
  H  H300  1  0.75570000  0.00460000  0.48850000  1
  H  H301  1  0.75570000  0.49540000  0.48850000  1
  H  H302  1  0.75570000  0.50460000  0.01150000  1
  H  H303  1  0.75570000  0.99540000  0.01150000  1
  H  H304  1  0.75890000  0.13060000  0.01450000  1
  H  H305  1  0.75890000  0.36940000  0.01450000  1
  H  H306  1  0.75890000  0.63060000  0.48550000  1
  H  H307  1  0.75890000  0.86940000  0.48550000  1
  H  H308  1  0.77000000  0.12600000  0.34330000  1
  H  H309  1  0.77000000  0.37400000  0.34330000  1
  H  H310  1  0.77000000  0.62600000  0.15670000  1
  H  H311  1  0.77000000  0.87400000  0.15670000  1
  H  H312  1  0.77870000  0.04930000  0.09100000  1
  H  H313  1  0.77870000  0.45070000  0.09100000  1
  H  H314  1  0.77870000  0.54930000  0.40900000  1
  H  H315  1  0.77870000  0.95070000  0.40900000  1
  H  H316  1  0.79350000  0.12550000  0.58000000  1
  H  H317  1  0.79350000  0.37450000  0.58000000  1
  H  H318  1  0.79350000  0.62550000  0.92000000  1
  H  H319  1  0.79350000  0.87450000  0.92000000  1
  H  H320  1  0.82740000  0.16950000  0.04820000  1
  H  H321  1  0.82740000  0.33050000  0.04820000  1
  H  H322  1  0.82740000  0.66950000  0.45180000  1
  H  H323  1  0.82740000  0.83050000  0.45180000  1
  H  H324  1  0.83150000  0.16990000  0.68200000  1
  H  H325  1  0.83150000  0.33010000  0.68200000  1
  H  H326  1  0.83150000  0.66990000  0.81800000  1
  H  H327  1  0.83150000  0.83010000  0.81800000  1
  H  H328  1  0.85460000  0.13550000  0.29770000  1
  H  H329  1  0.85460000  0.36450000  0.29770000  1
  H  H330  1  0.85460000  0.63550000  0.20230000  1
  H  H331  1  0.85460000  0.86450000  0.20230000  1
  H  H332  1  0.85890000  0.06700000  0.46090000  1
  H  H333  1  0.85890000  0.43300000  0.46090000  1
  H  H334  1  0.85890000  0.56700000  0.03910000  1
  H  H335  1  0.85890000  0.93300000  0.03910000  1
  H  H336  1  0.87250000  0.02810000  0.98840000  1
  H  H337  1  0.87250000  0.47190000  0.98840000  1
  H  H338  1  0.87250000  0.52810000  0.51160000  1
  H  H339  1  0.87250000  0.97190000  0.51160000  1
  H  H340  1  0.89570000  0.14530000  0.52320000  1
  H  H341  1  0.89570000  0.35470000  0.52320000  1
  H  H342  1  0.89570000  0.64530000  0.97680000  1
  H  H343  1  0.89570000  0.85470000  0.97680000  1
  H  H344  1  0.89700000  0.07950000  0.07060000  1
  H  H345  1  0.89700000  0.16810000  0.58840000  1
  H  H346  1  0.89700000  0.33190000  0.58840000  1
  H  H347  1  0.89700000  0.42050000  0.07060000  1
  H  H348  1  0.89700000  0.57950000  0.42940000  1
  H  H349  1  0.89700000  0.66810000  0.91160000  1
  H  H350  1  0.89700000  0.83190000  0.91160000  1
  H  H351  1  0.89700000  0.92050000  0.42940000  1
  H  H352  1  0.89890000  0.17300000  0.25850000  1
  H  H353  1  0.89890000  0.32700000  0.25850000  1
  H  H354  1  0.89890000  0.67300000  0.24150000  1
  H  H355  1  0.89890000  0.82700000  0.24150000  1
  H  H356  1  0.96290000  0.11780000  0.03900000  1
  H  H357  1  0.96290000  0.38220000  0.03900000  1
  H  H358  1  0.96290000  0.61780000  0.46100000  1
  H  H359  1  0.96290000  0.88220000  0.46100000  1
  H  H360  1  0.98820000  0.03900000  0.48200000  1
  H  H361  1  0.98820000  0.46100000  0.48200000  1
  H  H362  1  0.98820000  0.53900000  0.01800000  1
  H  H363  1  0.98820000  0.96100000  0.01800000  1
  C  C364  1  0.00400000  0.10600000  0.02610000  1
  C  C365  1  0.00400000  0.39400000  0.02610000  1
  C  C366  1  0.00400000  0.60600000  0.47390000  1
  C  C367  1  0.00400000  0.89400000  0.47390000  1
  C  C368  1  0.01230000  0.07270000  0.51650000  1
  C  C369  1  0.01230000  0.42730000  0.51650000  1
  C  C370  1  0.01230000  0.57270000  0.98350000  1
  C  C371  1  0.01230000  0.92730000  0.98350000  1
  C  C372  1  0.03220000  0.05950000  0.99150000  1
  C  C373  1  0.03220000  0.44050000  0.99150000  1
  C  C374  1  0.03220000  0.55950000  0.50850000  1
  C  C375  1  0.03220000  0.94050000  0.50850000  1
  C  C376  1  0.05670000  0.20189000  0.14129000  1
  C  C377  1  0.05670000  0.29811000  0.14129000  1
  C  C378  1  0.05670000  0.70189000  0.35871000  1
  C  C379  1  0.05670000  0.79811000  0.35871000  1
  C  C380  1  0.08780000  0.12340000  0.01560000  1
  C  C381  1  0.08780000  0.37660000  0.01560000  1
  C  C382  1  0.08780000  0.62340000  0.48440000  1
  C  C383  1  0.08780000  0.87660000  0.48440000  1
  C  C384  1  0.09460000  0.05510000  0.52840000  1
  C  C385  1  0.09460000  0.44490000  0.52840000  1
  C  C386  1  0.09460000  0.55510000  0.97160000  1
  C  C387  1  0.09460000  0.94490000  0.97160000  1
  C  C388  1  0.11120000  0.07600000  0.97880000  1
  C  C389  1  0.11120000  0.42400000  0.97880000  1
  C  C390  1  0.11120000  0.57600000  0.52120000  1
  C  C391  1  0.11120000  0.92400000  0.52120000  1
  C  C392  1  0.12420000  0.17422000  0.13636000  1
  C  C393  1  0.12420000  0.32578000  0.13636000  1
  C  C394  1  0.12420000  0.67422000  0.36364000  1
  C  C395  1  0.12420000  0.82578000  0.36364000  1
  C  C396  1  0.12920000  0.06215000  0.55799000  1
  C  C397  1  0.12920000  0.43785000  0.55799000  1
  C  C398  1  0.12920000  0.56215000  0.94201000  1
  C  C399  1  0.12920000  0.93785000  0.94201000  1
  C  C400  1  0.13740000  0.16022000  0.10566000  1
  C  C401  1  0.13740000  0.33978000  0.10566000  1
  C  C402  1  0.13740000  0.66022000  0.39434000  1
  C  C403  1  0.13740000  0.83978000  0.39434000  1
  C  C404  1  0.14000000  0.10480000  0.99380000  1
  C  C405  1  0.14000000  0.39520000  0.99380000  1
  C  C406  1  0.14000000  0.60480000  0.50620000  1
  C  C407  1  0.14000000  0.89520000  0.50620000  1
  C  C408  1  0.14310000  0.03172000  0.51000000  1
  C  C409  1  0.14310000  0.46828000  0.51000000  1
  C  C410  1  0.14310000  0.53172000  0.99000000  1
  C  C411  1  0.14310000  0.96828000  0.99000000  1
  C  C412  1  0.15970000  0.16484000  0.75832000  1
  C  C413  1  0.15970000  0.33516000  0.75832000  1
  C  C414  1  0.15970000  0.66484000  0.74168000  1
  C  C415  1  0.15970000  0.83516000  0.74168000  1
  C  C416  1  0.17640000  0.16141000  0.16112000  1
  C  C417  1  0.17640000  0.33859000  0.16112000  1
  C  C418  1  0.17640000  0.66141000  0.33888000  1
  C  C419  1  0.17640000  0.83859000  0.33888000  1
  C  C420  1  0.18610000  0.20243000  0.71071000  1
  C  C421  1  0.18610000  0.29757000  0.71071000  1
  C  C422  1  0.18610000  0.70243000  0.78929000  1
  C  C423  1  0.18610000  0.79757000  0.78929000  1
  C  C424  1  0.18620000  0.14196000  0.78180000  1
  C  C425  1  0.18620000  0.35804000  0.78180000  1
  C  C426  1  0.18620000  0.64196000  0.71820000  1
  C  C427  1  0.18620000  0.85804000  0.71820000  1
  C  C428  1  0.20050000  0.13494000  0.10059000  1
  C  C429  1  0.20050000  0.36506000  0.10059000  1
  C  C430  1  0.20050000  0.63494000  0.39941000  1
  C  C431  1  0.20050000  0.86506000  0.39941000  1
  C  C432  1  0.20270000  0.04416000  0.57001000  1
  C  C433  1  0.20270000  0.45584000  0.57001000  1
  C  C434  1  0.20270000  0.54416000  0.92999000  1
  C  C435  1  0.20270000  0.95584000  0.92999000  1
  C  C436  1  0.21600000  0.17586000  0.73501000  1
  C  C437  1  0.21600000  0.32414000  0.73501000  1
  C  C438  1  0.21600000  0.67586000  0.76499000  1
  C  C439  1  0.21600000  0.82414000  0.76499000  1
  C  C440  1  0.21750000  0.01289000  0.52373000  1
  C  C441  1  0.21750000  0.48711000  0.52373000  1
  C  C442  1  0.21750000  0.51289000  0.97627000  1
  C  C443  1  0.21750000  0.98711000  0.97627000  1
  C  C444  1  0.21900000  0.11990000  0.97590000  1
  C  C445  1  0.21900000  0.38010000  0.97590000  1
  C  C446  1  0.21900000  0.61990000  0.52410000  1
  C  C447  1  0.21900000  0.88010000  0.52410000  1
  C  C448  1  0.23050000  0.20308000  0.59942000  1
  C  C449  1  0.23050000  0.29692000  0.59942000  1
  C  C450  1  0.23050000  0.70308000  0.90058000  1
  C  C451  1  0.23050000  0.79692000  0.90058000  1
  C  C452  1  0.23210000  0.16354000  0.55194000  1
  C  C453  1  0.23210000  0.33646000  0.55194000  1
  C  C454  1  0.23210000  0.66354000  0.94806000  1
  C  C455  1  0.23210000  0.83646000  0.94806000  1
  C  C456  1  0.24010000  0.13632000  0.15561000  1
  C  C457  1  0.24010000  0.36368000  0.15561000  1
  C  C458  1  0.24010000  0.63632000  0.34439000  1
  C  C459  1  0.24010000  0.86368000  0.34439000  1
  C  C460  1  0.24950000  0.01960000  0.55330000  1
  C  C461  1  0.24950000  0.48040000  0.55330000  1
  C  C462  1  0.24950000  0.51960000  0.94670000  1
  C  C463  1  0.24950000  0.98040000  0.94670000  1
  C  C464  1  0.25560000  0.12294000  0.12522000  1
  C  C465  1  0.25560000  0.37706000  0.12522000  1
  C  C466  1  0.25560000  0.62294000  0.37478000  1
  C  C467  1  0.25560000  0.87706000  0.37478000  1
  C  C468  1  0.27010000  0.12845000  0.78254000  1
  C  C469  1  0.27010000  0.37155000  0.78254000  1
  C  C470  1  0.27010000  0.62845000  0.71746000  1
  C  C471  1  0.27010000  0.87155000  0.71746000  1
  C  C472  1  0.27080000  0.10832000  0.83881000  1
  C  C473  1  0.27080000  0.39168000  0.83881000  1
  C  C474  1  0.27080000  0.60832000  0.66119000  1
  C  C475  1  0.27080000  0.89168000  0.66119000  1
  C  C476  1  0.27410000  0.14041000  0.53130000  1
  C  C477  1  0.27410000  0.35959000  0.53130000  1
  C  C478  1  0.27410000  0.64041000  0.96870000  1
  C  C479  1  0.27410000  0.85959000  0.96870000  1
  C  C480  1  0.27480000  0.17748000  0.57707000  1
  C  C481  1  0.27480000  0.32252000  0.57707000  1
  C  C482  1  0.27480000  0.67748000  0.92293000  1
  C  C483  1  0.27480000  0.82252000  0.92293000  1
  C  C484  1  0.29950000  0.08609000  0.86390000  1
  C  C485  1  0.29950000  0.41391000  0.86390000  1
  C  C486  1  0.29950000  0.58609000  0.63610000  1
  C  C487  1  0.29950000  0.91391000  0.63610000  1
  C  C488  1  0.30130000  0.16321000  0.73567000  1
  C  C489  1  0.30130000  0.33679000  0.73567000  1
  C  C490  1  0.30130000  0.66321000  0.76433000  1
  C  C491  1  0.30130000  0.83679000  0.76433000  1
  C  C492  1  0.30170000  0.10430000  0.80844000  1
  C  C493  1  0.30170000  0.39570000  0.80844000  1
  C  C494  1  0.30170000  0.60430000  0.69156000  1
  C  C495  1  0.30170000  0.89570000  0.69156000  1
  C  C496  1  0.30570000  0.01989000  0.90338000  1
  C  C497  1  0.30570000  0.48011000  0.90338000  1
  C  C498  1  0.30570000  0.51989000  0.59662000  1
  C  C499  1  0.30570000  0.98011000  0.59662000  1
  C  C500  1  0.32570000  0.09629000  0.11859000  1
  C  C501  1  0.32570000  0.40371000  0.11859000  1
  C  C502  1  0.32570000  0.59629000  0.38141000  1
  C  C503  1  0.32570000  0.90371000  0.38141000  1
  C  C504  1  0.32820000  0.14014000  0.75932000  1
  C  C505  1  0.32820000  0.35986000  0.75932000  1
  C  C506  1  0.32820000  0.64014000  0.74068000  1
  C  C507  1  0.32820000  0.85986000  0.74068000  1
  C  C508  1  0.33160000  0.00338000  0.56708000  1
  C  C509  1  0.33160000  0.49662000  0.56708000  1
  C  C510  1  0.33160000  0.50338000  0.93292000  1
  C  C511  1  0.33160000  0.99662000  0.93292000  1
  C  C512  1  0.35030000  0.07167000  0.14004000  1
  C  C513  1  0.35030000  0.42833000  0.14004000  1
  C  C514  1  0.35030000  0.57167000  0.35996000  1
  C  C515  1  0.35030000  0.92833000  0.35996000  1
  C  C516  1  0.35970000  0.08168000  0.49626000  1
  C  C517  1  0.35970000  0.41832000  0.49626000  1
  C  C518  1  0.35970000  0.58168000  0.00374000  1
  C  C519  1  0.35970000  0.91832000  0.00374000  1
  C  C520  1  0.35980000  0.05980000  0.85934000  1
  C  C521  1  0.35980000  0.44020000  0.85934000  1
  C  C522  1  0.35980000  0.55980000  0.64066000  1
  C  C523  1  0.35980000  0.94020000  0.64066000  1
  C  C524  1  0.36120000  0.16880000  0.58123000  1
  C  C525  1  0.36120000  0.33120000  0.58123000  1
  C  C526  1  0.36120000  0.66880000  0.91877000  1
  C  C527  1  0.36120000  0.83120000  0.91877000  1
  C  C528  1  0.36180000  0.09295000  0.08844000  1
  C  C529  1  0.36180000  0.40705000  0.08844000  1
  C  C530  1  0.36180000  0.59295000  0.41156000  1
  C  C531  1  0.36180000  0.90705000  0.41156000  1
  C  C532  1  0.36220000  0.13135000  0.53461000  1
  C  C533  1  0.36220000  0.36865000  0.53461000  1
  C  C534  1  0.36220000  0.63135000  0.96539000  1
  C  C535  1  0.36220000  0.86865000  0.96539000  1
  C  C536  1  0.36420000  0.08228000  0.80574000  1
  C  C537  1  0.36420000  0.41772000  0.80574000  1
  C  C538  1  0.36420000  0.58228000  0.69426000  1
  C  C539  1  0.36420000  0.91772000  0.69426000  1
  C  C540  1  0.38060000  0.02018000  0.95743000  1
  C  C541  1  0.38060000  0.47982000  0.95743000  1
  C  C542  1  0.38060000  0.52018000  0.54257000  1
  C  C543  1  0.38060000  0.97982000  0.54257000  1
  C  C544  1  0.38780000  0.03692000  0.88771000  1
  C  C545  1  0.38780000  0.46308000  0.88771000  1
  C  C546  1  0.38780000  0.53692000  0.61229000  1
  C  C547  1  0.38780000  0.96308000  0.61229000  1
  C  C548  1  0.39150000  0.05957000  0.83118000  1
  C  C549  1  0.39150000  0.44043000  0.83118000  1
  C  C550  1  0.39150000  0.55957000  0.66882000  1
  C  C551  1  0.39150000  0.94043000  0.66882000  1
  C  C552  1  0.39770000  0.03122000  0.57904000  1
  C  C553  1  0.39770000  0.46878000  0.57904000  1
  C  C554  1  0.39770000  0.53122000  0.92096000  1
  C  C555  1  0.39770000  0.96878000  0.92096000  1
  C  C556  1  0.39940000  0.05951000  0.47451000  1
  C  C557  1  0.39940000  0.44049000  0.47451000  1
  C  C558  1  0.39940000  0.55951000  0.02549000  1
  C  C559  1  0.39940000  0.94049000  0.02549000  1
  C  C560  1  0.40480000  0.14576000  0.56030000  1
  C  C561  1  0.40480000  0.35424000  0.56030000  1
  C  C562  1  0.40480000  0.64576000  0.93970000  1
  C  C563  1  0.40480000  0.85424000  0.93970000  1
  C  C564  1  0.40640000  0.10784000  0.51190000  1
  C  C565  1  0.40640000  0.39216000  0.51190000  1
  C  C566  1  0.40640000  0.60784000  0.98810000  1
  C  C567  1  0.40640000  0.89216000  0.98810000  1
  C  C568  1  0.41380000  0.04655000  0.13238000  1
  C  C569  1  0.41380000  0.45345000  0.13238000  1
  C  C570  1  0.41380000  0.54655000  0.36762000  1
  C  C571  1  0.41380000  0.95345000  0.36762000  1
  C  C572  1  0.42340000  0.06733000  0.08123000  1
  C  C573  1  0.42340000  0.43267000  0.08123000  1
  C  C574  1  0.42340000  0.56733000  0.41877000  1
  C  C575  1  0.42340000  0.93267000  0.41877000  1
  C  C576  1  0.43560000  0.05918000  0.91305000  1
  C  C577  1  0.43560000  0.44082000  0.91305000  1
  C  C578  1  0.43560000  0.55918000  0.58695000  1
  C  C579  1  0.43560000  0.94082000  0.58695000  1
  C  C580  1  0.45340000  0.00771000  0.87685000  1
  C  C581  1  0.45340000  0.49229000  0.87685000  1
  C  C582  1  0.45340000  0.50771000  0.62315000  1
  C  C583  1  0.45340000  0.99229000  0.62315000  1
  C  C584  1  0.45370000  0.04330000  0.10387000  1
  C  C585  1  0.45370000  0.45670000  0.10387000  1
  C  C586  1  0.45370000  0.54330000  0.39613000  1
  C  C587  1  0.45370000  0.95670000  0.39613000  1
  C  C588  1  0.46280000  0.08491000  0.98461000  1
  C  C589  1  0.46280000  0.41509000  0.98461000  1
  C  C590  1  0.46280000  0.58491000  0.51539000  1
  C  C591  1  0.46280000  0.91509000  0.51539000  1
  C  C592  1  0.46450000  0.03726000  0.94284000  1
  C  C593  1  0.46450000  0.46274000  0.94284000  1
  C  C594  1  0.46450000  0.53726000  0.55716000  1
  C  C595  1  0.46450000  0.96274000  0.55716000  1
  C  C596  1  0.47280000  0.00879000  0.43090000  1
  C  C597  1  0.47280000  0.49121000  0.43090000  1
  C  C598  1  0.47280000  0.50879000  0.06910000  1
  C  C599  1  0.47280000  0.99121000  0.06910000  1
  C  C600  1  0.48220000  0.01500000  0.59423000  1
  C  C601  1  0.48220000  0.48500000  0.59423000  1
  C  C602  1  0.48220000  0.51500000  0.90577000  1
  C  C603  1  0.48220000  0.98500000  0.90577000  1
  C  C604  1  0.48980000  0.06139000  0.46752000  1
  C  C605  1  0.48980000  0.43861000  0.46752000  1
  C  C606  1  0.48980000  0.56139000  0.03248000  1
  C  C607  1  0.48980000  0.93861000  0.03248000  1
  C  C608  1  0.49480000  0.10787000  0.50648000  1
  C  C609  1  0.49480000  0.39213000  0.50648000  1
  C  C610  1  0.49480000  0.60787000  0.99352000  1
  C  C611  1  0.49480000  0.89213000  0.99352000  1
  C  C612  1  0.50520000  0.10787000  0.00648000  1
  C  C613  1  0.50520000  0.39213000  0.00648000  1
  C  C614  1  0.50520000  0.60787000  0.49352000  1
  C  C615  1  0.50520000  0.89213000  0.49352000  1
  C  C616  1  0.51020000  0.06139000  0.96752000  1
  C  C617  1  0.51020000  0.43861000  0.96752000  1
  C  C618  1  0.51020000  0.56139000  0.53248000  1
  C  C619  1  0.51020000  0.93861000  0.53248000  1
  C  C620  1  0.51780000  0.01500000  0.09423000  1
  C  C621  1  0.51780000  0.48500000  0.09423000  1
  C  C622  1  0.51780000  0.51500000  0.40577000  1
  C  C623  1  0.51780000  0.98500000  0.40577000  1
  C  C624  1  0.52720000  0.00879000  0.93090000  1
  C  C625  1  0.52720000  0.49121000  0.93090000  1
  C  C626  1  0.52720000  0.50879000  0.56910000  1
  C  C627  1  0.52720000  0.99121000  0.56910000  1
  C  C628  1  0.53550000  0.03726000  0.44284000  1
  C  C629  1  0.53550000  0.46274000  0.44284000  1
  C  C630  1  0.53550000  0.53726000  0.05716000  1
  C  C631  1  0.53550000  0.96274000  0.05716000  1
  C  C632  1  0.53720000  0.08491000  0.48461000  1
  C  C633  1  0.53720000  0.41509000  0.48461000  1
  C  C634  1  0.53720000  0.58491000  0.01539000  1
  C  C635  1  0.53720000  0.91509000  0.01539000  1
  C  C636  1  0.54630000  0.04330000  0.60387000  1
  C  C637  1  0.54630000  0.45670000  0.60387000  1
  C  C638  1  0.54630000  0.54330000  0.89613000  1
  C  C639  1  0.54630000  0.95670000  0.89613000  1
  C  C640  1  0.54660000  0.00771000  0.37685000  1
  C  C641  1  0.54660000  0.49229000  0.37685000  1
  C  C642  1  0.54660000  0.50771000  0.12315000  1
  C  C643  1  0.54660000  0.99229000  0.12315000  1
  C  C644  1  0.56440000  0.05918000  0.41305000  1
  C  C645  1  0.56440000  0.44082000  0.41305000  1
  C  C646  1  0.56440000  0.55918000  0.08695000  1
  C  C647  1  0.56440000  0.94082000  0.08695000  1
  C  C648  1  0.57660000  0.06733000  0.58123000  1
  C  C649  1  0.57660000  0.43267000  0.58123000  1
  C  C650  1  0.57660000  0.56733000  0.91877000  1
  C  C651  1  0.57660000  0.93267000  0.91877000  1
  C  C652  1  0.58620000  0.04655000  0.63238000  1
  C  C653  1  0.58620000  0.45345000  0.63238000  1
  C  C654  1  0.58620000  0.54655000  0.86762000  1
  C  C655  1  0.58620000  0.95345000  0.86762000  1
  C  C656  1  0.59360000  0.10784000  0.01190000  1
  C  C657  1  0.59360000  0.39216000  0.01190000  1
  C  C658  1  0.59360000  0.60784000  0.48810000  1
  C  C659  1  0.59360000  0.89216000  0.48810000  1
  C  C660  1  0.59520000  0.14576000  0.06030000  1
  C  C661  1  0.59520000  0.35424000  0.06030000  1
  C  C662  1  0.59520000  0.64576000  0.43970000  1
  C  C663  1  0.59520000  0.85424000  0.43970000  1
  C  C664  1  0.60060000  0.05951000  0.97451000  1
  C  C665  1  0.60060000  0.44049000  0.97451000  1
  C  C666  1  0.60060000  0.55951000  0.52549000  1
  C  C667  1  0.60060000  0.94049000  0.52549000  1
  C  C668  1  0.60230000  0.03122000  0.07904000  1
  C  C669  1  0.60230000  0.46878000  0.07904000  1
  C  C670  1  0.60230000  0.53122000  0.42096000  1
  C  C671  1  0.60230000  0.96878000  0.42096000  1
  C  C672  1  0.60850000  0.05957000  0.33118000  1
  C  C673  1  0.60850000  0.44043000  0.33118000  1
  C  C674  1  0.60850000  0.55957000  0.16882000  1
  C  C675  1  0.60850000  0.94043000  0.16882000  1
  C  C676  1  0.61220000  0.03692000  0.38771000  1
  C  C677  1  0.61220000  0.46308000  0.38771000  1
  C  C678  1  0.61220000  0.53692000  0.11229000  1
  C  C679  1  0.61220000  0.96308000  0.11229000  1
  C  C680  1  0.61940000  0.02018000  0.45743000  1
  C  C681  1  0.61940000  0.47982000  0.45743000  1
  C  C682  1  0.61940000  0.52018000  0.04257000  1
  C  C683  1  0.61940000  0.97982000  0.04257000  1
  C  C684  1  0.63580000  0.08228000  0.30574000  1
  C  C685  1  0.63580000  0.41772000  0.30574000  1
  C  C686  1  0.63580000  0.58228000  0.19426000  1
  C  C687  1  0.63580000  0.91772000  0.19426000  1
  C  C688  1  0.63780000  0.13135000  0.03461000  1
  C  C689  1  0.63780000  0.36865000  0.03461000  1
  C  C690  1  0.63780000  0.63135000  0.46539000  1
  C  C691  1  0.63780000  0.86865000  0.46539000  1
  C  C692  1  0.63820000  0.09295000  0.58844000  1
  C  C693  1  0.63820000  0.40705000  0.58844000  1
  C  C694  1  0.63820000  0.59295000  0.91156000  1
  C  C695  1  0.63820000  0.90705000  0.91156000  1
  C  C696  1  0.63880000  0.16880000  0.08123000  1
  C  C697  1  0.63880000  0.33120000  0.08123000  1
  C  C698  1  0.63880000  0.66880000  0.41877000  1
  C  C699  1  0.63880000  0.83120000  0.41877000  1
  C  C700  1  0.64020000  0.05980000  0.35934000  1
  C  C701  1  0.64020000  0.44020000  0.35934000  1
  C  C702  1  0.64020000  0.55980000  0.14066000  1
  C  C703  1  0.64020000  0.94020000  0.14066000  1
  C  C704  1  0.64030000  0.08168000  0.99626000  1
  C  C705  1  0.64030000  0.41832000  0.99626000  1
  C  C706  1  0.64030000  0.58168000  0.50374000  1
  C  C707  1  0.64030000  0.91832000  0.50374000  1
  C  C708  1  0.64970000  0.07167000  0.64004000  1
  C  C709  1  0.64970000  0.42833000  0.64004000  1
  C  C710  1  0.64970000  0.57167000  0.85996000  1
  C  C711  1  0.64970000  0.92833000  0.85996000  1
  C  C712  1  0.66840000  0.00338000  0.06708000  1
  C  C713  1  0.66840000  0.49662000  0.06708000  1
  C  C714  1  0.66840000  0.50338000  0.43292000  1
  C  C715  1  0.66840000  0.99662000  0.43292000  1
  C  C716  1  0.67180000  0.14014000  0.25932000  1
  C  C717  1  0.67180000  0.35986000  0.25932000  1
  C  C718  1  0.67180000  0.64014000  0.24068000  1
  C  C719  1  0.67180000  0.85986000  0.24068000  1
  C  C720  1  0.67430000  0.09629000  0.61859000  1
  C  C721  1  0.67430000  0.40371000  0.61859000  1
  C  C722  1  0.67430000  0.59629000  0.88141000  1
  C  C723  1  0.67430000  0.90371000  0.88141000  1
  C  C724  1  0.69430000  0.01989000  0.40338000  1
  C  C725  1  0.69430000  0.48011000  0.40338000  1
  C  C726  1  0.69430000  0.51989000  0.09662000  1
  C  C727  1  0.69430000  0.98011000  0.09662000  1
  C  C728  1  0.69830000  0.10430000  0.30844000  1
  C  C729  1  0.69830000  0.39570000  0.30844000  1
  C  C730  1  0.69830000  0.60430000  0.19156000  1
  C  C731  1  0.69830000  0.89570000  0.19156000  1
  C  C732  1  0.69870000  0.16321000  0.23567000  1
  C  C733  1  0.69870000  0.33679000  0.23567000  1
  C  C734  1  0.69870000  0.66321000  0.26433000  1
  C  C735  1  0.69870000  0.83679000  0.26433000  1
  C  C736  1  0.70050000  0.08609000  0.36390000  1
  C  C737  1  0.70050000  0.41391000  0.36390000  1
  C  C738  1  0.70050000  0.58609000  0.13610000  1
  C  C739  1  0.70050000  0.91391000  0.13610000  1
  C  C740  1  0.72520000  0.17748000  0.07707000  1
  C  C741  1  0.72520000  0.32252000  0.07707000  1
  C  C742  1  0.72520000  0.67748000  0.42293000  1
  C  C743  1  0.72520000  0.82252000  0.42293000  1
  C  C744  1  0.72590000  0.14041000  0.03130000  1
  C  C745  1  0.72590000  0.35959000  0.03130000  1
  C  C746  1  0.72590000  0.64041000  0.46870000  1
  C  C747  1  0.72590000  0.85959000  0.46870000  1
  C  C748  1  0.72920000  0.10832000  0.33881000  1
  C  C749  1  0.72920000  0.39168000  0.33881000  1
  C  C750  1  0.72920000  0.60832000  0.16119000  1
  C  C751  1  0.72920000  0.89168000  0.16119000  1
  C  C752  1  0.72990000  0.12845000  0.28254000  1
  C  C753  1  0.72990000  0.37155000  0.28254000  1
  C  C754  1  0.72990000  0.62845000  0.21746000  1
  C  C755  1  0.72990000  0.87155000  0.21746000  1
  C  C756  1  0.74440000  0.12294000  0.62522000  1
  C  C757  1  0.74440000  0.37706000  0.62522000  1
  C  C758  1  0.74440000  0.62294000  0.87478000  1
  C  C759  1  0.74440000  0.87706000  0.87478000  1
  C  C760  1  0.75050000  0.01960000  0.05330000  1
  C  C761  1  0.75050000  0.48040000  0.05330000  1
  C  C762  1  0.75050000  0.51960000  0.44670000  1
  C  C763  1  0.75050000  0.98040000  0.44670000  1
  C  C764  1  0.75990000  0.13632000  0.65561000  1
  C  C765  1  0.75990000  0.36368000  0.65561000  1
  C  C766  1  0.75990000  0.63632000  0.84439000  1
  C  C767  1  0.75990000  0.86368000  0.84439000  1
  C  C768  1  0.76790000  0.16354000  0.05194000  1
  C  C769  1  0.76790000  0.33646000  0.05194000  1
  C  C770  1  0.76790000  0.66354000  0.44806000  1
  C  C771  1  0.76790000  0.83646000  0.44806000  1
  C  C772  1  0.76950000  0.20308000  0.09942000  1
  C  C773  1  0.76950000  0.29692000  0.09942000  1
  C  C774  1  0.76950000  0.70308000  0.40058000  1
  C  C775  1  0.76950000  0.79692000  0.40058000  1
  C  C776  1  0.78100000  0.11990000  0.47590000  1
  C  C777  1  0.78100000  0.38010000  0.47590000  1
  C  C778  1  0.78100000  0.61990000  0.02410000  1
  C  C779  1  0.78100000  0.88010000  0.02410000  1
  C  C780  1  0.78250000  0.01289000  0.02373000  1
  C  C781  1  0.78250000  0.48711000  0.02373000  1
  C  C782  1  0.78250000  0.51289000  0.47627000  1
  C  C783  1  0.78250000  0.98711000  0.47627000  1
  C  C784  1  0.78400000  0.17586000  0.23501000  1
  C  C785  1  0.78400000  0.32414000  0.23501000  1
  C  C786  1  0.78400000  0.67586000  0.26499000  1
  C  C787  1  0.78400000  0.82414000  0.26499000  1
  C  C788  1  0.79730000  0.04416000  0.07001000  1
  C  C789  1  0.79730000  0.45584000  0.07001000  1
  C  C790  1  0.79730000  0.54416000  0.42999000  1
  C  C791  1  0.79730000  0.95584000  0.42999000  1
  C  C792  1  0.79950000  0.13494000  0.60059000  1
  C  C793  1  0.79950000  0.36506000  0.60059000  1
  C  C794  1  0.79950000  0.63494000  0.89941000  1
  C  C795  1  0.79950000  0.86506000  0.89941000  1
  C  C796  1  0.81380000  0.14196000  0.28180000  1
  C  C797  1  0.81380000  0.35804000  0.28180000  1
  C  C798  1  0.81380000  0.64196000  0.21820000  1
  C  C799  1  0.81380000  0.85804000  0.21820000  1
  C  C800  1  0.81390000  0.20243000  0.21071000  1
  C  C801  1  0.81390000  0.29757000  0.21071000  1
  C  C802  1  0.81390000  0.70243000  0.28929000  1
  C  C803  1  0.81390000  0.79757000  0.28929000  1
  C  C804  1  0.82360000  0.16141000  0.66112000  1
  C  C805  1  0.82360000  0.33859000  0.66112000  1
  C  C806  1  0.82360000  0.66141000  0.83888000  1
  C  C807  1  0.82360000  0.83859000  0.83888000  1
  C  C808  1  0.84030000  0.16484000  0.25832000  1
  C  C809  1  0.84030000  0.33516000  0.25832000  1
  C  C810  1  0.84030000  0.66484000  0.24168000  1
  C  C811  1  0.84030000  0.83516000  0.24168000  1
  C  C812  1  0.85690000  0.03172000  0.01000000  1
  C  C813  1  0.85690000  0.46828000  0.01000000  1
  C  C814  1  0.85690000  0.53172000  0.49000000  1
  C  C815  1  0.85690000  0.96828000  0.49000000  1
  C  C816  1  0.86000000  0.10480000  0.49380000  1
  C  C817  1  0.86000000  0.39520000  0.49380000  1
  C  C818  1  0.86000000  0.60480000  0.00620000  1
  C  C819  1  0.86000000  0.89520000  0.00620000  1
  C  C820  1  0.86260000  0.16022000  0.60566000  1
  C  C821  1  0.86260000  0.33978000  0.60566000  1
  C  C822  1  0.86260000  0.66022000  0.89434000  1
  C  C823  1  0.86260000  0.83978000  0.89434000  1
  C  C824  1  0.87080000  0.06215000  0.05799000  1
  C  C825  1  0.87080000  0.43785000  0.05799000  1
  C  C826  1  0.87080000  0.56215000  0.44201000  1
  C  C827  1  0.87080000  0.93785000  0.44201000  1
  C  C828  1  0.87580000  0.17422000  0.63636000  1
  C  C829  1  0.87580000  0.32578000  0.63636000  1
  C  C830  1  0.87580000  0.67422000  0.86364000  1
  C  C831  1  0.87580000  0.82578000  0.86364000  1
  C  C832  1  0.88880000  0.07600000  0.47880000  1
  C  C833  1  0.88880000  0.42400000  0.47880000  1
  C  C834  1  0.88880000  0.57600000  0.02120000  1
  C  C835  1  0.88880000  0.92400000  0.02120000  1
  C  C836  1  0.90540000  0.05510000  0.02840000  1
  C  C837  1  0.90540000  0.44490000  0.02840000  1
  C  C838  1  0.90540000  0.55510000  0.47160000  1
  C  C839  1  0.90540000  0.94490000  0.47160000  1
  C  C840  1  0.91220000  0.12340000  0.51560000  1
  C  C841  1  0.91220000  0.37660000  0.51560000  1
  C  C842  1  0.91220000  0.62340000  0.98440000  1
  C  C843  1  0.91220000  0.87660000  0.98440000  1
  C  C844  1  0.94330000  0.20189000  0.64129000  1
  C  C845  1  0.94330000  0.29811000  0.64129000  1
  C  C846  1  0.94330000  0.70189000  0.85871000  1
  C  C847  1  0.94330000  0.79811000  0.85871000  1
  C  C848  1  0.96780000  0.05950000  0.49150000  1
  C  C849  1  0.96780000  0.44050000  0.49150000  1
  C  C850  1  0.96780000  0.55950000  0.00850000  1
  C  C851  1  0.96780000  0.94050000  0.00850000  1
  C  C852  1  0.98770000  0.07270000  0.01650000  1
  C  C853  1  0.98770000  0.42730000  0.01650000  1
  C  C854  1  0.98770000  0.57270000  0.48350000  1
  C  C855  1  0.98770000  0.92730000  0.48350000  1
  C  C856  1  0.99600000  0.10600000  0.52610000  1
  C  C857  1  0.99600000  0.39400000  0.52610000  1
  C  C858  1  0.99600000  0.60600000  0.97390000  1
  C  C859  1  0.99600000  0.89400000  0.97390000  1
  O  O860  1  0.01730000  0.21290000  0.11660000  1
  O  O861  1  0.01730000  0.28710000  0.11660000  1
  O  O862  1  0.01730000  0.71290000  0.38340000  1
  O  O863  1  0.01730000  0.78710000  0.38340000  1
  O  O864  1  0.04280000  0.21227000  0.16952000  1
  O  O865  1  0.04280000  0.28773000  0.16952000  1
  O  O866  1  0.04280000  0.71227000  0.33048000  1
  O  O867  1  0.04280000  0.78773000  0.33048000  1
  O  O868  1  0.10860000  0.21284000  0.71160000  1
  O  O869  1  0.10860000  0.28716000  0.71160000  1
  O  O870  1  0.10860000  0.71284000  0.78840000  1
  O  O871  1  0.10860000  0.78716000  0.78840000  1
  O  O872  1  0.12050000  0.25000000  0.65085000  1
  O  O873  1  0.12050000  0.75000000  0.84915000  1
  O  O874  1  0.15580000  0.21320000  0.59120000  1
  O  O875  1  0.15580000  0.28680000  0.59120000  1
  O  O876  1  0.15580000  0.71320000  0.90880000  1
  O  O877  1  0.15580000  0.78680000  0.90880000  1
  O  O878  1  0.24310000  0.15010000  0.99400000  1
  O  O879  1  0.24310000  0.34990000  0.99400000  1
  O  O880  1  0.24310000  0.65010000  0.50600000  1
  O  O881  1  0.24310000  0.84990000  0.50600000  1
  O  O882  1  0.24600000  0.21222000  0.69124000  1
  O  O883  1  0.24600000  0.28778000  0.69124000  1
  O  O884  1  0.24600000  0.71222000  0.80876000  1
  O  O885  1  0.24600000  0.78778000  0.80876000  1
  O  O886  1  0.25650000  0.11200000  0.95290000  1
  O  O887  1  0.25650000  0.38800000  0.95290000  1
  O  O888  1  0.25650000  0.61200000  0.54710000  1
  O  O889  1  0.25650000  0.88800000  0.54710000  1
  O  O890  1  0.27220000  0.21330000  0.62349000  1
  O  O891  1  0.27220000  0.28670000  0.62349000  1
  O  O892  1  0.27220000  0.71330000  0.87651000  1
  O  O893  1  0.27220000  0.78670000  0.87651000  1
  O  O894  1  0.72780000  0.21330000  0.12349000  1
  O  O895  1  0.72780000  0.28670000  0.12349000  1
  O  O896  1  0.72780000  0.71330000  0.37651000  1
  O  O897  1  0.72780000  0.78670000  0.37651000  1
  O  O898  1  0.74350000  0.11200000  0.45290000  1
  O  O899  1  0.74350000  0.38800000  0.45290000  1
  O  O900  1  0.74350000  0.61200000  0.04710000  1
  O  O901  1  0.74350000  0.88800000  0.04710000  1
  O  O902  1  0.75400000  0.21222000  0.19124000  1
  O  O903  1  0.75400000  0.28778000  0.19124000  1
  O  O904  1  0.75400000  0.71222000  0.30876000  1
  O  O905  1  0.75400000  0.78778000  0.30876000  1
  O  O906  1  0.75690000  0.15010000  0.49400000  1
  O  O907  1  0.75690000  0.34990000  0.49400000  1
  O  O908  1  0.75690000  0.65010000  0.00600000  1
  O  O909  1  0.75690000  0.84990000  0.00600000  1
  O  O910  1  0.84420000  0.21320000  0.09120000  1
  O  O911  1  0.84420000  0.28680000  0.09120000  1
  O  O912  1  0.84420000  0.71320000  0.40880000  1
  O  O913  1  0.84420000  0.78680000  0.40880000  1
  O  O914  1  0.87950000  0.25000000  0.15085000  1
  O  O915  1  0.87950000  0.75000000  0.34915000  1
  O  O916  1  0.89140000  0.21284000  0.21160000  1
  O  O917  1  0.89140000  0.28716000  0.21160000  1
  O  O918  1  0.89140000  0.71284000  0.28840000  1
  O  O919  1  0.89140000  0.78716000  0.28840000  1
  O  O920  1  0.95720000  0.21227000  0.66952000  1
  O  O921  1  0.95720000  0.28773000  0.66952000  1
  O  O922  1  0.95720000  0.71227000  0.83048000  1
  O  O923  1  0.95720000  0.78773000  0.83048000  1
  O  O924  1  0.98270000  0.21290000  0.61660000  1
  O  O925  1  0.98270000  0.28710000  0.61660000  1
  O  O926  1  0.98270000  0.71290000  0.88340000  1
  O  O927  1  0.98270000  0.78710000  0.88340000  1
