# generated using pymatgen
data_EuH24(C8O)6
_symmetry_space_group_name_H-M   'P 1'
_cell_length_a   9.93550000
_cell_length_b   12.16610000
_cell_length_c   23.47300000
_cell_angle_alpha   75.39200000
_cell_angle_beta   80.66000000
_cell_angle_gamma   79.54900000
_symmetry_Int_Tables_number   1
_chemical_formula_structural   EuH24(C8O)6
_chemical_formula_sum   'Eu2 H48 C96 O12'
_cell_volume   2679.73569961
_cell_formula_units_Z   2
loop_
 _symmetry_equiv_pos_site_id
 _symmetry_equiv_pos_as_xyz
  1  'x, y, z'
loop_
 _atom_site_type_symbol
 _atom_site_label
 _atom_site_symmetry_multiplicity
 _atom_site_fract_x
 _atom_site_fract_y
 _atom_site_fract_z
 _atom_site_occupancy
  Eu  Eu0  1  0.26369000  0.48216000  0.49550000  1
  Eu  Eu1  1  0.73631000  0.51784000  0.50450000  1
  H  H2  1  0.02140000  0.24830000  0.91630000  1
  H  H3  1  0.04860000  0.04220000  0.07840000  1
  H  H4  1  0.06320000  0.14890000  0.77140000  1
  H  H5  1  0.06320000  0.80440000  0.98410000  1
  H  H6  1  0.09360000  0.49200000  0.73780000  1
  H  H7  1  0.11350000  0.52670000  0.12440000  1
  H  H8  1  0.13070000  0.24070000  0.67570000  1
  H  H9  1  0.18930000  0.94750000  0.33290000  1
  H  H10  1  0.20650000  0.49930000  0.64430000  1
  H  H11  1  0.21810000  0.15240000  0.87990000  1
  H  H12  1  0.23570000  0.56570000  0.33200000  1
  H  H13  1  0.25850000  0.29800000  0.02780000  1
  H  H14  1  0.27910000  0.01900000  0.23580000  1
  H  H15  1  0.30320000  0.65400000  0.23520000  1
  H  H16  1  0.30420000  0.58340000  0.92810000  1
  H  H17  1  0.32360000  0.58420000  0.09610000  1
  H  H18  1  0.33630000  0.34710000  0.92690000  1
  H  H19  1  0.37770000  0.15310000  0.08900000  1
  H  H20  1  0.39190000  0.22440000  0.74430000  1
  H  H21  1  0.42020000  0.61180000  0.99800000  1
  H  H22  1  0.42380000  0.56740000  0.78720000  1
  H  H23  1  0.46020000  0.74220000  0.10940000  1
  H  H24  1  0.46540000  0.42240000  0.30860000  1
  H  H25  1  0.49050000  0.30360000  0.64960000  1
  H  H26  1  0.50950000  0.69640000  0.35040000  1
  H  H27  1  0.53460000  0.57760000  0.69140000  1
  H  H28  1  0.53980000  0.25780000  0.89060000  1
  H  H29  1  0.57620000  0.43260000  0.21280000  1
  H  H30  1  0.57980000  0.38820000  0.00200000  1
  H  H31  1  0.60810000  0.77560000  0.25570000  1
  H  H32  1  0.62230000  0.84690000  0.91100000  1
  H  H33  1  0.66370000  0.65290000  0.07310000  1
  H  H34  1  0.67640000  0.41580000  0.90390000  1
  H  H35  1  0.69580000  0.41660000  0.07190000  1
  H  H36  1  0.69680000  0.34600000  0.76480000  1
  H  H37  1  0.72090000  0.98100000  0.76420000  1
  H  H38  1  0.74150000  0.70200000  0.97220000  1
  H  H39  1  0.76430000  0.43430000  0.66800000  1
  H  H40  1  0.78190000  0.84760000  0.12010000  1
  H  H41  1  0.79350000  0.50070000  0.35570000  1
  H  H42  1  0.81070000  0.05250000  0.66710000  1
  H  H43  1  0.86930000  0.75930000  0.32430000  1
  H  H44  1  0.88650000  0.47330000  0.87560000  1
  H  H45  1  0.90640000  0.50800000  0.26220000  1
  H  H46  1  0.93680000  0.19560000  0.01590000  1
  H  H47  1  0.93680000  0.85110000  0.22860000  1
  H  H48  1  0.95140000  0.95780000  0.92160000  1
  H  H49  1  0.97860000  0.75170000  0.08370000  1
  C  C50  1  0.00180000  0.59450000  0.40140000  1
  C  C51  1  0.00190000  0.20630000  0.75070000  1
  C  C52  1  0.01770000  0.15460000  0.00130000  1
  C  C53  1  0.04210000  0.26150000  0.69350000  1
  C  C54  1  0.04500000  0.65400000  0.33780000  1
  C  C55  1  0.06020000  0.51490000  0.94080000  1
  C  C56  1  0.06890000  0.18690000  0.94130000  1
  C  C57  1  0.07270000  0.51810000  0.04330000  1
  C  C58  1  0.08480000  0.06360000  0.03880000  1
  C  C59  1  0.12320000  0.52250000  0.87980000  1
  C  C60  1  0.12920000  0.76410000  0.22250000  1
  C  C61  1  0.13130000  0.53520000  0.98240000  1
  C  C62  1  0.15020000  0.53770000  0.08470000  1
  C  C63  1  0.17490000  0.62320000  0.31110000  1
  C  C64  1  0.17730000  0.82370000  0.16250000  1
  C  C65  1  0.17890000  0.52630000  0.83190000  1
  C  C66  1  0.18340000  0.50880000  0.72910000  1
  C  C67  1  0.18560000  0.12990000  0.91990000  1
  C  C68  1  0.20920000  0.00240000  0.01710000  1
  C  C69  1  0.21580000  0.67710000  0.25340000  1
  C  C70  1  0.22410000  0.86680000  0.11460000  1
  C  C71  1  0.24560000  0.52830000  0.77210000  1
  C  C72  1  0.25120000  0.51360000  0.67300000  1
  C  C73  1  0.26140000  0.03640000  0.95600000  1
  C  C74  1  0.26410000  0.57140000  0.96740000  1
  C  C75  1  0.27100000  0.75780000  0.41130000  1
  C  C76  1  0.27180000  0.91080000  0.31690000  1
  C  C77  1  0.27570000  0.57180000  0.06790000  1
  C  C78  1  0.28200000  0.90970000  0.05490000  1
  C  C79  1  0.32730000  0.95530000  0.25910000  1
  C  C80  1  0.33360000  0.58860000  0.00910000  1
  C  C81  1  0.33770000  0.81360000  0.35040000  1
  C  C82  1  0.34040000  0.25880000  0.01270000  1
  C  C83  1  0.37890000  0.55390000  0.75830000  1
  C  C84  1  0.38250000  0.53880000  0.65810000  1
  C  C85  1  0.38680000  0.97820000  0.93440000  1
  C  C86  1  0.38810000  0.28960000  0.95220000  1
  C  C87  1  0.41000000  0.85280000  0.03290000  1
  C  C88  1  0.41210000  0.17310000  0.04910000  1
  C  C89  1  0.44160000  0.01530000  0.87280000  1
  C  C90  1  0.44550000  0.55950000  0.70070000  1
  C  C91  1  0.45340000  0.90520000  0.23610000  1
  C  C92  1  0.45600000  0.54270000  0.59710000  1
  C  C93  1  0.46160000  0.88750000  0.97150000  1
  C  C94  1  0.46380000  0.76220000  0.32760000  1
  C  C95  1  0.47770000  0.19090000  0.72940000  1
  C  C96  1  0.48810000  0.05030000  0.82390000  1
  C  C97  1  0.49120000  0.76420000  0.06920000  1
  C  C98  1  0.50880000  0.23580000  0.93080000  1
  C  C99  1  0.51190000  0.94970000  0.17610000  1
  C  C100  1  0.52230000  0.80910000  0.27060000  1
  C  C101  1  0.53620000  0.23780000  0.67240000  1
  C  C102  1  0.53840000  0.11250000  0.02850000  1
  C  C103  1  0.54400000  0.45730000  0.40290000  1
  C  C104  1  0.54660000  0.09480000  0.76390000  1
  C  C105  1  0.55450000  0.44050000  0.29930000  1
  C  C106  1  0.55840000  0.98470000  0.12720000  1
  C  C107  1  0.58790000  0.82690000  0.95090000  1
  C  C108  1  0.59000000  0.14720000  0.96710000  1
  C  C109  1  0.61190000  0.71040000  0.04780000  1
  C  C110  1  0.61320000  0.02180000  0.06560000  1
  C  C111  1  0.61750000  0.46120000  0.34190000  1
  C  C112  1  0.62110000  0.44610000  0.24170000  1
  C  C113  1  0.65960000  0.74120000  0.98730000  1
  C  C114  1  0.66230000  0.18640000  0.64960000  1
  C  C115  1  0.66640000  0.41140000  0.99090000  1
  C  C116  1  0.67270000  0.04470000  0.74090000  1
  C  C117  1  0.71800000  0.09030000  0.94510000  1
  C  C118  1  0.72430000  0.42820000  0.93210000  1
  C  C119  1  0.72820000  0.08920000  0.68310000  1
  C  C120  1  0.72900000  0.24220000  0.58870000  1
  C  C121  1  0.73590000  0.42860000  0.03260000  1
  C  C122  1  0.73860000  0.96360000  0.04400000  1
  C  C123  1  0.74880000  0.48640000  0.32700000  1
  C  C124  1  0.75440000  0.47170000  0.22790000  1
  C  C125  1  0.77590000  0.13320000  0.88540000  1
  C  C126  1  0.78420000  0.32290000  0.74660000  1
  C  C127  1  0.79080000  0.99760000  0.98290000  1
  C  C128  1  0.81440000  0.87010000  0.08010000  1
  C  C129  1  0.81660000  0.49120000  0.27090000  1
  C  C130  1  0.82110000  0.47370000  0.16810000  1
  C  C131  1  0.82270000  0.17630000  0.83750000  1
  C  C132  1  0.82510000  0.37680000  0.68890000  1
  C  C133  1  0.84980000  0.46230000  0.91530000  1
  C  C134  1  0.86870000  0.46480000  0.01760000  1
  C  C135  1  0.87080000  0.23590000  0.77750000  1
  C  C136  1  0.87680000  0.47750000  0.12020000  1
  C  C137  1  0.91520000  0.93640000  0.96120000  1
  C  C138  1  0.92730000  0.48190000  0.95670000  1
  C  C139  1  0.93110000  0.81310000  0.05870000  1
  C  C140  1  0.93980000  0.48510000  0.05920000  1
  C  C141  1  0.95500000  0.34600000  0.66220000  1
  C  C142  1  0.95790000  0.73850000  0.30650000  1
  C  C143  1  0.98230000  0.84540000  0.99870000  1
  C  C144  1  0.99810000  0.79370000  0.24930000  1
  C  C145  1  0.99820000  0.40550000  0.59860000  1
  O  O146  1  0.09470000  0.53650000  0.43162000  1
  O  O147  1  0.12270000  0.39370000  0.57945000  1
  O  O148  1  0.15960000  0.80720000  0.43166000  1
  O  O149  1  0.33170000  0.66320000  0.43786000  1
  O  O150  1  0.39420000  0.52920000  0.55834000  1
  O  O151  1  0.41910000  0.44130000  0.41138000  1
  O  O152  1  0.58090000  0.55870000  0.58862000  1
  O  O153  1  0.60580000  0.47080000  0.44166000  1
  O  O154  1  0.66830000  0.33680000  0.56214000  1
  O  O155  1  0.84040000  0.19280000  0.56834000  1
  O  O156  1  0.87730000  0.60630000  0.42055000  1
  O  O157  1  0.90530000  0.46350000  0.56838000  1
