# generated using pymatgen
data_CaH8C18N6O
_symmetry_space_group_name_H-M   'P 1'
_cell_length_a   9.49300000
_cell_length_b   11.24200000
_cell_length_c   11.27000000
_cell_angle_alpha   82.89000000
_cell_angle_beta   83.80000000
_cell_angle_gamma   77.68000000
_symmetry_Int_Tables_number   1
_chemical_formula_structural   CaH8C18N6O
_chemical_formula_sum   'Ca2 H16 C36 N12 O2'
_cell_volume   1161.86787370
_cell_formula_units_Z   2
loop_
 _symmetry_equiv_pos_site_id
 _symmetry_equiv_pos_as_xyz
  1  'x, y, z'
loop_
 _atom_site_type_symbol
 _atom_site_label
 _atom_site_symmetry_multiplicity
 _atom_site_fract_x
 _atom_site_fract_y
 _atom_site_fract_z
 _atom_site_occupancy
  Ca  Ca0  1  0.02541000  0.66994000  0.02221000  1
  Ca  Ca1  1  0.97459000  0.33006000  0.97779000  1
  H  H2  1  0.00080000  0.04180000  0.69620000  1
  H  H3  1  0.01130000  0.14960000  0.33990000  1
  H  H4  1  0.01720000  0.45780000  0.18210000  1
  H  H5  1  0.15140000  0.41580000  0.12710000  1
  H  H6  1  0.26260000  0.62890000  0.57160000  1
  H  H7  1  0.29260000  0.60420000  0.37230000  1
  H  H8  1  0.30110000  0.33340000  0.64400000  1
  H  H9  1  0.33130000  0.30670000  0.44590000  1
  H  H10  1  0.66870000  0.69330000  0.55410000  1
  H  H11  1  0.69890000  0.66666667  0.35600000  1
  H  H12  1  0.70740000  0.39580000  0.62770000  1
  H  H13  1  0.73740000  0.37110000  0.42840000  1
  H  H14  1  0.84860000  0.58420000  0.87290000  1
  H  H15  1  0.98280000  0.54220000  0.81790000  1
  H  H16  1  0.98870000  0.85040000  0.66010000  1
  H  H17  1  0.99920000  0.95820000  0.30380000  1
  C  C18  1  0.00060000  0.02480000  0.61760000  1
  C  C19  1  0.00690000  0.08940000  0.40390000  1
  C  C20  1  0.00810000  0.11880000  0.52290000  1
  C  C21  1  0.01330000  0.27100000  0.66260000  1
  C  C22  1  0.01620000  0.23950000  0.54430000  1
  C  C23  1  0.02240000  0.33290000  0.45030000  1
  C  C24  1  0.31020000  0.67340000  0.78140000  1
  C  C25  1  0.34740000  0.37710000  0.85070000  1
  C  C26  1  0.35010000  0.63630000  0.52850000  1
  C  C27  1  0.36810000  0.62150000  0.40890000  1
  C  C28  1  0.38850000  0.34080000  0.60070000  1
  C  C29  1  0.40030000  0.60580000  0.15150000  1
  C  C30  1  0.40630000  0.32540000  0.48210000  1
  C  C31  1  0.44270000  0.67700000  0.71210000  1
  C  C32  1  0.44360000  0.30080000  0.22650000  1
  C  C33  1  0.46210000  0.66260000  0.58800000  1
  C  C34  1  0.48130000  0.38350000  0.78560000  1
  C  C35  1  0.49880000  0.63200000  0.33960000  1
  C  C36  1  0.50120000  0.36800000  0.66040000  1
  C  C37  1  0.51870000  0.61650000  0.21440000  1
  C  C38  1  0.53790000  0.33740000  0.41200000  1
  C  C39  1  0.55640000  0.69920000  0.77350000  1
  C  C40  1  0.55730000  0.32300000  0.28790000  1
  C  C41  1  0.59370000  0.67460000  0.51790000  1
  C  C42  1  0.59970000  0.39420000  0.84850000  1
  C  C43  1  0.61150000  0.65920000  0.39930000  1
  C  C44  1  0.63190000  0.37850000  0.59110000  1
  C  C45  1  0.64990000  0.36370000  0.47150000  1
  C  C46  1  0.65260000  0.62290000  0.14930000  1
  C  C47  1  0.68980000  0.32660000  0.21860000  1
  C  C48  1  0.97760000  0.66710000  0.54970000  1
  C  C49  1  0.98380000  0.76050000  0.45570000  1
  C  C50  1  0.98670000  0.72900000  0.33740000  1
  C  C51  1  0.99190000  0.88120000  0.47710000  1
  C  C52  1  0.99310000  0.91060000  0.59610000  1
  C  C53  1  0.99940000  0.97520000  0.38240000  1
  N  N54  1  0.01000000  0.29560000  0.75920000  1
  N  N55  1  0.02580000  0.40570000  0.36980000  1
  N  N56  1  0.20150000  0.67270000  0.83890000  1
  N  N57  1  0.23590000  0.37070000  0.89820000  1
  N  N58  1  0.30030000  0.60080000  0.10310000  1
  N  N59  1  0.34990000  0.28390000  0.17970000  1
  N  N60  1  0.65010000  0.71610000  0.82030000  1
  N  N61  1  0.69970000  0.39920000  0.89690000  1
  N  N62  1  0.76410000  0.62930000  0.10180000  1
  N  N63  1  0.79850000  0.32730000  0.16110000  1
  N  N64  1  0.97420000  0.59430000  0.63020000  1
  N  N65  1  0.99000000  0.70440000  0.24080000  1
  O  O66  1  0.06640000  0.45490000  0.11444000  1
  O  O67  1  0.93360000  0.54510000  0.88556000  1
