# generated using pymatgen
data_VH4C8O5
_symmetry_space_group_name_H-M   'P 1'
_cell_length_a   6.79600000
_cell_length_b   10.21400000
_cell_length_c   18.41000000
_cell_angle_alpha   90.00000000
_cell_angle_beta   90.00000000
_cell_angle_gamma   90.00000000
_symmetry_Int_Tables_number   1
_chemical_formula_structural   VH4C8O5
_chemical_formula_sum   'V4 H16 C32 O20'
_cell_volume   1277.91807304
_cell_formula_units_Z   4
loop_
 _symmetry_equiv_pos_site_id
 _symmetry_equiv_pos_as_xyz
  1  'x, y, z'
loop_
 _atom_site_type_symbol
 _atom_site_label
 _atom_site_symmetry_multiplicity
 _atom_site_fract_x
 _atom_site_fract_y
 _atom_site_fract_z
 _atom_site_occupancy
  V  V0  1  0.19930000  0.73230000  0.75000000  1
  V  V1  1  0.30070000  0.23230000  0.25000000  1
  V  V2  1  0.69930000  0.76770000  0.75000000  1
  V  V3  1  0.80070000  0.26770000  0.25000000  1
  H  H4  1  0.20260000  0.52400000  0.55790000  1
  H  H5  1  0.20260000  0.52400000  0.94210000  1
  H  H6  1  0.21410000  0.44010000  0.05840000  1
  H  H7  1  0.21410000  0.44010000  0.44160000  1
  H  H8  1  0.28590000  0.94010000  0.55840000  1
  H  H9  1  0.28590000  0.94010000  0.94160000  1
  H  H10  1  0.29740000  0.02400000  0.05790000  1
  H  H11  1  0.29740000  0.02400000  0.44210000  1
  H  H12  1  0.70260000  0.97600000  0.55790000  1
  H  H13  1  0.70260000  0.97600000  0.94210000  1
  H  H14  1  0.71410000  0.05990000  0.05840000  1
  H  H15  1  0.71410000  0.05990000  0.44160000  1
  H  H16  1  0.78590000  0.55990000  0.55840000  1
  H  H17  1  0.78590000  0.55990000  0.94160000  1
  H  H18  1  0.79740000  0.47600000  0.05790000  1
  H  H19  1  0.79740000  0.47600000  0.44210000  1
  C  C20  1  0.00720000  0.04770000  0.06970000  1
  C  C21  1  0.00720000  0.04770000  0.43030000  1
  C  C22  1  0.01380000  0.10840000  0.14370000  1
  C  C23  1  0.01380000  0.10840000  0.35630000  1
  C  C24  1  0.17000000  0.96480000  0.53500000  1
  C  C25  1  0.17000000  0.96480000  0.96500000  1
  C  C26  1  0.17700000  0.01390000  0.03460000  1
  C  C27  1  0.17700000  0.01390000  0.46540000  1
  C  C28  1  0.32300000  0.51390000  0.53460000  1
  C  C29  1  0.32300000  0.51390000  0.96540000  1
  C  C30  1  0.33000000  0.46480000  0.03500000  1
  C  C31  1  0.33000000  0.46480000  0.46500000  1
  C  C32  1  0.48620000  0.60840000  0.64370000  1
  C  C33  1  0.48620000  0.60840000  0.85630000  1
  C  C34  1  0.49280000  0.54770000  0.56970000  1
  C  C35  1  0.49280000  0.54770000  0.93030000  1
  C  C36  1  0.50720000  0.45230000  0.06970000  1
  C  C37  1  0.50720000  0.45230000  0.43030000  1
  C  C38  1  0.51380000  0.39160000  0.14370000  1
  C  C39  1  0.51380000  0.39160000  0.35630000  1
  C  C40  1  0.67000000  0.53520000  0.53500000  1
  C  C41  1  0.67000000  0.53520000  0.96500000  1
  C  C42  1  0.67700000  0.48610000  0.03460000  1
  C  C43  1  0.67700000  0.48610000  0.46540000  1
  C  C44  1  0.82300000  0.98610000  0.53460000  1
  C  C45  1  0.82300000  0.98610000  0.96540000  1
  C  C46  1  0.83000000  0.03520000  0.03500000  1
  C  C47  1  0.83000000  0.03520000  0.46500000  1
  C  C48  1  0.98620000  0.89160000  0.64370000  1
  C  C49  1  0.98620000  0.89160000  0.85630000  1
  C  C50  1  0.99280000  0.95230000  0.56970000  1
  C  C51  1  0.99280000  0.95230000  0.93030000  1
  O  O52  1  0.01600000  0.32840000  0.25000000  1
  O  O53  1  0.14830000  0.86030000  0.67250000  1
  O  O54  1  0.14830000  0.86030000  0.82750000  1
  O  O55  1  0.18070000  0.12420000  0.17170000  1
  O  O56  1  0.18070000  0.12420000  0.32830000  1
  O  O57  1  0.31930000  0.62420000  0.67170000  1
  O  O58  1  0.31930000  0.62420000  0.82830000  1
  O  O59  1  0.35170000  0.36030000  0.17250000  1
  O  O60  1  0.35170000  0.36030000  0.32750000  1
  O  O61  1  0.48400000  0.82840000  0.75000000  1
  O  O62  1  0.51600000  0.17160000  0.25000000  1
  O  O63  1  0.64830000  0.63970000  0.67250000  1
  O  O64  1  0.64830000  0.63970000  0.82750000  1
  O  O65  1  0.68070000  0.37580000  0.17170000  1
  O  O66  1  0.68070000  0.37580000  0.32830000  1
  O  O67  1  0.81930000  0.87580000  0.67170000  1
  O  O68  1  0.81930000  0.87580000  0.82830000  1
  O  O69  1  0.85170000  0.13970000  0.17250000  1
  O  O70  1  0.85170000  0.13970000  0.32750000  1
  O  O71  1  0.98400000  0.67160000  0.75000000  1
