# generated using pymatgen
data_Tb4Cu13H48C65N15(ClO4)6
_symmetry_space_group_name_H-M   'P 1'
_cell_length_a   9.89600000
_cell_length_b   16.21000000
_cell_length_c   18.44300000
_cell_angle_alpha   92.00200000
_cell_angle_beta   103.58000000
_cell_angle_gamma   92.51000000
_symmetry_Int_Tables_number   1
_chemical_formula_structural   Tb4Cu13H48C65N15(ClO4)6
_chemical_formula_sum   'Tb4 Cu13 H48 C65 N15 Cl6 O24'
_cell_volume   2869.93188785
_cell_formula_units_Z   1
loop_
 _symmetry_equiv_pos_site_id
 _symmetry_equiv_pos_as_xyz
  1  'x, y, z'
loop_
 _atom_site_type_symbol
 _atom_site_label
 _atom_site_symmetry_multiplicity
 _atom_site_fract_x
 _atom_site_fract_y
 _atom_site_fract_z
 _atom_site_occupancy
  Tb  Tb0  1  0.24893000  0.02120000  0.49698000  1
  Tb  Tb1  1  0.25840000  0.52773000  0.51039000  1
  Tb  Tb2  1  0.74160000  0.47227000  0.48961000  1
  Tb  Tb3  1  0.75107000  0.97880000  0.50302000  1
  Cu  Cu4  1  0.08054000  0.42572000  0.03792000  1
  Cu  Cu5  1  0.08228000  0.84039000  0.95439000  1
  Cu  Cu6  1  0.10626000  0.12446000  0.95933000  1
  Cu  Cu7  1  0.19812000  0.35593000  0.94806000  1
  Cu  Cu8  1  0.37600000  0.51740000  0.98160000  1
  Cu  Cu9  1  0.44255000  0.04696000  0.03253000  1
  Cu  Cu10  1  0.50000000  0.50000000  0.00000000  1
  Cu  Cu11  1  0.55745000  0.95304000  0.96747000  1
  Cu  Cu12  1  0.62400000  0.48260000  0.01840000  1
  Cu  Cu13  1  0.80188000  0.64407000  0.05194000  1
  Cu  Cu14  1  0.89374000  0.87554000  0.04067000  1
  Cu  Cu15  1  0.91772000  0.15961000  0.04561000  1
  Cu  Cu16  1  0.91946000  0.57428000  0.96208000  1
  H  H17  1  0.02030000  0.69450000  0.18420000  1
  H  H18  1  0.04250000  0.38480000  0.44120000  1
  H  H19  1  0.04700000  0.91120000  0.68970000  1
  H  H20  1  0.04900000  0.48580000  0.18740000  1
  H  H21  1  0.09170000  0.65950000  0.30540000  1
  H  H22  1  0.11870000  0.92130000  0.81680000  1
  H  H23  1  0.11920000  0.89950000  0.18190000  1
  H  H24  1  0.13930000  0.92470000  0.30730000  1
  H  H25  1  0.14390000  0.25640000  0.16470000  1
  H  H26  1  0.16610000  0.49390000  0.30960000  1
  H  H27  1  0.18390000  0.38910000  0.44850000  1
  H  H28  1  0.22020000  0.27500000  0.29130000  1
  H  H29  1  0.24730000  0.06190000  0.25540000  1
  H  H30  1  0.25200000  0.06310000  0.13190000  1
  H  H31  1  0.26350000  0.14350000  0.72520000  1
  H  H32  1  0.27050000  0.17140000  0.84840000  1
  H  H33  1  0.27730000  0.84090000  0.45890000  1
  H  H34  1  0.28340000  0.45020000  0.71040000  1
  H  H35  1  0.34690000  0.41050000  0.83150000  1
  H  H36  1  0.35340000  0.99450000  0.69760000  1
  H  H37  1  0.35780000  0.90760000  0.49220000  1
  H  H38  1  0.35920000  0.99000000  0.82190000  1
  H  H39  1  0.36680000  0.40010000  0.12710000  1
  H  H40  1  0.49780000  0.41050000  0.24650000  1
  H  H41  1  0.50220000  0.58950000  0.75350000  1
  H  H42  1  0.63320000  0.59990000  0.87290000  1
  H  H43  1  0.64080000  0.01000000  0.17810000  1
  H  H44  1  0.64220000  0.09240000  0.50780000  1
  H  H45  1  0.64660000  0.00550000  0.30240000  1
  H  H46  1  0.65310000  0.58950000  0.16850000  1
  H  H47  1  0.71660000  0.54980000  0.28960000  1
  H  H48  1  0.72270000  0.15910000  0.54110000  1
  H  H49  1  0.72950000  0.82860000  0.15160000  1
  H  H50  1  0.73650000  0.85650000  0.27480000  1
  H  H51  1  0.74800000  0.93690000  0.86810000  1
  H  H52  1  0.75270000  0.93810000  0.74460000  1
  H  H53  1  0.77980000  0.72500000  0.70870000  1
  H  H54  1  0.81610000  0.61090000  0.55150000  1
  H  H55  1  0.83390000  0.50610000  0.69040000  1
  H  H56  1  0.85610000  0.74360000  0.83530000  1
  H  H57  1  0.86070000  0.07530000  0.69270000  1
  H  H58  1  0.88080000  0.10050000  0.81810000  1
  H  H59  1  0.88130000  0.07870000  0.18320000  1
  H  H60  1  0.90830000  0.34050000  0.69460000  1
  H  H61  1  0.95100000  0.51420000  0.81260000  1
  H  H62  1  0.95300000  0.08880000  0.31030000  1
  H  H63  1  0.95750000  0.61520000  0.55880000  1
  H  H64  1  0.97970000  0.30550000  0.81580000  1
  C  C65  1  0.00210000  0.64360000  0.27830000  1
  C  C66  1  0.00740000  0.87540000  0.71820000  1
  C  C67  1  0.01950000  0.03240000  0.99380000  1
  C  C68  1  0.04050000  0.89150000  0.20070000  1
  C  C69  1  0.04090000  0.43020000  0.61170000  1
  C  C70  1  0.04140000  0.33580000  0.79470000  1
  C  C71  1  0.04930000  0.88140000  0.79490000  1
  C  C72  1  0.05350000  0.90790000  0.27630000  1
  C  C73  1  0.05910000  0.30820000  0.99530000  1
  C  C74  1  0.06300000  0.07490000  0.61540000  1
  C  C75  1  0.06350000  0.10130000  0.69520000  1
  C  C76  1  0.08780000  0.40080000  0.68830000  1
  C  C77  1  0.09280000  0.18360000  0.31610000  1
  C  C78  1  0.10370000  0.22270000  0.19460000  1
  C  C79  1  0.14010000  0.46930000  0.19970000  1
  C  C80  1  0.14840000  0.19050000  0.40000000  1
  C  C81  1  0.15120000  0.23440000  0.27070000  1
  C  C82  1  0.18420000  0.13300000  0.74300000  1
  C  C83  1  0.18790000  0.14930000  0.81720000  1
  C  C84  1  0.21070000  0.47580000  0.27330000  1
  C  C85  1  0.21940000  0.42090000  0.73080000  1
  C  C86  1  0.25670000  0.39770000  0.80370000  1
  C  C87  1  0.32650000  0.41990000  0.16460000  1
  C  C88  1  0.32870000  0.05060000  0.24090000  1
  C  C89  1  0.33250000  0.05190000  0.16690000  1
  C  C90  1  0.33640000  0.93690000  0.97060000  1
  C  C91  1  0.34860000  0.45530000  0.29360000  1
  C  C92  1  0.40610000  0.42590000  0.23620000  1
  C  C93  1  0.43370000  0.46370000  0.37290000  1
  C  C94  1  0.43540000  0.98250000  0.73120000  1
  C  C95  1  0.43960000  0.97950000  0.80610000  1
  C  C96  1  0.44440000  0.02880000  0.37470000  1
  C  C97  1  0.44770000  0.03230000  0.29390000  1
  C  C98  1  0.55230000  0.96770000  0.70610000  1
  C  C99  1  0.55560000  0.97120000  0.62530000  1
  C  C100  1  0.56040000  0.02050000  0.19390000  1
  C  C101  1  0.56460000  0.01750000  0.26880000  1
  C  C102  1  0.56630000  0.53630000  0.62710000  1
  C  C103  1  0.59390000  0.57410000  0.76380000  1
  C  C104  1  0.65140000  0.54470000  0.70640000  1
  C  C105  1  0.66360000  0.06310000  0.02940000  1
  C  C106  1  0.66750000  0.94810000  0.83310000  1
  C  C107  1  0.67130000  0.94940000  0.75910000  1
  C  C108  1  0.67350000  0.58010000  0.83540000  1
  C  C109  1  0.74330000  0.60230000  0.19630000  1
  C  C110  1  0.78060000  0.57910000  0.26920000  1
  C  C111  1  0.78930000  0.52420000  0.72670000  1
  C  C112  1  0.81210000  0.85070000  0.18280000  1
  C  C113  1  0.81580000  0.86700000  0.25700000  1
  C  C114  1  0.84880000  0.76560000  0.72930000  1
  C  C115  1  0.85160000  0.80950000  0.60000000  1
  C  C116  1  0.85990000  0.53070000  0.80030000  1
  C  C117  1  0.89630000  0.77730000  0.80540000  1
  C  C118  1  0.90720000  0.81640000  0.68390000  1
  C  C119  1  0.91220000  0.59920000  0.31170000  1
  C  C120  1  0.93650000  0.89870000  0.30480000  1
  C  C121  1  0.93700000  0.92510000  0.38460000  1
  C  C122  1  0.94090000  0.69180000  0.00470000  1
  C  C123  1  0.94650000  0.09210000  0.72370000  1
  C  C124  1  0.95070000  0.11860000  0.20510000  1
  C  C125  1  0.95860000  0.66420000  0.20530000  1
  C  C126  1  0.95910000  0.56980000  0.38830000  1
  C  C127  1  0.95950000  0.10850000  0.79930000  1
  C  C128  1  0.99260000  0.12460000  0.28180000  1
  C  C129  1  0.99790000  0.35640000  0.72170000  1
  N  N130  1  0.00110000  0.24810000  0.00420000  1
  N  N131  1  0.00400000  0.16650000  0.16020000  1
  N  N132  1  0.07820000  0.13490000  0.84660000  1
  N  N133  1  0.16590000  0.35680000  0.83610000  1
  N  N134  1  0.19420000  0.44080000  0.14530000  1
  N  N135  1  0.26770000  0.90490000  0.96310000  1
  N  N136  1  0.44790000  0.03760000  0.14320000  1
  N  N137  1  0.55210000  0.96240000  0.85680000  1
  N  N138  1  0.73230000  0.09510000  0.03690000  1
  N  N139  1  0.80580000  0.55920000  0.85470000  1
  N  N140  1  0.83410000  0.64320000  0.16390000  1
  N  N141  1  0.92180000  0.86510000  0.15340000  1
  N  N142  1  0.98050000  0.96760000  0.00620000  1
  N  N143  1  0.99600000  0.83350000  0.83980000  1
  N  N144  1  0.99890000  0.75190000  0.99580000  1
  Cl  Cl145  1  0.14730000  0.52855000  0.95762000  1
  Cl  Cl146  1  0.33850000  0.16912000  0.00691000  1
  Cl  Cl147  1  0.43500000  0.37739000  0.99520000  1
  Cl  Cl148  1  0.56500000  0.62261000  0.00480000  1
  Cl  Cl149  1  0.66150000  0.83088000  0.99309000  1
  Cl  Cl150  1  0.85270000  0.47145000  0.04238000  1
  O  O151  1  0.04640000  0.96070000  0.42330000  1
  O  O152  1  0.08420000  0.58630000  0.42250000  1
  O  O153  1  0.10900000  0.41220000  0.42970000  1
  O  O154  1  0.11300000  0.13180000  0.43670000  1
  O  O155  1  0.12550000  0.47190000  0.58540000  1
  O  O156  1  0.17380000  0.08660000  0.59530000  1
  O  O157  1  0.22330000  0.25200000  0.42710000  1
  O  O158  1  0.30750000  0.88850000  0.45080000  1
  O  O159  1  0.33160000  0.04510000  0.39040000  1
  O  O160  1  0.37330000  0.49370000  0.42000000  1
  O  O161  1  0.44540000  0.55770000  0.61480000  1
  O  O162  1  0.44820000  0.99090000  0.58050000  1
  O  O163  1  0.55180000  0.00910000  0.41950000  1
  O  O164  1  0.55460000  0.44230000  0.38520000  1
  O  O165  1  0.62670000  0.50630000  0.58000000  1
  O  O166  1  0.66840000  0.95490000  0.60960000  1
  O  O167  1  0.69250000  0.11150000  0.54920000  1
  O  O168  1  0.77670000  0.74800000  0.57290000  1
  O  O169  1  0.82620000  0.91340000  0.40470000  1
  O  O170  1  0.87450000  0.52810000  0.41460000  1
  O  O171  1  0.88700000  0.86820000  0.56330000  1
  O  O172  1  0.89100000  0.58780000  0.57030000  1
  O  O173  1  0.91580000  0.41370000  0.57750000  1
  O  O174  1  0.95360000  0.03930000  0.57670000  1
