# generated using pymatgen
data_NaCdH8(C8O5)2
_symmetry_space_group_name_H-M   'P 1'
_cell_length_a   9.93450000
_cell_length_b   14.74240000
_cell_length_c   18.62940000
_cell_angle_alpha   90.00000000
_cell_angle_beta   90.00000000
_cell_angle_gamma   90.00000000
_symmetry_Int_Tables_number   1
_chemical_formula_structural   NaCdH8(C8O5)2
_chemical_formula_sum   'Na4 Cd4 H32 C64 O40'
_cell_volume   2728.43161024
_cell_formula_units_Z   4
loop_
 _symmetry_equiv_pos_site_id
 _symmetry_equiv_pos_as_xyz
  1  'x, y, z'
loop_
 _atom_site_type_symbol
 _atom_site_label
 _atom_site_symmetry_multiplicity
 _atom_site_fract_x
 _atom_site_fract_y
 _atom_site_fract_z
 _atom_site_occupancy
  Na  Na0  1  0.05480000  0.87570000  0.05967000  1
  Na  Na1  1  0.05480000  0.37570000  0.44033000  1
  Na  Na2  1  0.94520000  0.87570000  0.55967000  1
  Na  Na3  1  0.94520000  0.37570000  0.94033000  1
  Cd  Cd4  1  0.95931000  0.60302000  0.03155000  1
  Cd  Cd5  1  0.95931000  0.10302000  0.46845000  1
  Cd  Cd6  1  0.04069000  0.60302000  0.53155000  1
  Cd  Cd7  1  0.04069000  0.10302000  0.96845000  1
  H  H8  1  0.67640000  0.35590000  0.00140000  1
  H  H9  1  0.72590000  0.82140000  0.00480000  1
  H  H10  1  0.43010000  0.57090000  0.02890000  1
  H  H11  1  0.41760000  0.73160000  0.03910000  1
  H  H12  1  0.84660000  0.39430000  0.11600000  1
  H  H13  1  0.81170000  0.86180000  0.17070000  1
  H  H14  1  0.94440000  0.15640000  0.20590000  1
  H  H15  1  0.82400000  0.51440000  0.21030000  1
  H  H16  1  0.82400000  0.01440000  0.28970000  1
  H  H17  1  0.94440000  0.65640000  0.29410000  1
  H  H18  1  0.81170000  0.36180000  0.32930000  1
  H  H19  1  0.84660000  0.89430000  0.38400000  1
  H  H20  1  0.41760000  0.23160000  0.46090000  1
  H  H21  1  0.43010000  0.07090000  0.47110000  1
  H  H22  1  0.72590000  0.32140000  0.49520000  1
  H  H23  1  0.67640000  0.85590000  0.49860000  1
  H  H24  1  0.32360000  0.35590000  0.50140000  1
  H  H25  1  0.27410000  0.82140000  0.50480000  1
  H  H26  1  0.56990000  0.57090000  0.52890000  1
  H  H27  1  0.58240000  0.73160000  0.53910000  1
  H  H28  1  0.15340000  0.39430000  0.61600000  1
  H  H29  1  0.18830000  0.86180000  0.67070000  1
  H  H30  1  0.05560000  0.15640000  0.70590000  1
  H  H31  1  0.17600000  0.51440000  0.71030000  1
  H  H32  1  0.17600000  0.01440000  0.78970000  1
  H  H33  1  0.05560000  0.65640000  0.79410000  1
  H  H34  1  0.18830000  0.36180000  0.82930000  1
  H  H35  1  0.15340000  0.89430000  0.88400000  1
  H  H36  1  0.58240000  0.23160000  0.96090000  1
  H  H37  1  0.56990000  0.07090000  0.97110000  1
  H  H38  1  0.27410000  0.32140000  0.99520000  1
  H  H39  1  0.32360000  0.85590000  0.99860000  1
  C  C40  1  0.34860000  0.35910000  0.00040000  1
  C  C41  1  0.59020000  0.38040000  0.00270000  1
  C  C42  1  0.52000000  0.82450000  0.00600000  1
  C  C43  1  0.57350000  0.47420000  0.01340000  1
  C  C44  1  0.33320000  0.45150000  0.01470000  1
  C  C45  1  0.69680000  0.53300000  0.01580000  1
  C  C46  1  0.44310000  0.50940000  0.02050000  1
  C  C47  1  0.19290000  0.49020000  0.02490000  1
  C  C48  1  0.92720000  0.23150000  0.07630000  1
  C  C49  1  0.89710000  0.26960000  0.15010000  1
  C  C50  1  0.90900000  0.69400000  0.15470000  1
  C  C51  1  0.85430000  0.35800000  0.15660000  1
  C  C52  1  0.91310000  0.21560000  0.21060000  1
  C  C53  1  0.83490000  0.83910000  0.21560000  1
  C  C54  1  0.88190000  0.75030000  0.22140000  1
  C  C55  1  0.82200000  0.39370000  0.22480000  1
  C  C56  1  0.82200000  0.89370000  0.27520000  1
  C  C57  1  0.88190000  0.25030000  0.27860000  1
  C  C58  1  0.83490000  0.33910000  0.28440000  1
  C  C59  1  0.91310000  0.71560000  0.28940000  1
  C  C60  1  0.85430000  0.85800000  0.34340000  1
  C  C61  1  0.90900000  0.19400000  0.34530000  1
  C  C62  1  0.89710000  0.76960000  0.34990000  1
  C  C63  1  0.92720000  0.73150000  0.42370000  1
  C  C64  1  0.19290000  0.99020000  0.47510000  1
  C  C65  1  0.44310000  0.00940000  0.47950000  1
  C  C66  1  0.69680000  0.03300000  0.48420000  1
  C  C67  1  0.33320000  0.95150000  0.48530000  1
  C  C68  1  0.57350000  0.97420000  0.48660000  1
  C  C69  1  0.52000000  0.32450000  0.49400000  1
  C  C70  1  0.59020000  0.88040000  0.49730000  1
  C  C71  1  0.34860000  0.85910000  0.49960000  1
  C  C72  1  0.65140000  0.35910000  0.50040000  1
  C  C73  1  0.40980000  0.38040000  0.50270000  1
  C  C74  1  0.48000000  0.82450000  0.50600000  1
  C  C75  1  0.42650000  0.47420000  0.51340000  1
  C  C76  1  0.66680000  0.45150000  0.51470000  1
  C  C77  1  0.30320000  0.53300000  0.51580000  1
  C  C78  1  0.55690000  0.50940000  0.52050000  1
  C  C79  1  0.80710000  0.49020000  0.52490000  1
  C  C80  1  0.07280000  0.23150000  0.57630000  1
  C  C81  1  0.10290000  0.26960000  0.65010000  1
  C  C82  1  0.09100000  0.69400000  0.65470000  1
  C  C83  1  0.14570000  0.35800000  0.65660000  1
  C  C84  1  0.08690000  0.21560000  0.71060000  1
  C  C85  1  0.16510000  0.83910000  0.71560000  1
  C  C86  1  0.11810000  0.75030000  0.72140000  1
  C  C87  1  0.17800000  0.39370000  0.72480000  1
  C  C88  1  0.17800000  0.89370000  0.77520000  1
  C  C89  1  0.11810000  0.25030000  0.77860000  1
  C  C90  1  0.16510000  0.33910000  0.78440000  1
  C  C91  1  0.08690000  0.71560000  0.78940000  1
  C  C92  1  0.14570000  0.85800000  0.84340000  1
  C  C93  1  0.09100000  0.19400000  0.84530000  1
  C  C94  1  0.10290000  0.76960000  0.84990000  1
  C  C95  1  0.07280000  0.73150000  0.92370000  1
  C  C96  1  0.80710000  0.99020000  0.97510000  1
  C  C97  1  0.55690000  0.00940000  0.97950000  1
  C  C98  1  0.30320000  0.03300000  0.98420000  1
  C  C99  1  0.66680000  0.95150000  0.98530000  1
  C  C100  1  0.42650000  0.97420000  0.98660000  1
  C  C101  1  0.48000000  0.32450000  0.99400000  1
  C  C102  1  0.40980000  0.88040000  0.99730000  1
  C  C103  1  0.65140000  0.85910000  0.99960000  1
  O  O104  1  0.81000000  0.49480000  0.00700000  1
  O  O105  1  0.09430000  0.44010000  0.01770000  1
  O  O106  1  0.49230000  0.73550000  0.02060000  1
  O  O107  1  0.87200000  0.26320000  0.02280000  1
  O  O108  1  0.68650000  0.61620000  0.02710000  1
  O  O109  1  0.18170000  0.57090000  0.04300000  1
  O  O110  1  0.01120000  0.16550000  0.07580000  1
  O  O111  1  0.93280000  0.73530000  0.09760000  1
  O  O112  1  0.90580000  0.60960000  0.15730000  1
  O  O113  1  0.78150000  0.48000000  0.23650000  1
  O  O114  1  0.78150000  0.98000000  0.26350000  1
  O  O115  1  0.90580000  0.10960000  0.34270000  1
  O  O116  1  0.93280000  0.23530000  0.40240000  1
  O  O117  1  0.01120000  0.66550000  0.42420000  1
  O  O118  1  0.18170000  0.07090000  0.45700000  1
  O  O119  1  0.68650000  0.11620000  0.47290000  1
  O  O120  1  0.87200000  0.76320000  0.47720000  1
  O  O121  1  0.49230000  0.23550000  0.47940000  1
  O  O122  1  0.09430000  0.94010000  0.48230000  1
  O  O123  1  0.81000000  0.99480000  0.49300000  1
  O  O124  1  0.19000000  0.49480000  0.50700000  1
  O  O125  1  0.90570000  0.44010000  0.51770000  1
  O  O126  1  0.50770000  0.73550000  0.52060000  1
  O  O127  1  0.12800000  0.26320000  0.52280000  1
  O  O128  1  0.31350000  0.61620000  0.52710000  1
  O  O129  1  0.81830000  0.57090000  0.54300000  1
  O  O130  1  0.98880000  0.16550000  0.57580000  1
  O  O131  1  0.06720000  0.73530000  0.59760000  1
  O  O132  1  0.09420000  0.60960000  0.65730000  1
  O  O133  1  0.21850000  0.48000000  0.73650000  1
  O  O134  1  0.21850000  0.98000000  0.76350000  1
  O  O135  1  0.09420000  0.10960000  0.84270000  1
  O  O136  1  0.06720000  0.23530000  0.90240000  1
  O  O137  1  0.98880000  0.66550000  0.92420000  1
  O  O138  1  0.81830000  0.07090000  0.95700000  1
  O  O139  1  0.31350000  0.11620000  0.97290000  1
  O  O140  1  0.12800000  0.76320000  0.97720000  1
  O  O141  1  0.50770000  0.23550000  0.97940000  1
  O  O142  1  0.90570000  0.94010000  0.98230000  1
  O  O143  1  0.19000000  0.99480000  0.99300000  1
