# generated using pymatgen
data_Pr3H9W12C21N3O44
_symmetry_space_group_name_H-M   'P 1'
_cell_length_a   20.48900000
_cell_length_b   23.44000000
_cell_length_c   29.48600000
_cell_angle_alpha   90.00000000
_cell_angle_beta   90.00000000
_cell_angle_gamma   90.00000000
_symmetry_Int_Tables_number   1
_chemical_formula_structural   Pr3H9W12C21N3O44
_chemical_formula_sum   'Pr24 H72 W96 C168 N24 O352'
_cell_volume   14161.01004976
_cell_formula_units_Z   8
loop_
 _symmetry_equiv_pos_site_id
 _symmetry_equiv_pos_as_xyz
  1  'x, y, z'
loop_
 _atom_site_type_symbol
 _atom_site_label
 _atom_site_symmetry_multiplicity
 _atom_site_fract_x
 _atom_site_fract_y
 _atom_site_fract_z
 _atom_site_occupancy
  Pr  Pr0  1  0.00651000  0.27082000  0.64481000  1
  Pr  Pr1  1  0.00651000  0.77082000  0.85519000  1
  Pr  Pr2  1  0.09126000  0.46812000  0.18292000  1
  Pr  Pr3  1  0.09126000  0.96812000  0.31708000  1
  Pr  Pr4  1  0.12173000  0.19382000  0.44790000  1
  Pr  Pr5  1  0.12173000  0.69382000  0.05210000  1
  Pr  Pr6  1  0.37827000  0.19382000  0.94790000  1
  Pr  Pr7  1  0.37827000  0.69382000  0.55210000  1
  Pr  Pr8  1  0.40874000  0.46812000  0.68292000  1
  Pr  Pr9  1  0.40874000  0.96812000  0.81708000  1
  Pr  Pr10  1  0.49349000  0.27082000  0.14481000  1
  Pr  Pr11  1  0.49349000  0.77082000  0.35519000  1
  Pr  Pr12  1  0.50651000  0.22918000  0.64481000  1
  Pr  Pr13  1  0.50651000  0.72918000  0.85519000  1
  Pr  Pr14  1  0.59126000  0.03188000  0.18292000  1
  Pr  Pr15  1  0.59126000  0.53188000  0.31708000  1
  Pr  Pr16  1  0.62173000  0.30618000  0.44790000  1
  Pr  Pr17  1  0.62173000  0.80618000  0.05210000  1
  Pr  Pr18  1  0.87827000  0.30618000  0.94790000  1
  Pr  Pr19  1  0.87827000  0.80618000  0.55210000  1
  Pr  Pr20  1  0.90874000  0.03188000  0.68292000  1
  Pr  Pr21  1  0.90874000  0.53188000  0.81708000  1
  Pr  Pr22  1  0.99349000  0.22918000  0.14481000  1
  Pr  Pr23  1  0.99349000  0.72918000  0.35519000  1
  H  H24  1  0.09670000  0.49130000  0.68600000  1
  H  H25  1  0.09670000  0.99130000  0.81400000  1
  H  H26  1  0.10580000  0.15060000  0.76620000  1
  H  H27  1  0.10580000  0.65060000  0.73380000  1
  H  H28  1  0.13360000  0.00840000  0.90740000  1
  H  H29  1  0.13360000  0.50840000  0.59260000  1
  H  H30  1  0.14000000  0.25920000  0.02000000  1
  H  H31  1  0.14000000  0.75920000  0.48000000  1
  H  H32  1  0.14720000  0.08160000  0.81200000  1
  H  H33  1  0.14720000  0.58160000  0.68800000  1
  H  H34  1  0.15770000  0.42310000  0.63410000  1
  H  H35  1  0.15770000  0.92310000  0.86590000  1
  H  H36  1  0.17350000  0.29390000  0.08640000  1
  H  H37  1  0.17350000  0.79390000  0.41360000  1
  H  H38  1  0.21780000  0.07440000  0.91530000  1
  H  H39  1  0.21780000  0.28870000  0.60530000  1
  H  H40  1  0.21780000  0.57440000  0.58470000  1
  H  H41  1  0.21780000  0.78870000  0.89470000  1
  H  H42  1  0.28220000  0.07440000  0.41530000  1
  H  H43  1  0.28220000  0.28870000  0.10530000  1
  H  H44  1  0.28220000  0.57440000  0.08470000  1
  H  H45  1  0.28220000  0.78870000  0.39470000  1
  H  H46  1  0.32650000  0.29390000  0.58640000  1
  H  H47  1  0.32650000  0.79390000  0.91360000  1
  H  H48  1  0.34230000  0.42310000  0.13410000  1
  H  H49  1  0.34230000  0.92310000  0.36590000  1
  H  H50  1  0.35280000  0.08160000  0.31200000  1
  H  H51  1  0.35280000  0.58160000  0.18800000  1
  H  H52  1  0.36000000  0.25920000  0.52000000  1
  H  H53  1  0.36000000  0.75920000  0.98000000  1
  H  H54  1  0.36640000  0.00840000  0.40740000  1
  H  H55  1  0.36640000  0.50840000  0.09260000  1
  H  H56  1  0.39420000  0.15060000  0.26620000  1
  H  H57  1  0.39420000  0.65060000  0.23380000  1
  H  H58  1  0.40330000  0.49130000  0.18600000  1
  H  H59  1  0.40330000  0.99130000  0.31400000  1
  H  H60  1  0.59670000  0.00870000  0.68600000  1
  H  H61  1  0.59670000  0.50870000  0.81400000  1
  H  H62  1  0.60580000  0.34940000  0.76620000  1
  H  H63  1  0.60580000  0.84940000  0.73380000  1
  H  H64  1  0.63360000  0.49160000  0.90740000  1
  H  H65  1  0.63360000  0.99160000  0.59260000  1
  H  H66  1  0.64000000  0.24080000  0.02000000  1
  H  H67  1  0.64000000  0.74080000  0.48000000  1
  H  H68  1  0.64720000  0.41840000  0.81200000  1
  H  H69  1  0.64720000  0.91840000  0.68800000  1
  H  H70  1  0.65770000  0.07690000  0.63410000  1
  H  H71  1  0.65770000  0.57690000  0.86590000  1
  H  H72  1  0.67350000  0.20610000  0.08640000  1
  H  H73  1  0.67350000  0.70610000  0.41360000  1
  H  H74  1  0.71780000  0.21130000  0.60530000  1
  H  H75  1  0.71780000  0.42560000  0.91530000  1
  H  H76  1  0.71780000  0.71130000  0.89470000  1
  H  H77  1  0.71780000  0.92560000  0.58470000  1
  H  H78  1  0.78220000  0.21130000  0.10530000  1
  H  H79  1  0.78220000  0.42560000  0.41530000  1
  H  H80  1  0.78220000  0.71130000  0.39470000  1
  H  H81  1  0.78220000  0.92560000  0.08470000  1
  H  H82  1  0.82650000  0.20610000  0.58640000  1
  H  H83  1  0.82650000  0.70610000  0.91360000  1
  H  H84  1  0.84230000  0.07690000  0.13410000  1
  H  H85  1  0.84230000  0.57690000  0.36590000  1
  H  H86  1  0.85280000  0.41840000  0.31200000  1
  H  H87  1  0.85280000  0.91840000  0.18800000  1
  H  H88  1  0.86000000  0.24080000  0.52000000  1
  H  H89  1  0.86000000  0.74080000  0.98000000  1
  H  H90  1  0.86640000  0.49160000  0.40740000  1
  H  H91  1  0.86640000  0.99160000  0.09260000  1
  H  H92  1  0.89420000  0.34940000  0.26620000  1
  H  H93  1  0.89420000  0.84940000  0.23380000  1
  H  H94  1  0.90330000  0.00870000  0.18600000  1
  H  H95  1  0.90330000  0.50870000  0.31400000  1
  W  W96  1  0.06584000  0.47726000  0.39959000  1
  W  W97  1  0.06584000  0.97726000  0.10041000  1
  W  W98  1  0.09704000  0.01189000  0.62824000  1
  W  W99  1  0.09704000  0.51189000  0.87176000  1
  W  W100  1  0.12982000  0.09831000  0.13131000  1
  W  W101  1  0.12982000  0.59831000  0.36869000  1
  W  W102  1  0.14966000  0.05394000  0.02804000  1
  W  W103  1  0.14966000  0.55394000  0.47196000  1
  W  W104  1  0.15174000  0.40287000  0.30564000  1
  W  W105  1  0.15174000  0.90287000  0.19436000  1
  W  W106  1  0.16126000  0.37144000  0.90767000  1
  W  W107  1  0.16126000  0.87144000  0.59233000  1
  W  W108  1  0.17433000  0.07746000  0.54726000  1
  W  W109  1  0.17433000  0.57746000  0.95274000  1
  W  W110  1  0.18068000  0.35994000  0.42442000  1
  W  W111  1  0.18068000  0.85994000  0.07558000  1
  W  W112  1  0.19028000  0.42368000  0.79078000  1
  W  W113  1  0.19028000  0.92368000  0.70922000  1
  W  W114  1  0.19361000  0.11932000  0.65144000  1
  W  W115  1  0.19361000  0.61932000  0.84856000  1
  W  W116  1  0.20763000  0.02779000  0.22724000  1
  W  W117  1  0.20763000  0.52779000  0.27276000  1
  W  W118  1  0.23110000  0.43737000  0.99390000  1
  W  W119  1  0.23110000  0.93737000  0.50610000  1
  W  W120  1  0.26890000  0.43737000  0.49390000  1
  W  W121  1  0.26890000  0.93737000  0.00610000  1
  W  W122  1  0.29237000  0.02779000  0.72724000  1
  W  W123  1  0.29237000  0.52779000  0.77276000  1
  W  W124  1  0.30639000  0.11932000  0.15144000  1
  W  W125  1  0.30639000  0.61932000  0.34856000  1
  W  W126  1  0.30972000  0.42368000  0.29078000  1
  W  W127  1  0.30972000  0.92368000  0.20922000  1
  W  W128  1  0.31932000  0.35994000  0.92442000  1
  W  W129  1  0.31932000  0.85994000  0.57558000  1
  W  W130  1  0.32567000  0.07746000  0.04726000  1
  W  W131  1  0.32567000  0.57746000  0.45274000  1
  W  W132  1  0.33874000  0.37144000  0.40767000  1
  W  W133  1  0.33874000  0.87144000  0.09233000  1
  W  W134  1  0.34826000  0.40287000  0.80564000  1
  W  W135  1  0.34826000  0.90287000  0.69436000  1
  W  W136  1  0.35034000  0.05394000  0.52804000  1
  W  W137  1  0.35034000  0.55394000  0.97196000  1
  W  W138  1  0.37018000  0.09831000  0.63131000  1
  W  W139  1  0.37018000  0.59831000  0.86869000  1
  W  W140  1  0.40296000  0.01189000  0.12824000  1
  W  W141  1  0.40296000  0.51189000  0.37176000  1
  W  W142  1  0.43416000  0.47726000  0.89959000  1
  W  W143  1  0.43416000  0.97726000  0.60041000  1
  W  W144  1  0.56584000  0.02274000  0.39959000  1
  W  W145  1  0.56584000  0.52274000  0.10041000  1
  W  W146  1  0.59704000  0.48811000  0.62824000  1
  W  W147  1  0.59704000  0.98811000  0.87176000  1
  W  W148  1  0.62982000  0.40169000  0.13131000  1
  W  W149  1  0.62982000  0.90169000  0.36869000  1
  W  W150  1  0.64966000  0.44606000  0.02804000  1
  W  W151  1  0.64966000  0.94606000  0.47196000  1
  W  W152  1  0.65174000  0.09713000  0.30564000  1
  W  W153  1  0.65174000  0.59713000  0.19436000  1
  W  W154  1  0.66126000  0.12856000  0.90767000  1
  W  W155  1  0.66126000  0.62856000  0.59233000  1
  W  W156  1  0.67433000  0.42254000  0.54726000  1
  W  W157  1  0.67433000  0.92254000  0.95274000  1
  W  W158  1  0.68068000  0.14006000  0.42442000  1
  W  W159  1  0.68068000  0.64006000  0.07558000  1
  W  W160  1  0.69028000  0.07632000  0.79078000  1
  W  W161  1  0.69028000  0.57632000  0.70922000  1
  W  W162  1  0.69361000  0.38068000  0.65144000  1
  W  W163  1  0.69361000  0.88068000  0.84856000  1
  W  W164  1  0.70763000  0.47221000  0.22724000  1
  W  W165  1  0.70763000  0.97221000  0.27276000  1
  W  W166  1  0.73110000  0.06263000  0.99390000  1
  W  W167  1  0.73110000  0.56263000  0.50610000  1
  W  W168  1  0.76890000  0.06263000  0.49390000  1
  W  W169  1  0.76890000  0.56263000  0.00610000  1
  W  W170  1  0.79237000  0.47221000  0.72724000  1
  W  W171  1  0.79237000  0.97221000  0.77276000  1
  W  W172  1  0.80639000  0.38068000  0.15144000  1
  W  W173  1  0.80639000  0.88068000  0.34856000  1
  W  W174  1  0.80972000  0.07632000  0.29078000  1
  W  W175  1  0.80972000  0.57632000  0.20922000  1
  W  W176  1  0.81932000  0.14006000  0.92442000  1
  W  W177  1  0.81932000  0.64006000  0.57558000  1
  W  W178  1  0.82567000  0.42254000  0.04726000  1
  W  W179  1  0.82567000  0.92254000  0.45274000  1
  W  W180  1  0.83874000  0.12856000  0.40767000  1
  W  W181  1  0.83874000  0.62856000  0.09233000  1
  W  W182  1  0.84826000  0.09713000  0.80564000  1
  W  W183  1  0.84826000  0.59713000  0.69436000  1
  W  W184  1  0.85034000  0.44606000  0.52804000  1
  W  W185  1  0.85034000  0.94606000  0.97196000  1
  W  W186  1  0.87018000  0.40169000  0.63131000  1
  W  W187  1  0.87018000  0.90169000  0.86869000  1
  W  W188  1  0.90296000  0.48811000  0.12824000  1
  W  W189  1  0.90296000  0.98811000  0.37176000  1
  W  W190  1  0.93416000  0.02274000  0.89959000  1
  W  W191  1  0.93416000  0.52274000  0.60041000  1
  C  C192  1  0.00290000  0.04550000  0.24130000  1
  C  C193  1  0.00290000  0.54550000  0.25870000  1
  C  C194  1  0.00710000  0.14460000  0.70580000  1
  C  C195  1  0.00710000  0.64460000  0.79420000  1
  C  C196  1  0.02850000  0.01140000  0.76540000  1
  C  C197  1  0.02850000  0.51140000  0.73460000  1
  C  C198  1  0.03470000  0.10430000  0.74020000  1
  C  C199  1  0.03470000  0.60430000  0.75980000  1
  C  C200  1  0.08180000  0.02000000  0.79490000  1
  C  C201  1  0.08180000  0.52000000  0.70510000  1
  C  C202  1  0.08650000  0.11460000  0.76670000  1
  C  C203  1  0.08650000  0.61460000  0.73330000  1
  C  C204  1  0.11100000  0.07390000  0.79390000  1
  C  C205  1  0.11100000  0.57390000  0.70610000  1
  C  C206  1  0.11460000  0.24870000  0.55140000  1
  C  C207  1  0.11460000  0.74870000  0.94860000  1
  C  C208  1  0.15690000  0.06600000  0.38240000  1
  C  C209  1  0.15690000  0.56600000  0.11760000  1
  C  C210  1  0.17450000  0.00220000  0.89460000  1
  C  C211  1  0.17450000  0.50220000  0.60540000  1
  C  C212  1  0.18420000  0.25830000  0.02740000  1
  C  C213  1  0.18420000  0.75830000  0.47260000  1
  C  C214  1  0.18850000  0.25390000  0.54530000  1
  C  C215  1  0.18850000  0.75390000  0.95470000  1
  C  C216  1  0.18920000  0.45130000  0.63070000  1
  C  C217  1  0.18920000  0.95130000  0.86930000  1
  C  C218  1  0.20350000  0.27820000  0.06620000  1
  C  C219  1  0.20350000  0.77820000  0.43380000  1
  C  C220  1  0.21250000  0.21260000  0.95480000  1
  C  C221  1  0.21250000  0.71260000  0.54520000  1
  C  C222  1  0.21350000  0.03060000  0.37730000  1
  C  C223  1  0.21350000  0.53060000  0.12270000  1
  C  C224  1  0.22420000  0.04120000  0.89870000  1
  C  C225  1  0.22420000  0.54120000  0.60130000  1
  C  C226  1  0.22670000  0.23670000  0.99790000  1
  C  C227  1  0.22670000  0.73670000  0.50210000  1
  C  C228  1  0.22940000  0.39200000  0.17110000  1
  C  C229  1  0.22940000  0.89200000  0.32890000  1
  C  C230  1  0.23240000  0.27590000  0.57720000  1
  C  C231  1  0.23240000  0.77590000  0.92280000  1
  C  C232  1  0.25000000  0.44450000  0.14980000  1
  C  C233  1  0.25000000  0.44450000  0.64980000  1
  C  C234  1  0.25000000  0.94450000  0.35020000  1
  C  C235  1  0.25000000  0.94450000  0.85020000  1
  C  C236  1  0.26760000  0.27590000  0.07720000  1
  C  C237  1  0.26760000  0.77590000  0.42280000  1
  C  C238  1  0.27060000  0.39200000  0.67110000  1
  C  C239  1  0.27060000  0.89200000  0.82890000  1
  C  C240  1  0.27330000  0.23670000  0.49790000  1
  C  C241  1  0.27330000  0.73670000  0.00210000  1
  C  C242  1  0.27580000  0.04120000  0.39870000  1
  C  C243  1  0.27580000  0.54120000  0.10130000  1
  C  C244  1  0.28650000  0.03060000  0.87730000  1
  C  C245  1  0.28650000  0.53060000  0.62270000  1
  C  C246  1  0.28750000  0.21260000  0.45480000  1
  C  C247  1  0.28750000  0.71260000  0.04520000  1
  C  C248  1  0.29650000  0.27820000  0.56620000  1
  C  C249  1  0.29650000  0.77820000  0.93380000  1
  C  C250  1  0.31080000  0.45130000  0.13070000  1
  C  C251  1  0.31080000  0.95130000  0.36930000  1
  C  C252  1  0.31150000  0.25390000  0.04530000  1
  C  C253  1  0.31150000  0.75390000  0.45470000  1
  C  C254  1  0.31580000  0.25830000  0.52740000  1
  C  C255  1  0.31580000  0.75830000  0.97260000  1
  C  C256  1  0.32550000  0.00220000  0.39460000  1
  C  C257  1  0.32550000  0.50220000  0.10540000  1
  C  C258  1  0.34310000  0.06600000  0.88240000  1
  C  C259  1  0.34310000  0.56600000  0.61760000  1
  C  C260  1  0.38540000  0.24870000  0.05140000  1
  C  C261  1  0.38540000  0.74870000  0.44860000  1
  C  C262  1  0.38900000  0.07390000  0.29390000  1
  C  C263  1  0.38900000  0.57390000  0.20610000  1
  C  C264  1  0.41350000  0.11460000  0.26670000  1
  C  C265  1  0.41350000  0.61460000  0.23330000  1
  C  C266  1  0.41820000  0.02000000  0.29490000  1
  C  C267  1  0.41820000  0.52000000  0.20510000  1
  C  C268  1  0.46530000  0.10430000  0.24020000  1
  C  C269  1  0.46530000  0.60430000  0.25980000  1
  C  C270  1  0.47150000  0.01140000  0.26540000  1
  C  C271  1  0.47150000  0.51140000  0.23460000  1
  C  C272  1  0.49290000  0.14460000  0.20580000  1
  C  C273  1  0.49290000  0.64460000  0.29420000  1
  C  C274  1  0.49710000  0.04550000  0.74130000  1
  C  C275  1  0.49710000  0.54550000  0.75870000  1
  C  C276  1  0.50290000  0.45450000  0.24130000  1
  C  C277  1  0.50290000  0.95450000  0.25870000  1
  C  C278  1  0.50710000  0.35540000  0.70580000  1
  C  C279  1  0.50710000  0.85540000  0.79420000  1
  C  C280  1  0.52850000  0.48860000  0.76540000  1
  C  C281  1  0.52850000  0.98860000  0.73460000  1
  C  C282  1  0.53470000  0.39570000  0.74020000  1
  C  C283  1  0.53470000  0.89570000  0.75980000  1
  C  C284  1  0.58180000  0.48000000  0.79490000  1
  C  C285  1  0.58180000  0.98000000  0.70510000  1
  C  C286  1  0.58650000  0.38540000  0.76670000  1
  C  C287  1  0.58650000  0.88540000  0.73330000  1
  C  C288  1  0.61100000  0.42610000  0.79390000  1
  C  C289  1  0.61100000  0.92610000  0.70610000  1
  C  C290  1  0.61460000  0.25130000  0.55140000  1
  C  C291  1  0.61460000  0.75130000  0.94860000  1
  C  C292  1  0.65690000  0.43400000  0.38240000  1
  C  C293  1  0.65690000  0.93400000  0.11760000  1
  C  C294  1  0.67450000  0.49780000  0.89460000  1
  C  C295  1  0.67450000  0.99780000  0.60540000  1
  C  C296  1  0.68420000  0.24170000  0.02740000  1
  C  C297  1  0.68420000  0.74170000  0.47260000  1
  C  C298  1  0.68850000  0.24610000  0.54530000  1
  C  C299  1  0.68850000  0.74610000  0.95470000  1
  C  C300  1  0.68920000  0.04870000  0.63070000  1
  C  C301  1  0.68920000  0.54870000  0.86930000  1
  C  C302  1  0.70350000  0.22180000  0.06620000  1
  C  C303  1  0.70350000  0.72180000  0.43380000  1
  C  C304  1  0.71250000  0.28740000  0.95480000  1
  C  C305  1  0.71250000  0.78740000  0.54520000  1
  C  C306  1  0.71350000  0.46940000  0.37730000  1
  C  C307  1  0.71350000  0.96940000  0.12270000  1
  C  C308  1  0.72420000  0.45880000  0.89870000  1
  C  C309  1  0.72420000  0.95880000  0.60130000  1
  C  C310  1  0.72670000  0.26330000  0.99790000  1
  C  C311  1  0.72670000  0.76330000  0.50210000  1
  C  C312  1  0.72940000  0.10800000  0.17110000  1
  C  C313  1  0.72940000  0.60800000  0.32890000  1
  C  C314  1  0.73240000  0.22410000  0.57720000  1
  C  C315  1  0.73240000  0.72410000  0.92280000  1
  C  C316  1  0.75000000  0.05550000  0.14980000  1
  C  C317  1  0.75000000  0.05550000  0.64980000  1
  C  C318  1  0.75000000  0.55550000  0.35020000  1
  C  C319  1  0.75000000  0.55550000  0.85020000  1
  C  C320  1  0.76760000  0.22410000  0.07720000  1
  C  C321  1  0.76760000  0.72410000  0.42280000  1
  C  C322  1  0.77060000  0.10800000  0.67110000  1
  C  C323  1  0.77060000  0.60800000  0.82890000  1
  C  C324  1  0.77330000  0.26330000  0.49790000  1
  C  C325  1  0.77330000  0.76330000  0.00210000  1
  C  C326  1  0.77580000  0.45880000  0.39870000  1
  C  C327  1  0.77580000  0.95880000  0.10130000  1
  C  C328  1  0.78650000  0.46940000  0.87730000  1
  C  C329  1  0.78650000  0.96940000  0.62270000  1
  C  C330  1  0.78750000  0.28740000  0.45480000  1
  C  C331  1  0.78750000  0.78740000  0.04520000  1
  C  C332  1  0.79650000  0.22180000  0.56620000  1
  C  C333  1  0.79650000  0.72180000  0.93380000  1
  C  C334  1  0.81080000  0.04870000  0.13070000  1
  C  C335  1  0.81080000  0.54870000  0.36930000  1
  C  C336  1  0.81150000  0.24610000  0.04530000  1
  C  C337  1  0.81150000  0.74610000  0.45470000  1
  C  C338  1  0.81580000  0.24170000  0.52740000  1
  C  C339  1  0.81580000  0.74170000  0.97260000  1
  C  C340  1  0.82550000  0.49780000  0.39460000  1
  C  C341  1  0.82550000  0.99780000  0.10540000  1
  C  C342  1  0.84310000  0.43400000  0.88240000  1
  C  C343  1  0.84310000  0.93400000  0.61760000  1
  C  C344  1  0.88540000  0.25130000  0.05140000  1
  C  C345  1  0.88540000  0.75130000  0.44860000  1
  C  C346  1  0.88900000  0.42610000  0.29390000  1
  C  C347  1  0.88900000  0.92610000  0.20610000  1
  C  C348  1  0.91350000  0.38540000  0.26670000  1
  C  C349  1  0.91350000  0.88540000  0.23330000  1
  C  C350  1  0.91820000  0.48000000  0.29490000  1
  C  C351  1  0.91820000  0.98000000  0.20510000  1
  C  C352  1  0.96530000  0.39570000  0.24020000  1
  C  C353  1  0.96530000  0.89570000  0.25980000  1
  C  C354  1  0.97150000  0.48860000  0.26540000  1
  C  C355  1  0.97150000  0.98860000  0.23460000  1
  C  C356  1  0.99290000  0.35540000  0.20580000  1
  C  C357  1  0.99290000  0.85540000  0.29420000  1
  C  C358  1  0.99710000  0.45450000  0.74130000  1
  C  C359  1  0.99710000  0.95450000  0.75870000  1
  N  N360  1  0.00580000  0.05280000  0.73960000  1
  N  N361  1  0.00580000  0.55280000  0.76040000  1
  N  N362  1  0.20330000  0.48190000  0.14520000  1
  N  N363  1  0.20330000  0.98190000  0.35480000  1
  N  N364  1  0.20830000  0.23380000  0.50650000  1
  N  N365  1  0.20830000  0.73380000  0.99350000  1
  N  N366  1  0.29170000  0.23380000  0.00650000  1
  N  N367  1  0.29170000  0.73380000  0.49350000  1
  N  N368  1  0.29670000  0.48190000  0.64520000  1
  N  N369  1  0.29670000  0.98190000  0.85480000  1
  N  N370  1  0.49420000  0.05280000  0.23960000  1
  N  N371  1  0.49420000  0.55280000  0.26040000  1
  N  N372  1  0.50580000  0.44720000  0.73960000  1
  N  N373  1  0.50580000  0.94720000  0.76040000  1
  N  N374  1  0.70330000  0.01810000  0.14520000  1
  N  N375  1  0.70330000  0.51810000  0.35480000  1
  N  N376  1  0.70830000  0.26620000  0.50650000  1
  N  N377  1  0.70830000  0.76620000  0.99350000  1
  N  N378  1  0.79170000  0.26620000  0.00650000  1
  N  N379  1  0.79170000  0.76620000  0.49350000  1
  N  N380  1  0.79670000  0.01810000  0.64520000  1
  N  N381  1  0.79670000  0.51810000  0.85480000  1
  N  N382  1  0.99420000  0.44720000  0.23960000  1
  N  N383  1  0.99420000  0.94720000  0.26040000  1
  O  O384  1  0.01590000  0.41600000  0.71310000  1
  O  O385  1  0.01590000  0.91600000  0.78690000  1
  O  O386  1  0.01640000  0.00940000  0.64290000  1
  O  O387  1  0.01640000  0.50940000  0.85710000  1
  O  O388  1  0.02860000  0.19310000  0.70190000  1
  O  O389  1  0.02860000  0.69310000  0.79810000  1
  O  O390  1  0.04020000  0.37410000  0.18150000  1
  O  O391  1  0.04020000  0.87410000  0.31850000  1
  O  O392  1  0.04250000  0.05060000  0.27260000  1
  O  O393  1  0.04250000  0.55060000  0.22740000  1
  O  O394  1  0.04800000  0.04860000  0.12500000  1
  O  O395  1  0.04800000  0.54860000  0.37500000  1
  O  O396  1  0.07250000  0.01220000  0.03940000  1
  O  O397  1  0.07250000  0.51220000  0.46060000  1
  O  O398  1  0.08150000  0.23040000  0.52100000  1
  O  O399  1  0.08150000  0.73040000  0.97900000  1
  O  O400  1  0.08370000  0.15720000  0.14880000  1
  O  O401  1  0.08370000  0.65720000  0.35120000  1
  O  O402  1  0.08880000  0.05250000  0.57340000  1
  O  O403  1  0.08880000  0.55250000  0.92660000  1
  O  O404  1  0.09280000  0.44420000  0.34440000  1
  O  O405  1  0.09280000  0.94420000  0.15560000  1
  O  O406  1  0.09730000  0.26670000  0.59200000  1
  O  O407  1  0.09730000  0.76670000  0.90800000  1
  O  O408  1  0.10580000  0.05320000  0.36270000  1
  O  O409  1  0.10580000  0.55320000  0.13730000  1
  O  O410  1  0.11110000  0.44220000  0.90000000  1
  O  O411  1  0.11110000  0.94220000  0.60000000  1
  O  O412  1  0.11220000  0.08530000  0.66020000  1
  O  O413  1  0.11220000  0.58530000  0.83980000  1
  O  O414  1  0.11480000  0.41340000  0.42710000  1
  O  O415  1  0.11480000  0.91340000  0.07290000  1
  O  O416  1  0.11940000  0.11590000  0.06720000  1
  O  O417  1  0.11940000  0.61590000  0.43280000  1
  O  O418  1  0.13440000  0.47760000  0.81860000  1
  O  O419  1  0.13440000  0.97760000  0.68140000  1
  O  O420  1  0.13970000  0.29690000  0.43670000  1
  O  O421  1  0.13970000  0.79690000  0.06330000  1
  O  O422  1  0.14150000  0.11750000  0.50290000  1
  O  O423  1  0.14150000  0.61750000  0.99710000  1
  O  O424  1  0.14520000  0.46290000  0.26070000  1
  O  O425  1  0.14520000  0.96290000  0.23930000  1
  O  O426  1  0.14580000  0.06060000  0.18740000  1
  O  O427  1  0.14580000  0.56060000  0.31260000  1
  O  O428  1  0.14850000  0.20980000  0.94420000  1
  O  O429  1  0.14850000  0.70980000  0.55580000  1
  O  O430  1  0.16140000  0.38980000  0.97220000  1
  O  O431  1  0.16140000  0.88980000  0.52780000  1
  O  O432  1  0.16160000  0.02270000  0.09920000  1
  O  O433  1  0.16160000  0.52270000  0.40080000  1
  O  O434  1  0.16400000  0.11320000  0.40420000  1
  O  O435  1  0.16400000  0.61320000  0.09580000  1
  O  O436  1  0.17130000  0.38720000  0.18290000  1
  O  O437  1  0.17130000  0.88720000  0.31710000  1
  O  O438  1  0.17400000  0.14080000  0.59070000  1
  O  O439  1  0.17400000  0.64080000  0.90930000  1
  O  O440  1  0.17430000  0.36220000  0.36100000  1
  O  O441  1  0.17430000  0.86220000  0.13900000  1
  O  O442  1  0.17850000  0.37830000  0.84540000  1
  O  O443  1  0.17850000  0.87830000  0.65460000  1
  O  O444  1  0.18010000  0.00330000  0.51980000  1
  O  O445  1  0.18010000  0.50330000  0.98020000  1
  O  O446  1  0.19590000  0.03720000  0.61130000  1
  O  O447  1  0.19590000  0.53720000  0.88870000  1
  O  O448  1  0.19650000  0.48930000  0.49360000  1
  O  O449  1  0.19650000  0.98930000  0.00640000  1
  O  O450  1  0.20780000  0.37570000  0.48610000  1
  O  O451  1  0.20780000  0.87570000  0.01390000  1
  O  O452  1  0.21320000  0.12660000  0.13440000  1
  O  O453  1  0.21320000  0.62660000  0.36560000  1
  O  O454  1  0.22340000  0.46700000  0.32620000  1
  O  O455  1  0.22340000  0.96700000  0.17380000  1
  O  O456  1  0.22400000  0.47830000  0.74860000  1
  O  O457  1  0.22400000  0.97830000  0.75140000  1
  O  O458  1  0.22920000  0.35000000  0.67490000  1
  O  O459  1  0.22920000  0.85000000  0.82510000  1
  O  O460  1  0.23070000  0.07600000  0.70160000  1
  O  O461  1  0.23070000  0.37720000  0.27940000  1
  O  O462  1  0.23070000  0.57600000  0.79840000  1
  O  O463  1  0.23070000  0.87720000  0.22060000  1
  O  O464  1  0.23370000  0.32360000  0.91570000  1
  O  O465  1  0.23370000  0.82360000  0.58430000  1
  O  O466  1  0.23740000  0.08620000  0.03630000  1
  O  O467  1  0.23740000  0.58620000  0.46370000  1
  O  O468  1  0.24710000  0.42930000  0.91910000  1
  O  O469  1  0.24710000  0.92930000  0.58090000  1
  O  O470  1  0.24720000  0.19430000  0.42790000  1
  O  O471  1  0.24720000  0.69430000  0.07210000  1
  O  O472  1  0.25280000  0.19430000  0.92790000  1
  O  O473  1  0.25280000  0.69430000  0.57210000  1
  O  O474  1  0.25290000  0.42930000  0.41910000  1
  O  O475  1  0.25290000  0.92930000  0.08090000  1
  O  O476  1  0.26260000  0.08620000  0.53630000  1
  O  O477  1  0.26260000  0.58620000  0.96370000  1
  O  O478  1  0.26630000  0.32360000  0.41570000  1
  O  O479  1  0.26630000  0.82360000  0.08430000  1
  O  O480  1  0.26930000  0.07600000  0.20160000  1
  O  O481  1  0.26930000  0.37720000  0.77940000  1
  O  O482  1  0.26930000  0.57600000  0.29840000  1
  O  O483  1  0.26930000  0.87720000  0.72060000  1
  O  O484  1  0.27080000  0.35000000  0.17490000  1
  O  O485  1  0.27080000  0.85000000  0.32510000  1
  O  O486  1  0.27600000  0.47830000  0.24860000  1
  O  O487  1  0.27600000  0.97830000  0.25140000  1
  O  O488  1  0.27660000  0.46700000  0.82620000  1
  O  O489  1  0.27660000  0.96700000  0.67380000  1
  O  O490  1  0.28680000  0.12660000  0.63440000  1
  O  O491  1  0.28680000  0.62660000  0.86560000  1
  O  O492  1  0.29220000  0.37570000  0.98610000  1
  O  O493  1  0.29220000  0.87570000  0.51390000  1
  O  O494  1  0.30350000  0.48930000  0.99360000  1
  O  O495  1  0.30350000  0.98930000  0.50640000  1
  O  O496  1  0.30410000  0.03720000  0.11130000  1
  O  O497  1  0.30410000  0.53720000  0.38870000  1
  O  O498  1  0.31990000  0.00330000  0.01980000  1
  O  O499  1  0.31990000  0.50330000  0.48020000  1
  O  O500  1  0.32150000  0.37830000  0.34540000  1
  O  O501  1  0.32150000  0.87830000  0.15460000  1
  O  O502  1  0.32570000  0.36220000  0.86100000  1
  O  O503  1  0.32570000  0.86220000  0.63900000  1
  O  O504  1  0.32600000  0.14080000  0.09070000  1
  O  O505  1  0.32600000  0.64080000  0.40930000  1
  O  O506  1  0.32870000  0.38720000  0.68290000  1
  O  O507  1  0.32870000  0.88720000  0.81710000  1
  O  O508  1  0.33600000  0.11320000  0.90420000  1
  O  O509  1  0.33600000  0.61320000  0.59580000  1
  O  O510  1  0.33840000  0.02270000  0.59920000  1
  O  O511  1  0.33840000  0.52270000  0.90080000  1
  O  O512  1  0.33860000  0.38980000  0.47220000  1
  O  O513  1  0.33860000  0.88980000  0.02780000  1
  O  O514  1  0.35150000  0.20980000  0.44420000  1
  O  O515  1  0.35150000  0.70980000  0.05580000  1
  O  O516  1  0.35420000  0.06060000  0.68740000  1
  O  O517  1  0.35420000  0.56060000  0.81260000  1
  O  O518  1  0.35480000  0.46290000  0.76070000  1
  O  O519  1  0.35480000  0.96290000  0.73930000  1
  O  O520  1  0.35850000  0.11750000  0.00290000  1
  O  O521  1  0.35850000  0.61750000  0.49710000  1
  O  O522  1  0.36030000  0.29690000  0.93670000  1
  O  O523  1  0.36030000  0.79690000  0.56330000  1
  O  O524  1  0.36560000  0.47760000  0.31860000  1
  O  O525  1  0.36560000  0.97760000  0.18140000  1
  O  O526  1  0.38060000  0.11590000  0.56720000  1
  O  O527  1  0.38060000  0.61590000  0.93280000  1
  O  O528  1  0.38520000  0.41340000  0.92710000  1
  O  O529  1  0.38520000  0.91340000  0.57290000  1
  O  O530  1  0.38780000  0.08530000  0.16020000  1
  O  O531  1  0.38780000  0.58530000  0.33980000  1
  O  O532  1  0.38890000  0.44220000  0.40000000  1
  O  O533  1  0.38890000  0.94220000  0.10000000  1
  O  O534  1  0.39420000  0.05320000  0.86270000  1
  O  O535  1  0.39420000  0.55320000  0.63730000  1
  O  O536  1  0.40270000  0.26670000  0.09200000  1
  O  O537  1  0.40270000  0.76670000  0.40800000  1
  O  O538  1  0.40720000  0.44420000  0.84440000  1
  O  O539  1  0.40720000  0.94420000  0.65560000  1
  O  O540  1  0.41120000  0.05250000  0.07340000  1
  O  O541  1  0.41120000  0.55250000  0.42660000  1
  O  O542  1  0.41630000  0.15720000  0.64880000  1
  O  O543  1  0.41630000  0.65720000  0.85120000  1
  O  O544  1  0.41850000  0.23040000  0.02100000  1
  O  O545  1  0.41850000  0.73040000  0.47900000  1
  O  O546  1  0.42750000  0.01220000  0.53940000  1
  O  O547  1  0.42750000  0.51220000  0.96060000  1
  O  O548  1  0.45200000  0.04860000  0.62500000  1
  O  O549  1  0.45200000  0.54860000  0.87500000  1
  O  O550  1  0.45750000  0.05060000  0.77260000  1
  O  O551  1  0.45750000  0.55060000  0.72740000  1
  O  O552  1  0.45980000  0.37410000  0.68150000  1
  O  O553  1  0.45980000  0.87410000  0.81850000  1
  O  O554  1  0.47140000  0.19310000  0.20190000  1
  O  O555  1  0.47140000  0.69310000  0.29810000  1
  O  O556  1  0.48360000  0.00940000  0.14290000  1
  O  O557  1  0.48360000  0.50940000  0.35710000  1
  O  O558  1  0.48410000  0.41600000  0.21310000  1
  O  O559  1  0.48410000  0.91600000  0.28690000  1
  O  O560  1  0.51590000  0.08400000  0.71310000  1
  O  O561  1  0.51590000  0.58400000  0.78690000  1
  O  O562  1  0.51640000  0.49060000  0.64290000  1
  O  O563  1  0.51640000  0.99060000  0.85710000  1
  O  O564  1  0.52860000  0.30690000  0.70190000  1
  O  O565  1  0.52860000  0.80690000  0.79810000  1
  O  O566  1  0.54020000  0.12590000  0.18150000  1
  O  O567  1  0.54020000  0.62590000  0.31850000  1
  O  O568  1  0.54250000  0.44940000  0.27260000  1
  O  O569  1  0.54250000  0.94940000  0.22740000  1
  O  O570  1  0.54800000  0.45140000  0.12500000  1
  O  O571  1  0.54800000  0.95140000  0.37500000  1
  O  O572  1  0.57250000  0.48780000  0.03940000  1
  O  O573  1  0.57250000  0.98780000  0.46060000  1
  O  O574  1  0.58150000  0.26960000  0.52100000  1
  O  O575  1  0.58150000  0.76960000  0.97900000  1
  O  O576  1  0.58370000  0.34280000  0.14880000  1
  O  O577  1  0.58370000  0.84280000  0.35120000  1
  O  O578  1  0.58880000  0.44750000  0.57340000  1
  O  O579  1  0.58880000  0.94750000  0.92660000  1
  O  O580  1  0.59280000  0.05580000  0.34440000  1
  O  O581  1  0.59280000  0.55580000  0.15560000  1
  O  O582  1  0.59730000  0.23330000  0.59200000  1
  O  O583  1  0.59730000  0.73330000  0.90800000  1
  O  O584  1  0.60580000  0.44680000  0.36270000  1
  O  O585  1  0.60580000  0.94680000  0.13730000  1
  O  O586  1  0.61110000  0.05780000  0.90000000  1
  O  O587  1  0.61110000  0.55780000  0.60000000  1
  O  O588  1  0.61220000  0.41470000  0.66020000  1
  O  O589  1  0.61220000  0.91470000  0.83980000  1
  O  O590  1  0.61480000  0.08660000  0.42710000  1
  O  O591  1  0.61480000  0.58660000  0.07290000  1
  O  O592  1  0.61940000  0.38410000  0.06720000  1
  O  O593  1  0.61940000  0.88410000  0.43280000  1
  O  O594  1  0.63440000  0.02240000  0.81860000  1
  O  O595  1  0.63440000  0.52240000  0.68140000  1
  O  O596  1  0.63970000  0.20310000  0.43670000  1
  O  O597  1  0.63970000  0.70310000  0.06330000  1
  O  O598  1  0.64150000  0.38250000  0.50290000  1
  O  O599  1  0.64150000  0.88250000  0.99710000  1
  O  O600  1  0.64520000  0.03710000  0.26070000  1
  O  O601  1  0.64520000  0.53710000  0.23930000  1
  O  O602  1  0.64580000  0.43940000  0.18740000  1
  O  O603  1  0.64580000  0.93940000  0.31260000  1
  O  O604  1  0.64850000  0.29020000  0.94420000  1
  O  O605  1  0.64850000  0.79020000  0.55580000  1
  O  O606  1  0.66140000  0.11020000  0.97220000  1
  O  O607  1  0.66140000  0.61020000  0.52780000  1
  O  O608  1  0.66160000  0.47730000  0.09920000  1
  O  O609  1  0.66160000  0.97730000  0.40080000  1
  O  O610  1  0.66400000  0.38680000  0.40420000  1
  O  O611  1  0.66400000  0.88680000  0.09580000  1
  O  O612  1  0.67130000  0.11280000  0.18290000  1
  O  O613  1  0.67130000  0.61280000  0.31710000  1
  O  O614  1  0.67400000  0.35920000  0.59070000  1
  O  O615  1  0.67400000  0.85920000  0.90930000  1
  O  O616  1  0.67430000  0.13780000  0.36100000  1
  O  O617  1  0.67430000  0.63780000  0.13900000  1
  O  O618  1  0.67850000  0.12170000  0.84540000  1
  O  O619  1  0.67850000  0.62170000  0.65460000  1
  O  O620  1  0.68010000  0.49670000  0.51980000  1
  O  O621  1  0.68010000  0.99670000  0.98020000  1
  O  O622  1  0.69590000  0.46280000  0.61130000  1
  O  O623  1  0.69590000  0.96280000  0.88870000  1
  O  O624  1  0.69650000  0.01070000  0.49360000  1
  O  O625  1  0.69650000  0.51070000  0.00640000  1
  O  O626  1  0.70780000  0.12430000  0.48610000  1
  O  O627  1  0.70780000  0.62430000  0.01390000  1
  O  O628  1  0.71320000  0.37340000  0.13440000  1
  O  O629  1  0.71320000  0.87340000  0.36560000  1
  O  O630  1  0.72340000  0.03300000  0.32620000  1
  O  O631  1  0.72340000  0.53300000  0.17380000  1
  O  O632  1  0.72400000  0.02170000  0.74860000  1
  O  O633  1  0.72400000  0.52170000  0.75140000  1
  O  O634  1  0.72920000  0.15000000  0.67490000  1
  O  O635  1  0.72920000  0.65000000  0.82510000  1
  O  O636  1  0.73070000  0.12280000  0.27940000  1
  O  O637  1  0.73070000  0.42400000  0.70160000  1
  O  O638  1  0.73070000  0.62280000  0.22060000  1
  O  O639  1  0.73070000  0.92400000  0.79840000  1
  O  O640  1  0.73370000  0.17640000  0.91570000  1
  O  O641  1  0.73370000  0.67640000  0.58430000  1
  O  O642  1  0.73740000  0.41380000  0.03630000  1
  O  O643  1  0.73740000  0.91380000  0.46370000  1
  O  O644  1  0.74710000  0.07070000  0.91910000  1
  O  O645  1  0.74710000  0.57070000  0.58090000  1
  O  O646  1  0.74720000  0.30570000  0.42790000  1
  O  O647  1  0.74720000  0.80570000  0.07210000  1
  O  O648  1  0.75280000  0.30570000  0.92790000  1
  O  O649  1  0.75280000  0.80570000  0.57210000  1
  O  O650  1  0.75290000  0.07070000  0.41910000  1
  O  O651  1  0.75290000  0.57070000  0.08090000  1
  O  O652  1  0.76260000  0.41380000  0.53630000  1
  O  O653  1  0.76260000  0.91380000  0.96370000  1
  O  O654  1  0.76630000  0.17640000  0.41570000  1
  O  O655  1  0.76630000  0.67640000  0.08430000  1
  O  O656  1  0.76930000  0.12280000  0.77940000  1
  O  O657  1  0.76930000  0.42400000  0.20160000  1
  O  O658  1  0.76930000  0.62280000  0.72060000  1
  O  O659  1  0.76930000  0.92400000  0.29840000  1
  O  O660  1  0.77080000  0.15000000  0.17490000  1
  O  O661  1  0.77080000  0.65000000  0.32510000  1
  O  O662  1  0.77600000  0.02170000  0.24860000  1
  O  O663  1  0.77600000  0.52170000  0.25140000  1
  O  O664  1  0.77660000  0.03300000  0.82620000  1
  O  O665  1  0.77660000  0.53300000  0.67380000  1
  O  O666  1  0.78680000  0.37340000  0.63440000  1
  O  O667  1  0.78680000  0.87340000  0.86560000  1
  O  O668  1  0.79220000  0.12430000  0.98610000  1
  O  O669  1  0.79220000  0.62430000  0.51390000  1
  O  O670  1  0.80350000  0.01070000  0.99360000  1
  O  O671  1  0.80350000  0.51070000  0.50640000  1
  O  O672  1  0.80410000  0.46280000  0.11130000  1
  O  O673  1  0.80410000  0.96280000  0.38870000  1
  O  O674  1  0.81990000  0.49670000  0.01980000  1
  O  O675  1  0.81990000  0.99670000  0.48020000  1
  O  O676  1  0.82150000  0.12170000  0.34540000  1
  O  O677  1  0.82150000  0.62170000  0.15460000  1
  O  O678  1  0.82570000  0.13780000  0.86100000  1
  O  O679  1  0.82570000  0.63780000  0.63900000  1
  O  O680  1  0.82600000  0.35920000  0.09070000  1
  O  O681  1  0.82600000  0.85920000  0.40930000  1
  O  O682  1  0.82870000  0.11280000  0.68290000  1
  O  O683  1  0.82870000  0.61280000  0.81710000  1
  O  O684  1  0.83600000  0.38680000  0.90420000  1
  O  O685  1  0.83600000  0.88680000  0.59580000  1
  O  O686  1  0.83840000  0.47730000  0.59920000  1
  O  O687  1  0.83840000  0.97730000  0.90080000  1
  O  O688  1  0.83860000  0.11020000  0.47220000  1
  O  O689  1  0.83860000  0.61020000  0.02780000  1
  O  O690  1  0.85150000  0.29020000  0.44420000  1
  O  O691  1  0.85150000  0.79020000  0.05580000  1
  O  O692  1  0.85420000  0.43940000  0.68740000  1
  O  O693  1  0.85420000  0.93940000  0.81260000  1
  O  O694  1  0.85480000  0.03710000  0.76070000  1
  O  O695  1  0.85480000  0.53710000  0.73930000  1
  O  O696  1  0.85850000  0.38250000  0.00290000  1
  O  O697  1  0.85850000  0.88250000  0.49710000  1
  O  O698  1  0.86030000  0.20310000  0.93670000  1
  O  O699  1  0.86030000  0.70310000  0.56330000  1
  O  O700  1  0.86560000  0.02240000  0.31860000  1
  O  O701  1  0.86560000  0.52240000  0.18140000  1
  O  O702  1  0.88060000  0.38410000  0.56720000  1
  O  O703  1  0.88060000  0.88410000  0.93280000  1
  O  O704  1  0.88520000  0.08660000  0.92710000  1
  O  O705  1  0.88520000  0.58660000  0.57290000  1
  O  O706  1  0.88780000  0.41470000  0.16020000  1
  O  O707  1  0.88780000  0.91470000  0.33980000  1
  O  O708  1  0.88890000  0.05780000  0.40000000  1
  O  O709  1  0.88890000  0.55780000  0.10000000  1
  O  O710  1  0.89420000  0.44680000  0.86270000  1
  O  O711  1  0.89420000  0.94680000  0.63730000  1
  O  O712  1  0.90270000  0.23330000  0.09200000  1
  O  O713  1  0.90270000  0.73330000  0.40800000  1
  O  O714  1  0.90720000  0.05580000  0.84440000  1
  O  O715  1  0.90720000  0.55580000  0.65560000  1
  O  O716  1  0.91120000  0.44750000  0.07340000  1
  O  O717  1  0.91120000  0.94750000  0.42660000  1
  O  O718  1  0.91630000  0.34280000  0.64880000  1
  O  O719  1  0.91630000  0.84280000  0.85120000  1
  O  O720  1  0.91850000  0.26960000  0.02100000  1
  O  O721  1  0.91850000  0.76960000  0.47900000  1
  O  O722  1  0.92750000  0.48780000  0.53940000  1
  O  O723  1  0.92750000  0.98780000  0.96060000  1
  O  O724  1  0.95200000  0.45140000  0.62500000  1
  O  O725  1  0.95200000  0.95140000  0.87500000  1
  O  O726  1  0.95750000  0.44940000  0.77260000  1
  O  O727  1  0.95750000  0.94940000  0.72740000  1
  O  O728  1  0.95980000  0.12590000  0.68150000  1
  O  O729  1  0.95980000  0.62590000  0.81850000  1
  O  O730  1  0.97140000  0.30690000  0.20190000  1
  O  O731  1  0.97140000  0.80690000  0.29810000  1
  O  O732  1  0.98360000  0.49060000  0.14290000  1
  O  O733  1  0.98360000  0.99060000  0.35710000  1
  O  O734  1  0.98410000  0.08400000  0.21310000  1
  O  O735  1  0.98410000  0.58400000  0.28690000  1
