# generated using pymatgen
data_ErH9(C3O2)3
_symmetry_space_group_name_H-M   'P 1'
_cell_length_a   9.56310000
_cell_length_b   13.87410000
_cell_length_c   15.30000000
_cell_angle_alpha   90.00000000
_cell_angle_beta   93.38200000
_cell_angle_gamma   90.00000000
_symmetry_Int_Tables_number   1
_chemical_formula_structural   ErH9(C3O2)3
_chemical_formula_sum   'Er4 H36 C36 O24'
_cell_volume   2026.45948916
_cell_formula_units_Z   4
loop_
 _symmetry_equiv_pos_site_id
 _symmetry_equiv_pos_as_xyz
  1  'x, y, z'
loop_
 _atom_site_type_symbol
 _atom_site_label
 _atom_site_symmetry_multiplicity
 _atom_site_fract_x
 _atom_site_fract_y
 _atom_site_fract_z
 _atom_site_occupancy
  Er  Er0  1  0.04267000  0.61095000  0.41423000  1
  Er  Er1  1  0.45733000  0.11095000  0.08577000  1
  Er  Er2  1  0.54267000  0.88905000  0.91423000  1
  Er  Er3  1  0.95733000  0.38905000  0.58577000  1
  H  H4  1  0.01310000  0.23500000  0.85560000  1
  H  H5  1  0.05270000  0.96270000  0.92840000  1
  H  H6  1  0.05330000  0.96370000  0.82590000  1
  H  H7  1  0.09290000  0.90450000  0.07500000  1
  H  H8  1  0.10460000  0.90530000  0.26120000  1
  H  H9  1  0.16430000  0.11230000  0.93630000  1
  H  H10  1  0.16940000  0.10700000  0.75200000  1
  H  H11  1  0.19110000  0.83470000  0.20490000  1
  H  H12  1  0.23700000  0.18870000  0.81160000  1
  H  H13  1  0.26300000  0.68870000  0.68840000  1
  H  H14  1  0.30890000  0.33470000  0.29510000  1
  H  H15  1  0.33060000  0.60700000  0.74800000  1
  H  H16  1  0.33570000  0.61230000  0.56370000  1
  H  H17  1  0.39540000  0.40530000  0.23880000  1
  H  H18  1  0.40710000  0.40450000  0.42500000  1
  H  H19  1  0.44670000  0.46370000  0.67410000  1
  H  H20  1  0.44730000  0.46270000  0.57160000  1
  H  H21  1  0.48690000  0.73500000  0.64440000  1
  H  H22  1  0.51310000  0.26500000  0.35560000  1
  H  H23  1  0.55270000  0.53730000  0.42840000  1
  H  H24  1  0.55330000  0.53630000  0.32590000  1
  H  H25  1  0.59290000  0.59550000  0.57500000  1
  H  H26  1  0.60460000  0.59470000  0.76120000  1
  H  H27  1  0.66430000  0.38770000  0.43630000  1
  H  H28  1  0.66940000  0.39300000  0.25200000  1
  H  H29  1  0.69110000  0.66530000  0.70490000  1
  H  H30  1  0.73700000  0.31130000  0.31160000  1
  H  H31  1  0.76300000  0.81130000  0.18840000  1
  H  H32  1  0.80890000  0.16530000  0.79510000  1
  H  H33  1  0.83060000  0.89300000  0.24800000  1
  H  H34  1  0.83570000  0.88770000  0.06370000  1
  H  H35  1  0.89540000  0.09470000  0.73880000  1
  H  H36  1  0.90710000  0.09550000  0.92500000  1
  H  H37  1  0.94670000  0.03630000  0.17410000  1
  H  H38  1  0.94730000  0.03730000  0.07160000  1
  H  H39  1  0.98690000  0.76500000  0.14440000  1
  C  C40  1  0.00370000  0.26520000  0.72480000  1
  C  C41  1  0.01890000  0.19740000  0.80170000  1
  C  C42  1  0.04690000  0.00420000  0.87720000  1
  C  C43  1  0.09380000  0.94440000  0.12780000  1
  C  C44  1  0.10440000  0.87080000  0.20610000  1
  C  C45  1  0.16060000  0.14280000  0.80590000  1
  C  C46  1  0.16960000  0.07430000  0.88260000  1
  C  C47  1  0.19340000  0.51950000  0.61190000  1
  C  C48  1  0.21950000  0.00880000  0.12260000  1
  C  C49  1  0.28050000  0.50880000  0.37740000  1
  C  C50  1  0.30660000  0.01950000  0.88810000  1
  C  C51  1  0.33040000  0.57430000  0.61740000  1
  C  C52  1  0.33940000  0.64280000  0.69410000  1
  C  C53  1  0.39560000  0.37080000  0.29390000  1
  C  C54  1  0.40620000  0.44440000  0.37220000  1
  C  C55  1  0.45310000  0.50420000  0.62280000  1
  C  C56  1  0.48110000  0.69740000  0.69830000  1
  C  C57  1  0.49630000  0.76520000  0.77520000  1
  C  C58  1  0.50370000  0.23480000  0.22480000  1
  C  C59  1  0.51890000  0.30260000  0.30170000  1
  C  C60  1  0.54690000  0.49580000  0.37720000  1
  C  C61  1  0.59380000  0.55560000  0.62780000  1
  C  C62  1  0.60440000  0.62920000  0.70610000  1
  C  C63  1  0.66060000  0.35720000  0.30590000  1
  C  C64  1  0.66960000  0.42570000  0.38260000  1
  C  C65  1  0.69340000  0.98050000  0.11190000  1
  C  C66  1  0.71950000  0.49120000  0.62260000  1
  C  C67  1  0.78050000  0.99120000  0.87740000  1
  C  C68  1  0.80660000  0.48050000  0.38810000  1
  C  C69  1  0.83040000  0.92570000  0.11740000  1
  C  C70  1  0.83940000  0.85720000  0.19410000  1
  C  C71  1  0.89560000  0.12920000  0.79390000  1
  C  C72  1  0.90620000  0.05560000  0.87220000  1
  C  C73  1  0.95310000  0.99580000  0.12280000  1
  C  C74  1  0.98110000  0.80260000  0.19830000  1
  C  C75  1  0.99630000  0.73480000  0.27520000  1
  O  O76  1  0.06760000  0.25370000  0.65600000  1
  O  O77  1  0.07770000  0.66330000  0.26960000  1
  O  O78  1  0.10580000  0.53750000  0.54830000  1
  O  O79  1  0.15880000  0.47090000  0.36350000  1
  O  O80  1  0.16400000  0.45570000  0.66520000  1
  O  O81  1  0.20610000  0.09430000  0.10120000  1
  O  O82  1  0.29390000  0.59430000  0.39880000  1
  O  O83  1  0.33600000  0.95570000  0.83480000  1
  O  O84  1  0.34120000  0.97090000  0.13650000  1
  O  O85  1  0.39420000  0.03750000  0.95170000  1
  O  O86  1  0.42230000  0.16330000  0.23040000  1
  O  O87  1  0.43240000  0.75370000  0.84400000  1
  O  O88  1  0.56760000  0.24630000  0.15600000  1
  O  O89  1  0.57770000  0.83670000  0.76960000  1
  O  O90  1  0.60580000  0.96250000  0.04830000  1
  O  O91  1  0.65880000  0.02910000  0.86350000  1
  O  O92  1  0.66400000  0.04430000  0.16520000  1
  O  O93  1  0.70610000  0.40570000  0.60120000  1
  O  O94  1  0.79390000  0.90570000  0.89880000  1
  O  O95  1  0.83600000  0.54430000  0.33480000  1
  O  O96  1  0.84120000  0.52910000  0.63650000  1
  O  O97  1  0.89420000  0.46250000  0.45170000  1
  O  O98  1  0.92230000  0.33670000  0.73040000  1
  O  O99  1  0.93240000  0.74630000  0.34400000  1
