# generated using pymatgen
data_Mn2PHC3O10
_symmetry_space_group_name_H-M   'P 1'
_cell_length_a   7.78950000
_cell_length_b   8.07540000
_cell_length_c   9.72860000
_cell_angle_alpha   75.90200000
_cell_angle_beta   79.14200000
_cell_angle_gamma   86.69500000
_symmetry_Int_Tables_number   1
_chemical_formula_structural   Mn2PHC3O10
_chemical_formula_sum   'Mn4 P2 H2 C6 O20'
_cell_volume   582.85896730
_cell_formula_units_Z   2
loop_
 _symmetry_equiv_pos_site_id
 _symmetry_equiv_pos_as_xyz
  1  'x, y, z'
loop_
 _atom_site_type_symbol
 _atom_site_label
 _atom_site_symmetry_multiplicity
 _atom_site_fract_x
 _atom_site_fract_y
 _atom_site_fract_z
 _atom_site_occupancy
  Mn  Mn0  1  0.32238000  0.19107000  0.37035000  1
  Mn  Mn1  1  0.34203000  0.53297000  0.74731000  1
  Mn  Mn2  1  0.65797000  0.46703000  0.25269000  1
  Mn  Mn3  1  0.67762000  0.80893000  0.62965000  1
  P  P4  1  0.42679000  0.76977000  0.40487000  1
  P  P5  1  0.57321000  0.23023000  0.59513000  1
  H  H6  1  0.22080000  0.63990000  0.39100000  1
  H  H7  1  0.77920000  0.36010000  0.60900000  1
  C  C8  1  0.01800000  0.73890000  0.73090000  1
  C  C9  1  0.02120000  0.43010000  0.30550000  1
  C  C10  1  0.43380000  0.42730000  0.04200000  1
  C  C11  1  0.56620000  0.57270000  0.95800000  1
  C  C12  1  0.97880000  0.56990000  0.69450000  1
  C  C13  1  0.98200000  0.26110000  0.26910000  1
  O  O14  1  0.08870000  0.14030000  0.29180000  1
  O  O15  1  0.08880000  0.45210000  0.71470000  1
  O  O16  1  0.15450000  0.74330000  0.77830000  1
  O  O17  1  0.16010000  0.43570000  0.35010000  1
  O  O18  1  0.22790000  0.72400000  0.42280000  1
  O  O19  1  0.31310000  0.40170000  0.98440000  1
  O  O20  1  0.43970000  0.96020000  0.35490000  1
  O  O21  1  0.46470000  0.31390000  0.70560000  1
  O  O22  1  0.46740000  0.34730000  0.16350000  1
  O  O23  1  0.47710000  0.70410000  0.55420000  1
  O  O24  1  0.52290000  0.29590000  0.44580000  1
  O  O25  1  0.53260000  0.65270000  0.83650000  1
  O  O26  1  0.53530000  0.68610000  0.29440000  1
  O  O27  1  0.56030000  0.03980000  0.64510000  1
  O  O28  1  0.68690000  0.59830000  0.01560000  1
  O  O29  1  0.77210000  0.27600000  0.57720000  1
  O  O30  1  0.83990000  0.56430000  0.64990000  1
  O  O31  1  0.84550000  0.25670000  0.22170000  1
  O  O32  1  0.91120000  0.54790000  0.28530000  1
  O  O33  1  0.91130000  0.85970000  0.70820000  1
