# generated using pymatgen
data_Mn3H27C44S3NO18
_symmetry_space_group_name_H-M   'P 1'
_cell_length_a   16.70940000
_cell_length_b   17.19360000
_cell_length_c   20.28570000
_cell_angle_alpha   90.00000000
_cell_angle_beta   90.00000000
_cell_angle_gamma   99.17800000
_symmetry_Int_Tables_number   1
_chemical_formula_structural   Mn3H27C44S3NO18
_chemical_formula_sum   'Mn12 H108 C176 S12 N4 O72'
_cell_volume   5753.36273474
_cell_formula_units_Z   4
loop_
 _symmetry_equiv_pos_site_id
 _symmetry_equiv_pos_as_xyz
  1  'x, y, z'
loop_
 _atom_site_type_symbol
 _atom_site_label
 _atom_site_symmetry_multiplicity
 _atom_site_fract_x
 _atom_site_fract_y
 _atom_site_fract_z
 _atom_site_occupancy
  Mn  Mn0  1  0.94780000  0.08305000  0.64496000  1
  Mn  Mn1  1  0.94546000  0.63934000  0.12591000  1
  Mn  Mn2  1  0.75043000  0.96386000  0.66579000  1
  Mn  Mn3  1  0.74957000  0.53614000  0.16579000  1
  Mn  Mn4  1  0.55454000  0.86066000  0.62591000  1
  Mn  Mn5  1  0.55220000  0.41695000  0.14496000  1
  Mn  Mn6  1  0.44780000  0.58305000  0.85504000  1
  Mn  Mn7  1  0.44546000  0.13934000  0.37409000  1
  Mn  Mn8  1  0.25043000  0.46386000  0.83421000  1
  Mn  Mn9  1  0.24957000  0.03614000  0.33421000  1
  Mn  Mn10  1  0.05454000  0.36066000  0.87409000  1
  Mn  Mn11  1  0.05220000  0.91695000  0.35504000  1
  H  H12  1  0.98090000  0.12090000  0.86880000  1
  H  H13  1  0.96440000  0.12100000  0.98170000  1
  H  H14  1  0.95040000  0.11960000  0.45640000  1
  H  H15  1  0.94000000  0.24600000  0.49030000  1
  H  H16  1  0.93430000  0.47240000  0.71960000  1
  H  H17  1  0.93300000  0.49480000  0.93320000  1
  H  H18  1  0.91960000  0.84070000  0.21990000  1
  H  H19  1  0.90580000  0.20900000  0.11570000  1
  H  H20  1  0.90460000  0.96760000  0.24920000  1
  H  H21  1  0.88950000  0.89770000  0.02760000  1
  H  H22  1  0.88900000  0.39280000  0.43160000  1
  H  H23  1  0.88440000  0.52330000  0.62560000  1
  H  H24  1  0.88060000  0.45990000  0.82970000  1
  H  H25  1  0.86920000  0.85590000  0.95960000  1
  H  H26  1  0.86420000  0.28940000  0.58020000  1
  H  H27  1  0.85320000  0.32330000  0.13140000  1
  H  H28  1  0.84150000  0.44030000  0.33610000  1
  H  H29  1  0.83980000  0.01990000  0.39620000  1
  H  H30  1  0.83490000  0.59360000  0.73890000  1
  H  H31  1  0.83140000  0.68060000  0.56250000  1
  H  H32  1  0.81970000  0.72170000  0.71270000  1
  H  H33  1  0.81900000  0.80830000  0.59170000  1
  H  H34  1  0.81080000  0.40370000  0.56170000  1
  H  H35  1  0.80510000  0.84480000  0.01660000  1
  H  H36  1  0.78600000  0.98160000  0.49920000  1
  H  H37  1  0.76440000  0.98950000  0.84990000  1
  H  H38  1  0.75400000  0.50660000  0.46200000  1
  H  H39  1  0.74600000  0.99340000  0.96200000  1
  H  H40  1  0.73560000  0.51050000  0.34990000  1
  H  H41  1  0.71400000  0.51840000  0.99920000  1
  H  H42  1  0.69490000  0.65520000  0.51660000  1
  H  H43  1  0.68920000  0.09630000  0.06170000  1
  H  H44  1  0.68100000  0.69170000  0.09170000  1
  H  H45  1  0.68030000  0.77830000  0.21270000  1
  H  H46  1  0.66860000  0.81940000  0.06250000  1
  H  H47  1  0.66510000  0.90640000  0.23890000  1
  H  H48  1  0.66020000  0.48010000  0.89620000  1
  H  H49  1  0.65850000  0.05970000  0.83610000  1
  H  H50  1  0.64680000  0.17670000  0.63140000  1
  H  H51  1  0.63580000  0.21060000  0.08020000  1
  H  H52  1  0.63080000  0.64410000  0.45960000  1
  H  H53  1  0.61940000  0.04010000  0.32970000  1
  H  H54  1  0.61560000  0.97670000  0.12560000  1
  H  H55  1  0.61100000  0.10720000  0.93160000  1
  H  H56  1  0.61050000  0.60230000  0.52760000  1
  H  H57  1  0.59540000  0.53240000  0.74920000  1
  H  H58  1  0.59420000  0.29100000  0.61570000  1
  H  H59  1  0.58040000  0.65930000  0.71990000  1
  H  H60  1  0.56700000  0.00520000  0.43320000  1
  H  H61  1  0.56570000  0.02760000  0.21960000  1
  H  H62  1  0.56000000  0.25400000  0.99030000  1
  H  H63  1  0.54960000  0.38040000  0.95640000  1
  H  H64  1  0.53560000  0.37900000  0.48170000  1
  H  H65  1  0.51910000  0.37910000  0.36880000  1
  H  H66  1  0.48090000  0.62090000  0.63120000  1
  H  H67  1  0.46440000  0.62100000  0.51830000  1
  H  H68  1  0.45040000  0.61960000  0.04360000  1
  H  H69  1  0.44000000  0.74600000  0.00970000  1
  H  H70  1  0.43430000  0.97240000  0.78040000  1
  H  H71  1  0.43300000  0.99480000  0.56680000  1
  H  H72  1  0.41960000  0.34070000  0.28010000  1
  H  H73  1  0.40580000  0.70900000  0.38430000  1
  H  H74  1  0.40460000  0.46760000  0.25080000  1
  H  H75  1  0.38950000  0.39770000  0.47240000  1
  H  H76  1  0.38900000  0.89280000  0.06840000  1
  H  H77  1  0.38440000  0.02330000  0.87440000  1
  H  H78  1  0.38060000  0.95990000  0.67030000  1
  H  H79  1  0.36920000  0.35590000  0.54040000  1
  H  H80  1  0.36420000  0.78940000  0.91980000  1
  H  H81  1  0.35320000  0.82330000  0.36860000  1
  H  H82  1  0.34150000  0.94030000  0.16390000  1
  H  H83  1  0.33980000  0.51990000  0.10380000  1
  H  H84  1  0.33490000  0.09360000  0.76110000  1
  H  H85  1  0.33140000  0.18060000  0.93750000  1
  H  H86  1  0.31970000  0.22170000  0.78730000  1
  H  H87  1  0.31900000  0.30830000  0.90830000  1
  H  H88  1  0.31080000  0.90370000  0.93830000  1
  H  H89  1  0.30510000  0.34480000  0.48340000  1
  H  H90  1  0.28600000  0.48160000  0.00080000  1
  H  H91  1  0.26440000  0.48950000  0.65010000  1
  H  H92  1  0.25400000  0.00660000  0.03800000  1
  H  H93  1  0.24600000  0.49340000  0.53800000  1
  H  H94  1  0.23560000  0.01050000  0.15010000  1
  H  H95  1  0.21400000  0.01840000  0.50080000  1
  H  H96  1  0.19490000  0.15520000  0.98340000  1
  H  H97  1  0.18920000  0.59630000  0.43830000  1
  H  H98  1  0.18100000  0.19170000  0.40830000  1
  H  H99  1  0.18030000  0.27830000  0.28730000  1
  H  H100  1  0.16860000  0.31940000  0.43750000  1
  H  H101  1  0.16510000  0.40640000  0.26110000  1
  H  H102  1  0.16020000  0.98010000  0.60380000  1
  H  H103  1  0.15850000  0.55970000  0.66390000  1
  H  H104  1  0.14680000  0.67670000  0.86860000  1
  H  H105  1  0.13580000  0.71060000  0.41980000  1
  H  H106  1  0.13080000  0.14410000  0.04040000  1
  H  H107  1  0.11940000  0.54010000  0.17030000  1
  H  H108  1  0.11560000  0.47670000  0.37440000  1
  H  H109  1  0.11100000  0.60720000  0.56840000  1
  H  H110  1  0.11050000  0.10230000  0.97240000  1
  H  H111  1  0.09540000  0.03240000  0.75080000  1
  H  H112  1  0.09420000  0.79100000  0.88430000  1
  H  H113  1  0.08040000  0.15930000  0.78010000  1
  H  H114  1  0.06700000  0.50520000  0.06680000  1
  H  H115  1  0.06570000  0.52760000  0.28040000  1
  H  H116  1  0.06000000  0.75400000  0.50970000  1
  H  H117  1  0.04960000  0.88040000  0.54360000  1
  H  H118  1  0.03560000  0.87900000  0.01830000  1
  H  H119  1  0.01910000  0.87910000  0.13120000  1
  C  C120  1  0.99480000  0.15940000  0.45290000  1
  C  C121  1  0.99370000  0.57010000  0.58800000  1
  C  C122  1  0.98840000  0.23550000  0.47240000  1
  C  C123  1  0.96990000  0.50000000  0.68940000  1
  C  C124  1  0.94850000  0.48930000  0.29870000  1
  C  C125  1  0.94800000  0.70530000  0.53440000  1
  C  C126  1  0.94000000  0.52990000  0.63320000  1
  C  C127  1  0.93370000  0.09390000  0.88740000  1
  C  C128  1  0.93290000  0.85710000  0.57180000  1
  C  C129  1  0.92800000  0.93890000  0.59560000  1
  C  C130  1  0.92490000  0.41930000  0.40100000  1
  C  C131  1  0.92360000  0.09460000  0.95500000  1
  C  C132  1  0.91660000  0.52370000  0.23740000  1
  C  C133  1  0.89700000  0.44840000  0.34430000  1
  C  C134  1  0.89420000  0.78410000  0.02950000  1
  C  C135  1  0.88410000  0.04820000  0.77350000  1
  C  C136  1  0.87800000  0.49360000  0.92530000  1
  C  C137  1  0.87550000  0.72090000  0.55830000  1
  C  C138  1  0.87490000  0.05370000  0.84740000  1
  C  C139  1  0.86850000  0.79740000  0.57630000  1
  C  C140  1  0.86770000  0.85330000  0.22450000  1
  C  C141  1  0.86620000  0.54840000  0.03740000  1
  C  C142  1  0.86190000  0.85110000  0.00640000  1
  C  C143  1  0.85920000  0.92990000  0.24160000  1
  C  C144  1  0.85430000  0.05670000  0.98240000  1
  C  C145  1  0.85120000  0.20990000  0.10750000  1
  C  C146  1  0.84700000  0.47220000  0.86340000  1
  C  C147  1  0.82880000  0.51300000  0.97530000  1
  C  C148  1  0.81960000  0.27800000  0.11710000  1
  C  C149  1  0.81340000  0.71220000  0.19710000  1
  C  C150  1  0.80900000  0.28920000  0.58630000  1
  C  C151  1  0.80520000  0.01650000  0.87630000  1
  C  C152  1  0.80220000  0.79590000  0.21420000  1
  C  C153  1  0.80210000  0.14290000  0.08570000  1
  C  C154  1  0.79460000  0.14520000  0.61750000  1
  C  C155  1  0.79420000  0.01830000  0.94330000  1
  C  C156  1  0.78430000  0.01520000  0.40340000  1
  C  C157  1  0.78350000  0.94890000  0.24704000  1
  C  C158  1  0.78330000  0.60700000  0.73580000  1
  C  C159  1  0.77760000  0.35800000  0.57560000  1
  C  C160  1  0.77420000  0.68390000  0.71970000  1
  C  C161  1  0.76620000  0.46960000  0.85310000  1
  C  C162  1  0.76050000  0.22020000  0.60600000  1
  C  C163  1  0.75220000  0.99270000  0.46520000  1
  C  C164  1  0.74780000  0.50730000  0.96520000  1
  C  C165  1  0.73950000  0.27980000  0.10600000  1
  C  C166  1  0.73380000  0.03040000  0.35310000  1
  C  C167  1  0.72580000  0.81610000  0.21970000  1
  C  C168  1  0.72240000  0.14200000  0.07560000  1
  C  C169  1  0.71670000  0.89300000  0.23580000  1
  C  C170  1  0.71650000  0.55110000  0.74704000  1
  C  C171  1  0.71570000  0.48480000  0.90340000  1
  C  C172  1  0.70580000  0.48170000  0.44330000  1
  C  C173  1  0.70540000  0.35480000  0.11750000  1
  C  C174  1  0.69790000  0.35710000  0.58570000  1
  C  C175  1  0.69780000  0.70410000  0.71420000  1
  C  C176  1  0.69480000  0.48350000  0.37630000  1
  C  C177  1  0.69100000  0.21080000  0.08630000  1
  C  C178  1  0.68660000  0.78780000  0.69710000  1
  C  C179  1  0.68040000  0.22200000  0.61710000  1
  C  C180  1  0.67120000  0.98700000  0.47530000  1
  C  C181  1  0.65300000  0.02780000  0.36340000  1
  C  C182  1  0.64880000  0.29010000  0.60750000  1
  C  C183  1  0.64570000  0.44330000  0.48240000  1
  C  C184  1  0.64080000  0.57010000  0.74160000  1
  C  C185  1  0.63810000  0.64890000  0.50640000  1
  C  C186  1  0.63380000  0.95160000  0.53740000  1
  C  C187  1  0.63230000  0.64670000  0.72450000  1
  C  C188  1  0.63150000  0.70260000  0.07630000  1
  C  C189  1  0.62510000  0.44630000  0.34740000  1
  C  C190  1  0.62450000  0.77910000  0.05830000  1
  C  C191  1  0.62200000  0.00640000  0.42530000  1
  C  C192  1  0.61590000  0.45180000  0.27350000  1
  C  C193  1  0.60580000  0.71590000  0.52950000  1
  C  C194  1  0.60300000  0.05160000  0.84430000  1
  C  C195  1  0.58340000  0.97630000  0.73740000  1
  C  C196  1  0.57640000  0.40540000  0.45500000  1
  C  C197  1  0.57510000  0.08070000  0.90100000  1
  C  C198  1  0.57200000  0.56110000  0.09560000  1
  C  C199  1  0.56710000  0.64290000  0.07180000  1
  C  C200  1  0.56630000  0.40610000  0.38740000  1
  C  C201  1  0.56000000  0.97010000  0.13320000  1
  C  C202  1  0.55200000  0.79470000  0.03440000  1
  C  C203  1  0.55150000  0.01070000  0.79870000  1
  C  C204  1  0.53010000  0.00000000  0.18940000  1
  C  C205  1  0.51160000  0.26450000  0.97240000  1
  C  C206  1  0.50630000  0.92990000  0.08800000  1
  C  C207  1  0.50520000  0.34060000  0.95290000  1
  C  C208  1  0.49480000  0.65940000  0.04710000  1
  C  C209  1  0.49370000  0.07010000  0.91200000  1
  C  C210  1  0.48840000  0.73550000  0.02760000  1
  C  C211  1  0.46990000  0.00000000  0.81060000  1
  C  C212  1  0.44850000  0.98930000  0.20130000  1
  C  C213  1  0.44800000  0.20530000  0.96560000  1
  C  C214  1  0.44000000  0.02990000  0.86680000  1
  C  C215  1  0.43370000  0.59390000  0.61260000  1
  C  C216  1  0.43290000  0.35710000  0.92820000  1
  C  C217  1  0.42800000  0.43890000  0.90440000  1
  C  C218  1  0.42490000  0.91930000  0.09900000  1
  C  C219  1  0.42360000  0.59460000  0.54500000  1
  C  C220  1  0.41660000  0.02370000  0.26260000  1
  C  C221  1  0.39700000  0.94840000  0.15570000  1
  C  C222  1  0.39420000  0.28410000  0.47050000  1
  C  C223  1  0.38410000  0.54820000  0.72650000  1
  C  C224  1  0.37800000  0.99360000  0.57470000  1
  C  C225  1  0.37550000  0.22090000  0.94170000  1
  C  C226  1  0.37490000  0.55370000  0.65260000  1
  C  C227  1  0.36850000  0.29740000  0.92370000  1
  C  C228  1  0.36770000  0.35330000  0.27550000  1
  C  C229  1  0.36620000  0.04840000  0.46260000  1
  C  C230  1  0.36190000  0.35110000  0.49360000  1
  C  C231  1  0.35920000  0.42990000  0.25840000  1
  C  C232  1  0.35430000  0.55670000  0.51760000  1
  C  C233  1  0.35120000  0.70990000  0.39250000  1
  C  C234  1  0.34700000  0.97220000  0.63660000  1
  C  C235  1  0.32880000  0.01300000  0.52470000  1
  C  C236  1  0.31960000  0.77800000  0.38290000  1
  C  C237  1  0.31340000  0.21220000  0.30290000  1
  C  C238  1  0.30900000  0.78920000  0.91370000  1
  C  C239  1  0.30520000  0.51650000  0.62370000  1
  C  C240  1  0.30220000  0.29590000  0.28580000  1
  C  C241  1  0.30210000  0.64290000  0.41430000  1
  C  C242  1  0.29460000  0.64520000  0.88250000  1
  C  C243  1  0.29420000  0.51830000  0.55670000  1
  C  C244  1  0.28430000  0.51520000  0.09660000  1
  C  C245  1  0.28350000  0.44890000  0.25296000  1
  C  C246  1  0.28330000  0.10700000  0.76420000  1
  C  C247  1  0.27760000  0.85800000  0.92440000  1
  C  C248  1  0.27420000  0.18390000  0.78030000  1
  C  C249  1  0.26620000  0.96960000  0.64690000  1
  C  C250  1  0.26050000  0.72020000  0.89400000  1
  C  C251  1  0.25220000  0.49270000  0.03480000  1
  C  C252  1  0.24780000  0.00730000  0.53480000  1
  C  C253  1  0.23950000  0.77980000  0.39400000  1
  C  C254  1  0.23380000  0.53040000  0.14690000  1
  C  C255  1  0.22580000  0.31610000  0.28030000  1
  C  C256  1  0.22240000  0.64200000  0.42440000  1
  C  C257  1  0.21670000  0.39300000  0.26420000  1
  C  C258  1  0.21650000  0.05110000  0.75296000  1
  C  C259  1  0.21570000  0.98480000  0.59660000  1
  C  C260  1  0.20580000  0.98170000  0.05670000  1
  C  C261  1  0.20540000  0.85480000  0.38250000  1
  C  C262  1  0.19790000  0.85710000  0.91430000  1
  C  C263  1  0.19780000  0.20410000  0.78580000  1
  C  C264  1  0.19480000  0.98350000  0.12370000  1
  C  C265  1  0.19100000  0.71080000  0.41370000  1
  C  C266  1  0.18660000  0.28780000  0.80290000  1
  C  C267  1  0.18040000  0.72200000  0.88290000  1
  C  C268  1  0.17120000  0.48700000  0.02470000  1
  C  C269  1  0.15300000  0.52780000  0.13660000  1
  C  C270  1  0.14880000  0.79010000  0.89250000  1
  C  C271  1  0.14570000  0.94330000  0.01760000  1
  C  C272  1  0.14080000  0.07010000  0.75840000  1
  C  C273  1  0.13810000  0.14890000  0.99360000  1
  C  C274  1  0.13380000  0.45160000  0.96260000  1
  C  C275  1  0.13230000  0.14670000  0.77550000  1
  C  C276  1  0.13150000  0.20260000  0.42370000  1
  C  C277  1  0.12510000  0.94630000  0.15260000  1
  C  C278  1  0.12450000  0.27910000  0.44170000  1
  C  C279  1  0.12200000  0.50640000  0.07470000  1
  C  C280  1  0.11590000  0.95180000  0.22650000  1
  C  C281  1  0.10580000  0.21590000  0.97050000  1
  C  C282  1  0.10300000  0.55160000  0.65570000  1
  C  C283  1  0.08340000  0.47630000  0.76260000  1
  C  C284  1  0.07640000  0.90540000  0.04500000  1
  C  C285  1  0.07510000  0.58070000  0.59900000  1
  C  C286  1  0.07200000  0.06110000  0.40440000  1
  C  C287  1  0.06710000  0.14290000  0.42820000  1
  C  C288  1  0.06630000  0.90610000  0.11260000  1
  C  C289  1  0.06000000  0.47010000  0.36680000  1
  C  C290  1  0.05200000  0.29470000  0.46560000  1
  C  C291  1  0.05150000  0.51070000  0.70130000  1
  C  C292  1  0.03010000  0.50000000  0.31060000  1
  C  C293  1  0.01160000  0.76450000  0.52760000  1
  C  C294  1  0.00630000  0.42990000  0.41200000  1
  C  C295  1  0.00520000  0.84060000  0.54710000  1
  S  S296  1  0.95885000  0.60714000  0.51419000  1
  S  S297  1  0.84295000  0.05568000  0.06953000  1
  S  S298  1  0.77167000  0.04578000  0.27178000  1
  S  S299  1  0.72833000  0.45422000  0.77178000  1
  S  S300  1  0.65705000  0.44432000  0.56953000  1
  S  S301  1  0.54115000  0.89286000  0.01419000  1
  S  S302  1  0.45885000  0.10714000  0.98581000  1
  S  S303  1  0.34295000  0.55568000  0.43047000  1
  S  S304  1  0.27167000  0.54578000  0.22822000  1
  S  S305  1  0.22833000  0.95422000  0.72822000  1
  S  S306  1  0.15705000  0.94432000  0.93047000  1
  S  S307  1  0.04115000  0.39286000  0.48581000  1
  N  N308  1  0.92160000  0.73310000  0.05220000  1
  N  N309  1  0.57840000  0.76690000  0.55220000  1
  N  N310  1  0.42160000  0.23310000  0.44780000  1
  N  N311  1  0.07840000  0.26690000  0.94780000  1
  O  O312  1  0.99108000  0.98613000  0.60391000  1
  O  O313  1  0.97895000  0.38913000  0.53390000  1
  O  O314  1  0.96646000  0.55410000  0.19589000  1
  O  O315  1  0.94516000  0.08750000  0.74742000  1
  O  O316  1  0.94038000  0.56000000  0.04200000  1
  O  O317  1  0.92090000  0.06410000  0.09841000  1
  O  O318  1  0.88402000  0.70087000  0.19176000  1
  O  O319  1  0.88169000  0.56403000  0.49996000  1
  O  O320  1  0.86928000  0.15114000  0.61008000  1
  O  O321  1  0.86143000  0.95872000  0.60661000  1
  O  O322  1  0.84838000  0.09327000  0.27524000  1
  O  O323  1  0.84287000  0.51927000  0.23383000  1
  O  O324  1  0.83170000  0.00590000  0.74269000  1
  O  O325  1  0.82283000  0.57214000  0.08155000  1
  O  O326  1  0.78917000  0.42893000  0.73181000  1
  O  O327  1  0.78450000  0.98892000  0.08606000  1
  O  O328  1  0.75344000  0.66047000  0.19048000  1
  O  O329  1  0.75116000  0.41521000  0.13380000  1
  O  O330  1  0.74884000  0.08479000  0.63380000  1
  O  O331  1  0.74656000  0.83953000  0.69048000  1
  O  O332  1  0.71550000  0.51108000  0.58606000  1
  O  O333  1  0.71083000  0.07107000  0.23181000  1
  O  O334  1  0.67717000  0.92786000  0.58155000  1
  O  O335  1  0.66830000  0.49410000  0.24269000  1
  O  O336  1  0.65713000  0.98073000  0.73383000  1
  O  O337  1  0.65162000  0.40673000  0.77524000  1
  O  O338  1  0.63857000  0.54128000  0.10661000  1
  O  O339  1  0.63072000  0.34886000  0.11008000  1
  O  O340  1  0.61831000  0.93597000  0.99996000  1
  O  O341  1  0.61598000  0.79913000  0.69176000  1
  O  O342  1  0.57910000  0.43590000  0.59841000  1
  O  O343  1  0.55962000  0.94000000  0.54200000  1
  O  O344  1  0.55484000  0.41250000  0.24742000  1
  O  O345  1  0.53354000  0.94590000  0.69589000  1
  O  O346  1  0.52105000  0.11087000  0.03390000  1
  O  O347  1  0.50892000  0.51387000  0.10391000  1
  O  O348  1  0.49108000  0.48613000  0.89609000  1
  O  O349  1  0.47895000  0.88913000  0.96610000  1
  O  O350  1  0.46646000  0.05410000  0.30411000  1
  O  O351  1  0.44516000  0.58750000  0.75258000  1
  O  O352  1  0.44038000  0.06000000  0.45800000  1
  O  O353  1  0.42090000  0.56410000  0.40159000  1
  O  O354  1  0.38402000  0.20087000  0.30824000  1
  O  O355  1  0.38169000  0.06403000  0.00004000  1
  O  O356  1  0.36928000  0.65114000  0.88992000  1
  O  O357  1  0.36143000  0.45872000  0.89339000  1
  O  O358  1  0.34838000  0.59327000  0.22476000  1
  O  O359  1  0.34287000  0.01927000  0.26617000  1
  O  O360  1  0.33170000  0.50590000  0.75731000  1
  O  O361  1  0.32283000  0.07214000  0.41845000  1
  O  O362  1  0.28917000  0.92893000  0.76819000  1
  O  O363  1  0.28450000  0.48892000  0.41394000  1
  O  O364  1  0.25344000  0.16047000  0.30952000  1
  O  O365  1  0.25116000  0.91521000  0.36620000  1
  O  O366  1  0.24884000  0.58479000  0.86620000  1
  O  O367  1  0.24656000  0.33953000  0.80952000  1
  O  O368  1  0.21550000  0.01108000  0.91394000  1
  O  O369  1  0.21083000  0.57107000  0.26819000  1
  O  O370  1  0.17717000  0.42786000  0.91845000  1
  O  O371  1  0.16830000  0.99410000  0.25731000  1
  O  O372  1  0.15713000  0.48073000  0.76617000  1
  O  O373  1  0.15162000  0.90673000  0.72476000  1
  O  O374  1  0.13857000  0.04128000  0.39339000  1
  O  O375  1  0.13072000  0.84886000  0.38992000  1
  O  O376  1  0.11831000  0.43597000  0.50004000  1
  O  O377  1  0.11598000  0.29913000  0.80824000  1
  O  O378  1  0.07910000  0.93590000  0.90159000  1
  O  O379  1  0.05962000  0.44000000  0.95800000  1
  O  O380  1  0.05484000  0.91250000  0.25258000  1
  O  O381  1  0.03354000  0.44590000  0.80411000  1
  O  O382  1  0.02105000  0.61087000  0.46610000  1
  O  O383  1  0.00892000  0.01387000  0.39609000  1
