# generated using pymatgen
data_AgH24(C6N)4
_symmetry_space_group_name_H-M   'P 1'
_cell_length_a   6.37160000
_cell_length_b   13.16460000
_cell_length_c   14.86220000
_cell_angle_alpha   90.00000000
_cell_angle_beta   90.00000000
_cell_angle_gamma   90.00000000
_symmetry_Int_Tables_number   1
_chemical_formula_structural   AgH24(C6N)4
_chemical_formula_sum   'Ag2 H48 C48 N8'
_cell_volume   1246.63487629
_cell_formula_units_Z   2
loop_
 _symmetry_equiv_pos_site_id
 _symmetry_equiv_pos_as_xyz
  1  'x, y, z'
loop_
 _atom_site_type_symbol
 _atom_site_label
 _atom_site_symmetry_multiplicity
 _atom_site_fract_x
 _atom_site_fract_y
 _atom_site_fract_z
 _atom_site_occupancy
  Ag  Ag0  1  0.25000000  0.75000000  0.75000000  1
  Ag  Ag1  1  0.75000000  0.25000000  0.25000000  1
  H  H2  1  0.02620000  0.52750000  0.75960000  1
  H  H3  1  0.02620000  0.97250000  0.74040000  1
  H  H4  1  0.03250000  0.73990000  0.94060000  1
  H  H5  1  0.03250000  0.76010000  0.55940000  1
  H  H6  1  0.07600000  0.59200000  0.48600000  1
  H  H7  1  0.07600000  0.90800000  0.01400000  1
  H  H8  1  0.17000000  0.53500000  0.55400000  1
  H  H9  1  0.17000000  0.96500000  0.94600000  1
  H  H10  1  0.19530000  0.15330000  0.52770000  1
  H  H11  1  0.19530000  0.34670000  0.97230000  1
  H  H12  1  0.20570000  0.56580000  0.15640000  1
  H  H13  1  0.20570000  0.93420000  0.34360000  1
  H  H14  1  0.29430000  0.56580000  0.34360000  1
  H  H15  1  0.29430000  0.93420000  0.15640000  1
  H  H16  1  0.30470000  0.15330000  0.97230000  1
  H  H17  1  0.30470000  0.34670000  0.52770000  1
  H  H18  1  0.33000000  0.53500000  0.94600000  1
  H  H19  1  0.33000000  0.96500000  0.55400000  1
  H  H20  1  0.42400000  0.59200000  0.01400000  1
  H  H21  1  0.42400000  0.90800000  0.48600000  1
  H  H22  1  0.46750000  0.73990000  0.55940000  1
  H  H23  1  0.46750000  0.76010000  0.94060000  1
  H  H24  1  0.47380000  0.52750000  0.74040000  1
  H  H25  1  0.47380000  0.97250000  0.75960000  1
  H  H26  1  0.52620000  0.02750000  0.24040000  1
  H  H27  1  0.52620000  0.47250000  0.25960000  1
  H  H28  1  0.53250000  0.23990000  0.05940000  1
  H  H29  1  0.53250000  0.26010000  0.44060000  1
  H  H30  1  0.57600000  0.09200000  0.51400000  1
  H  H31  1  0.57600000  0.40800000  0.98600000  1
  H  H32  1  0.67000000  0.03500000  0.44600000  1
  H  H33  1  0.67000000  0.46500000  0.05400000  1
  H  H34  1  0.69530000  0.65330000  0.47230000  1
  H  H35  1  0.69530000  0.84670000  0.02770000  1
  H  H36  1  0.70570000  0.06580000  0.84360000  1
  H  H37  1  0.70570000  0.43420000  0.65640000  1
  H  H38  1  0.79430000  0.06580000  0.65640000  1
  H  H39  1  0.79430000  0.43420000  0.84360000  1
  H  H40  1  0.80470000  0.65330000  0.02770000  1
  H  H41  1  0.80470000  0.84670000  0.47230000  1
  H  H42  1  0.83000000  0.03500000  0.05400000  1
  H  H43  1  0.83000000  0.46500000  0.44600000  1
  H  H44  1  0.92400000  0.09200000  0.98600000  1
  H  H45  1  0.92400000  0.40800000  0.51400000  1
  H  H46  1  0.96750000  0.23990000  0.44060000  1
  H  H47  1  0.96750000  0.26010000  0.05940000  1
  H  H48  1  0.97380000  0.02750000  0.25960000  1
  H  H49  1  0.97380000  0.47250000  0.24040000  1
  C  C50  1  0.01660000  0.17760000  0.42010000  1
  C  C51  1  0.01660000  0.32240000  0.07990000  1
  C  C52  1  0.02030000  0.05350000  0.31430000  1
  C  C53  1  0.02030000  0.44650000  0.18570000  1
  C  C54  1  0.10850000  0.52380000  0.50040000  1
  C  C55  1  0.10850000  0.97620000  0.99960000  1
  C  C56  1  0.15430000  0.12590000  0.47270000  1
  C  C57  1  0.15430000  0.37410000  0.02730000  1
  C  C58  1  0.16100000  0.50290000  0.13540000  1
  C  C59  1  0.16100000  0.99710000  0.36460000  1
  C  C60  1  0.23430000  0.03320000  0.44560000  1
  C  C61  1  0.23430000  0.46680000  0.05440000  1
  C  C62  1  0.26570000  0.03320000  0.05440000  1
  C  C63  1  0.26570000  0.46680000  0.44560000  1
  C  C64  1  0.33900000  0.50290000  0.36460000  1
  C  C65  1  0.33900000  0.99710000  0.13540000  1
  C  C66  1  0.34570000  0.12590000  0.02730000  1
  C  C67  1  0.34570000  0.37410000  0.47270000  1
  C  C68  1  0.39150000  0.52380000  0.99960000  1
  C  C69  1  0.39150000  0.97620000  0.50040000  1
  C  C70  1  0.47970000  0.05350000  0.18570000  1
  C  C71  1  0.47970000  0.44650000  0.31430000  1
  C  C72  1  0.48340000  0.17760000  0.07990000  1
  C  C73  1  0.48340000  0.32240000  0.42010000  1
  C  C74  1  0.51660000  0.67760000  0.57990000  1
  C  C75  1  0.51660000  0.82240000  0.92010000  1
  C  C76  1  0.52030000  0.55350000  0.68570000  1
  C  C77  1  0.52030000  0.94650000  0.81430000  1
  C  C78  1  0.60850000  0.02380000  0.49960000  1
  C  C79  1  0.60850000  0.47620000  0.00040000  1
  C  C80  1  0.65430000  0.62590000  0.52730000  1
  C  C81  1  0.65430000  0.87410000  0.97270000  1
  C  C82  1  0.66100000  0.00290000  0.86460000  1
  C  C83  1  0.66100000  0.49710000  0.63540000  1
  C  C84  1  0.73430000  0.53320000  0.55440000  1
  C  C85  1  0.73430000  0.96680000  0.94560000  1
  C  C86  1  0.76570000  0.53320000  0.94560000  1
  C  C87  1  0.76570000  0.96680000  0.55440000  1
  C  C88  1  0.83900000  0.00290000  0.63540000  1
  C  C89  1  0.83900000  0.49710000  0.86460000  1
  C  C90  1  0.84570000  0.62590000  0.97270000  1
  C  C91  1  0.84570000  0.87410000  0.52730000  1
  C  C92  1  0.89150000  0.02380000  0.00040000  1
  C  C93  1  0.89150000  0.47620000  0.49960000  1
  C  C94  1  0.97970000  0.55350000  0.81430000  1
  C  C95  1  0.97970000  0.94650000  0.68570000  1
  C  C96  1  0.98340000  0.67760000  0.92010000  1
  C  C97  1  0.98340000  0.82240000  0.57990000  1
  N  N98  1  0.05180000  0.64470000  0.84140000  1
  N  N99  1  0.05180000  0.85530000  0.65860000  1
  N  N100  1  0.44820000  0.64470000  0.65860000  1
  N  N101  1  0.44820000  0.85530000  0.84140000  1
  N  N102  1  0.55180000  0.14470000  0.15860000  1
  N  N103  1  0.55180000  0.35530000  0.34140000  1
  N  N104  1  0.94820000  0.14470000  0.34140000  1
  N  N105  1  0.94820000  0.35530000  0.15860000  1
