# generated using pymatgen
data_Co3H30C45N15O7
_symmetry_space_group_name_H-M   'P 1'
_cell_length_a   16.67900000
_cell_length_b   16.67900000
_cell_length_c   19.05000000
_cell_angle_alpha   90.00000000
_cell_angle_beta   90.00000000
_cell_angle_gamma   120.00000000
_symmetry_Int_Tables_number   1
_chemical_formula_structural   Co3H30C45N15O7
_chemical_formula_sum   'Co6 H60 C90 N30 O14'
_cell_volume   4589.50269348
_cell_formula_units_Z   2
loop_
 _symmetry_equiv_pos_site_id
 _symmetry_equiv_pos_as_xyz
  1  'x, y, z'
loop_
 _atom_site_type_symbol
 _atom_site_label
 _atom_site_symmetry_multiplicity
 _atom_site_fract_x
 _atom_site_fract_y
 _atom_site_fract_z
 _atom_site_occupancy
  Co  Co0  1  0.73547000  0.26454000  0.20315000  1
  Co  Co1  1  0.73547000  0.47094000  0.20315000  1
  Co  Co2  1  0.52907000  0.26454000  0.20315000  1
  Co  Co3  1  0.47093000  0.73546000  0.70315000  1
  Co  Co4  1  0.26453000  0.52906000  0.70315000  1
  Co  Co5  1  0.26453000  0.73546000  0.70315000  1
  H  H6  1  0.98330000  0.21070000  0.69010000  1
  H  H7  1  0.98330000  0.77260000  0.69010000  1
  H  H8  1  0.96220000  0.36110000  0.96510000  1
  H  H9  1  0.96220000  0.60110000  0.96510000  1
  H  H10  1  0.93950000  0.35210000  0.36760000  1
  H  H11  1  0.93950000  0.58740000  0.36760000  1
  H  H12  1  0.93330000  0.30420000  0.18930000  1
  H  H13  1  0.93330000  0.62910000  0.18930000  1
  H  H14  1  0.87380000  0.31860000  0.05570000  1
  H  H15  1  0.87380000  0.55520000  0.05570000  1
  H  H16  1  0.78930000  0.01670000  0.69010000  1
  H  H17  1  0.78930000  0.77260000  0.69010000  1
  H  H18  1  0.77260000  0.78930000  0.19010000  1
  H  H19  1  0.77260000  0.98330000  0.19010000  1
  H  H20  1  0.69580000  0.06670000  0.18930000  1
  H  H21  1  0.69580000  0.62910000  0.18930000  1
  H  H22  1  0.68140000  0.12620000  0.05570000  1
  H  H23  1  0.68140000  0.55520000  0.05570000  1
  H  H24  1  0.64790000  0.06050000  0.36760000  1
  H  H25  1  0.64790000  0.58740000  0.36760000  1
  H  H26  1  0.63890000  0.03780000  0.96510000  1
  H  H27  1  0.63890000  0.60110000  0.96510000  1
  H  H28  1  0.62910000  0.69580000  0.68930000  1
  H  H29  1  0.62910000  0.93330000  0.68930000  1
  H  H30  1  0.60110000  0.63890000  0.46510000  1
  H  H31  1  0.60110000  0.96220000  0.46510000  1
  H  H32  1  0.58740000  0.64790000  0.86760000  1
  H  H33  1  0.58740000  0.93950000  0.86760000  1
  H  H34  1  0.55520000  0.68140000  0.55570000  1
  H  H35  1  0.55520000  0.87380000  0.55570000  1
  H  H36  1  0.44480000  0.12620000  0.05570000  1
  H  H37  1  0.44480000  0.31860000  0.05570000  1
  H  H38  1  0.41260000  0.06050000  0.36760000  1
  H  H39  1  0.41260000  0.35210000  0.36760000  1
  H  H40  1  0.39890000  0.03780000  0.96510000  1
  H  H41  1  0.39890000  0.36110000  0.96510000  1
  H  H42  1  0.37090000  0.06670000  0.18930000  1
  H  H43  1  0.37090000  0.30420000  0.18930000  1
  H  H44  1  0.36110000  0.39890000  0.46510000  1
  H  H45  1  0.36110000  0.96220000  0.46510000  1
  H  H46  1  0.35210000  0.41260000  0.86760000  1
  H  H47  1  0.35210000  0.93950000  0.86760000  1
  H  H48  1  0.31860000  0.44480000  0.55570000  1
  H  H49  1  0.31860000  0.87380000  0.55570000  1
  H  H50  1  0.30420000  0.37090000  0.68930000  1
  H  H51  1  0.30420000  0.93330000  0.68930000  1
  H  H52  1  0.22740000  0.01670000  0.69010000  1
  H  H53  1  0.22740000  0.21070000  0.69010000  1
  H  H54  1  0.21070000  0.22740000  0.19010000  1
  H  H55  1  0.21070000  0.98330000  0.19010000  1
  H  H56  1  0.12620000  0.44480000  0.55570000  1
  H  H57  1  0.12620000  0.68140000  0.55570000  1
  H  H58  1  0.06670000  0.37090000  0.68930000  1
  H  H59  1  0.06670000  0.69580000  0.68930000  1
  H  H60  1  0.06050000  0.41260000  0.86760000  1
  H  H61  1  0.06050000  0.64790000  0.86760000  1
  H  H62  1  0.03780000  0.39890000  0.46510000  1
  H  H63  1  0.03780000  0.63890000  0.46510000  1
  H  H64  1  0.01670000  0.22740000  0.19010000  1
  H  H65  1  0.01670000  0.78930000  0.19010000  1
  C  C66  1  0.98060000  0.41980000  0.94470000  1
  C  C67  1  0.98060000  0.56080000  0.94470000  1
  C  C68  1  0.95970000  0.41150000  0.38740000  1
  C  C69  1  0.95970000  0.54820000  0.38740000  1
  C  C70  1  0.95555000  0.04445000  0.18690000  1
  C  C71  1  0.95555000  0.91110000  0.18690000  1
  C  C72  1  0.95090000  0.19320000  0.18970000  1
  C  C73  1  0.95090000  0.75770000  0.18970000  1
  C  C74  1  0.94960000  0.47480000  0.97040000  1
  C  C75  1  0.92960000  0.46480000  0.35890000  1
  C  C76  1  0.91110000  0.95555000  0.68690000  1
  C  C77  1  0.90395000  0.09605000  0.18770000  1
  C  C78  1  0.90395000  0.80790000  0.18770000  1
  C  C79  1  0.90110000  0.23850000  0.19100000  1
  C  C80  1  0.90110000  0.66260000  0.19100000  1
  C  C81  1  0.86230000  0.36690000  0.06880000  1
  C  C82  1  0.86230000  0.49540000  0.06880000  1
  C  C83  1  0.85860000  0.42930000  0.30050000  1
  C  C84  1  0.80790000  0.90395000  0.68770000  1
  C  C85  1  0.80680000  0.04910000  0.18970000  1
  C  C86  1  0.80680000  0.75770000  0.18970000  1
  C  C87  1  0.76150000  0.09890000  0.19100000  1
  C  C88  1  0.76150000  0.66260000  0.19100000  1
  C  C89  1  0.75770000  0.80680000  0.68970000  1
  C  C90  1  0.75770000  0.95090000  0.68970000  1
  C  C91  1  0.66260000  0.76150000  0.69100000  1
  C  C92  1  0.66260000  0.90110000  0.69100000  1
  C  C93  1  0.63310000  0.13770000  0.06880000  1
  C  C94  1  0.63310000  0.49540000  0.06880000  1
  C  C95  1  0.58850000  0.04030000  0.38740000  1
  C  C96  1  0.58850000  0.54820000  0.38740000  1
  C  C97  1  0.58020000  0.01940000  0.94470000  1
  C  C98  1  0.58020000  0.56080000  0.94470000  1
  C  C99  1  0.57070000  0.14140000  0.30050000  1
  C  C100  1  0.57070000  0.42930000  0.30050000  1
  C  C101  1  0.56080000  0.58020000  0.44470000  1
  C  C102  1  0.56080000  0.98060000  0.44470000  1
  C  C103  1  0.54820000  0.58850000  0.88740000  1
  C  C104  1  0.54820000  0.95970000  0.88740000  1
  C  C105  1  0.53520000  0.07040000  0.35890000  1
  C  C106  1  0.53520000  0.46480000  0.35890000  1
  C  C107  1  0.52520000  0.05040000  0.97040000  1
  C  C108  1  0.52520000  0.47480000  0.97040000  1
  C  C109  1  0.50460000  0.13770000  0.06880000  1
  C  C110  1  0.50460000  0.36690000  0.06880000  1
  C  C111  1  0.49540000  0.63310000  0.56880000  1
  C  C112  1  0.49540000  0.86230000  0.56880000  1
  C  C113  1  0.47480000  0.52520000  0.47040000  1
  C  C114  1  0.47480000  0.94960000  0.47040000  1
  C  C115  1  0.46480000  0.53520000  0.85890000  1
  C  C116  1  0.46480000  0.92960000  0.85890000  1
  C  C117  1  0.45180000  0.04030000  0.38740000  1
  C  C118  1  0.45180000  0.41150000  0.38740000  1
  C  C119  1  0.43920000  0.01940000  0.94470000  1
  C  C120  1  0.43920000  0.41980000  0.94470000  1
  C  C121  1  0.42930000  0.57070000  0.80050000  1
  C  C122  1  0.42930000  0.85860000  0.80050000  1
  C  C123  1  0.41980000  0.43920000  0.44470000  1
  C  C124  1  0.41980000  0.98060000  0.44470000  1
  C  C125  1  0.41150000  0.45180000  0.88740000  1
  C  C126  1  0.41150000  0.95970000  0.88740000  1
  C  C127  1  0.36690000  0.50460000  0.56880000  1
  C  C128  1  0.36690000  0.86230000  0.56880000  1
  C  C129  1  0.33740000  0.09890000  0.19100000  1
  C  C130  1  0.33740000  0.23850000  0.19100000  1
  C  C131  1  0.24230000  0.04910000  0.18970000  1
  C  C132  1  0.24230000  0.19320000  0.18970000  1
  C  C133  1  0.23850000  0.33740000  0.69100000  1
  C  C134  1  0.23850000  0.90110000  0.69100000  1
  C  C135  1  0.19320000  0.24230000  0.68970000  1
  C  C136  1  0.19320000  0.95090000  0.68970000  1
  C  C137  1  0.19210000  0.09605000  0.18770000  1
  C  C138  1  0.14140000  0.57070000  0.80050000  1
  C  C139  1  0.13770000  0.50460000  0.56880000  1
  C  C140  1  0.13770000  0.63310000  0.56880000  1
  C  C141  1  0.09890000  0.33740000  0.69100000  1
  C  C142  1  0.09890000  0.76150000  0.69100000  1
  C  C143  1  0.09605000  0.19210000  0.68770000  1
  C  C144  1  0.09605000  0.90395000  0.68770000  1
  C  C145  1  0.08890000  0.04445000  0.18690000  1
  C  C146  1  0.07040000  0.53520000  0.85890000  1
  C  C147  1  0.05040000  0.52520000  0.47040000  1
  C  C148  1  0.04910000  0.24230000  0.68970000  1
  C  C149  1  0.04910000  0.80680000  0.68970000  1
  C  C150  1  0.04445000  0.08890000  0.68690000  1
  C  C151  1  0.04445000  0.95555000  0.68690000  1
  C  C152  1  0.04030000  0.45180000  0.88740000  1
  C  C153  1  0.04030000  0.58850000  0.88740000  1
  C  C154  1  0.01940000  0.43920000  0.44470000  1
  C  C155  1  0.01940000  0.58020000  0.44470000  1
  N  N156  1  0.95215000  0.04785000  0.68570000  1
  N  N157  1  0.95215000  0.90430000  0.68570000  1
  N  N158  1  0.90430000  0.95215000  0.18570000  1
  N  N159  1  0.89260000  0.44630000  0.03360000  1
  N  N160  1  0.81430000  0.36530000  0.12430000  1
  N  N161  1  0.81430000  0.44900000  0.12430000  1
  N  N162  1  0.80775000  0.19225000  0.19490000  1
  N  N163  1  0.80775000  0.61550000  0.19490000  1
  N  N164  1  0.63470000  0.18570000  0.12430000  1
  N  N165  1  0.63470000  0.44900000  0.12430000  1
  N  N166  1  0.61550000  0.80775000  0.69490000  1
  N  N167  1  0.55370000  0.10740000  0.03360000  1
  N  N168  1  0.55370000  0.44630000  0.03360000  1
  N  N169  1  0.55100000  0.18570000  0.12430000  1
  N  N170  1  0.55100000  0.36530000  0.12430000  1
  N  N171  1  0.44900000  0.63470000  0.62430000  1
  N  N172  1  0.44900000  0.81430000  0.62430000  1
  N  N173  1  0.44630000  0.55370000  0.53360000  1
  N  N174  1  0.44630000  0.89260000  0.53360000  1
  N  N175  1  0.38450000  0.19225000  0.19490000  1
  N  N176  1  0.36530000  0.55100000  0.62430000  1
  N  N177  1  0.36530000  0.81430000  0.62430000  1
  N  N178  1  0.19225000  0.38450000  0.69490000  1
  N  N179  1  0.19225000  0.80775000  0.69490000  1
  N  N180  1  0.18570000  0.55100000  0.62430000  1
  N  N181  1  0.18570000  0.63470000  0.62430000  1
  N  N182  1  0.10740000  0.55370000  0.53360000  1
  N  N183  1  0.09570000  0.04785000  0.68570000  1
  N  N184  1  0.04785000  0.09570000  0.18570000  1
  N  N185  1  0.04785000  0.95215000  0.18570000  1
  O  O186  1  0.83200000  0.34830000  0.27860000  1
  O  O187  1  0.83200000  0.48370000  0.27860000  1
  O  O188  1  0.66666667  0.33333333  0.22340000  1
  O  O189  1  0.65170000  0.16800000  0.27860000  1
  O  O190  1  0.65170000  0.48370000  0.27860000  1
  O  O191  1  0.51630000  0.16800000  0.27860000  1
  O  O192  1  0.51630000  0.34830000  0.27860000  1
  O  O193  1  0.48370000  0.65170000  0.77860000  1
  O  O194  1  0.48370000  0.83200000  0.77860000  1
  O  O195  1  0.34830000  0.51630000  0.77860000  1
  O  O196  1  0.34830000  0.83200000  0.77860000  1
  O  O197  1  0.33333333  0.66666667  0.72340000  1
  O  O198  1  0.16800000  0.51630000  0.77860000  1
  O  O199  1  0.16800000  0.65170000  0.77860000  1
