# generated using pymatgen
data_Co4H64C90S3N16O13
_symmetry_space_group_name_H-M   'P 1'
_cell_length_a   11.19600000
_cell_length_b   13.02000000
_cell_length_c   16.52000000
_cell_angle_alpha   84.07200000
_cell_angle_beta   85.18200000
_cell_angle_gamma   79.13800000
_symmetry_Int_Tables_number   1
_chemical_formula_structural   Co4H64C90S3N16O13
_chemical_formula_sum   'Co4 H64 C90 S3 N16 O13'
_cell_volume   2347.22225495
_cell_formula_units_Z   1
loop_
 _symmetry_equiv_pos_site_id
 _symmetry_equiv_pos_as_xyz
  1  'x, y, z'
loop_
 _atom_site_type_symbol
 _atom_site_label
 _atom_site_symmetry_multiplicity
 _atom_site_fract_x
 _atom_site_fract_y
 _atom_site_fract_z
 _atom_site_occupancy
  Co  Co0  1  0.25004000  0.07919000  0.48157000  1
  Co  Co1  1  0.34665000  0.14208000  0.67449000  1
  Co  Co2  1  0.35783000  0.63629000  0.93492000  1
  Co  Co3  1  0.44500000  0.71735000  0.13598000  1
  H  H4  1  0.00240000  0.66460000  0.29070000  1
  H  H5  1  0.00450000  0.92520000  0.40160000  1
  H  H6  1  0.00570000  0.33800000  0.61950000  1
  H  H7  1  0.05550000  0.92310000  0.05730000  1
  H  H8  1  0.05640000  0.46770000  0.51580000  1
  H  H9  1  0.06240000  0.41880000  0.83310000  1
  H  H10  1  0.07190000  0.76130000  0.64870000  1
  H  H11  1  0.07340000  0.36730000  0.03240000  1
  H  H12  1  0.09740000  0.12300000  0.78340000  1
  H  H13  1  0.10070000  0.18450000  0.32180000  1
  H  H14  1  0.12250000  0.89320000  0.56340000  1
  H  H15  1  0.13160000  0.97470000  0.29560000  1
  H  H16  1  0.17920000  0.58540000  0.46090000  1
  H  H17  1  0.19270000  0.68130000  0.23960000  1
  H  H18  1  0.19510000  0.23840000  0.18840000  1
  H  H19  1  0.21640000  0.00800000  0.05480000  1
  H  H20  1  0.23580000  0.45620000  0.03410000  1
  H  H21  1  0.24120000  0.37640000  0.73840000  1
  H  H22  1  0.24370000  0.68340000  0.07710000  1
  H  H23  1  0.25540000  0.54610000  0.77580000  1
  H  H24  1  0.31620000  0.94550000  0.20540000  1
  H  H25  1  0.32800000  0.57450000  0.09210000  1
  H  H26  1  0.33550000  0.57310000  0.63380000  1
  H  H27  1  0.34050000  0.11940000  0.99240000  1
  H  H28  1  0.34880000  0.68520000  0.43840000  1
  H  H29  1  0.40950000  0.85680000  0.40910000  1
  H  H30  1  0.41870000  0.24720000  0.88870000  1
  H  H31  1  0.43150000  0.32650000  0.17820000  1
  H  H32  1  0.45000000  0.07090000  0.32530000  1
  H  H33  1  0.48510000  0.40920000  0.50710000  1
  H  H34  1  0.49130000  0.02300000  0.13820000  1
  H  H35  1  0.50030000  0.40890000  0.86290000  1
  H  H36  1  0.50350000  0.33270000  0.66030000  1
  H  H37  1  0.50600000  0.72000000  0.77470000  1
  H  H38  1  0.51880000  0.77910000  0.31390000  1
  H  H39  1  0.52200000  0.52410000  0.38480000  1
  H  H40  1  0.52760000  0.83410000  0.64350000  1
  H  H41  1  0.55200000  0.55470000  0.55850000  1
  H  H42  1  0.55760000  0.07640000  0.80910000  1
  H  H43  1  0.58490000  0.35400000  0.07940000  1
  H  H44  1  0.62440000  0.47900000  0.73440000  1
  H  H45  1  0.63780000  0.12500000  0.38270000  1
  H  H46  1  0.64070000  0.05050000  0.03770000  1
  H  H47  1  0.67850000  0.87920000  0.32950000  1
  H  H48  1  0.68290000  0.82360000  0.09790000  1
  H  H49  1  0.68500000  0.87010000  0.55160000  1
  H  H50  1  0.68770000  0.37850000  0.96260000  1
  H  H51  1  0.70540000  0.59240000  0.46320000  1
  H  H52  1  0.73610000  0.15950000  0.81090000  1
  H  H53  1  0.75700000  0.04320000  0.25500000  1
  H  H54  1  0.76170000  0.58770000  0.68740000  1
  H  H55  1  0.76400000  0.61300000  0.83940000  1
  H  H56  1  0.81700000  0.07030000  0.98930000  1
  H  H57  1  0.84070000  0.88860000  0.48640000  1
  H  H58  1  0.84400000  0.62800000  0.38130000  1
  H  H59  1  0.85300000  0.40260000  0.87480000  1
  H  H60  1  0.85490000  0.13690000  0.37900000  1
  H  H61  1  0.86950000  0.22870000  0.66870000  1
  H  H62  1  0.89990000  0.14490000  0.20630000  1
  H  H63  1  0.91290000  0.82060000  0.10820000  1
  H  H64  1  0.94180000  0.64930000  0.69860000  1
  H  H65  1  0.95210000  0.25310000  0.09870000  1
  H  H66  1  0.98150000  0.62050000  0.83800000  1
  H  H67  1  0.98510000  0.09330000  0.90390000  1
  C  C68  1  0.02150000  0.79750000  0.33823000  1
  C  C69  1  0.03000000  0.22630000  0.07741000  1
  C  C70  1  0.05710000  0.52780000  0.54160000  1
  C  C71  1  0.06670000  0.70400000  0.62078000  1
  C  C72  1  0.07190000  0.11760000  0.08481000  1
  C  C73  1  0.08560000  0.65090000  0.98243000  1
  C  C74  1  0.09080000  0.35460000  0.81170000  1
  C  C75  1  0.10300000  0.29540000  0.03869000  1
  C  C76  1  0.11110000  0.19120000  0.78361000  1
  C  C77  1  0.13180000  0.59780000  0.50910000  1
  C  C78  1  0.13570000  0.68640000  0.54835000  1
  C  C79  1  0.16630000  0.91220000  0.27350000  1
  C  C80  1  0.18320000  0.16870000  0.30585000  1
  C  C81  1  0.18610000  0.86320000  0.52855000  1
  C  C82  1  0.18810000  0.08010000  0.05170000  1
  C  C83  1  0.18940000  0.33050000  0.75922000  1
  C  C84  1  0.20090000  0.75060000  0.24208000  1
  C  C85  1  0.22070000  0.25420000  0.00980000  1
  C  C86  1  0.23450000  0.19820000  0.23150000  1
  C  C87  1  0.26310000  0.14640000  0.01426000  1
  C  C88  1  0.26800000  0.89580000  0.22351000  1
  C  C89  1  0.29080000  0.42490000  0.99458000  1
  C  C90  1  0.30240000  0.28500000  0.51604000  1
  C  C91  1  0.31080000  0.74740000  0.45970000  1
  C  C92  1  0.31630000  0.58430000  0.75764000  1
  C  C93  1  0.34370000  0.84270000  0.44390000  1
  C  C94  1  0.34860000  0.36340000  0.45462000  1
  C  C95  1  0.36020000  0.59870000  0.67902000  1
  C  C96  1  0.37490000  0.10580000  0.30804000  1
  C  C97  1  0.39170000  0.30840000  0.91443000  1
  C  C98  1  0.39170000  0.52690000  0.24458000  1
  C  C99  1  0.39210000  0.47270000  0.32869000  1
  C  C100  1  0.43630000  0.39800000  0.90042000  1
  C  C101  1  0.44140000  0.41570000  0.46080000  1
  C  C102  1  0.45130000  0.17080000  0.17105000  1
  C  C103  1  0.45400000  0.67960000  0.75796000  1
  C  C104  1  0.46430000  0.48070000  0.38970000  1
  C  C105  1  0.47560000  0.27050000  0.15150000  1
  C  C106  1  0.50940000  0.07230000  0.53248000  1
  C  C107  1  0.51130000  0.08940000  0.12716000  1
  C  C108  1  0.53100000  0.68770000  0.61336000  1
  C  C109  1  0.53840000  0.27930000  0.69754000  1
  C  C110  1  0.56620000  0.78390000  0.60920000  1
  C  C111  1  0.56730000  0.28680000  0.09130000  1
  C  C112  1  0.56920000  0.13870000  0.77923000  1
  C  C113  1  0.57200000  0.80070000  0.27207000  1
  C  C114  1  0.58030000  0.61750000  0.55803000  1
  C  C115  1  0.60110000  0.10610000  0.06678000  1
  C  C116  1  0.61510000  0.63130000  0.99021000  1
  C  C117  1  0.63290000  0.20540000  0.04886000  1
  C  C118  1  0.63450000  0.09190000  0.50561000  1
  C  C119  1  0.66010000  0.80560000  0.55320000  1
  C  C120  1  0.66090000  0.85530000  0.28147000  1
  C  C121  1  0.66170000  0.82400000  0.15349000  1
  C  C122  1  0.66820000  0.18420000  0.78094000  1
  C  C123  1  0.67290000  0.64020000  0.50094000  1
  C  C124  1  0.68230000  0.11510000  0.42885000  1
  C  C125  1  0.70040000  0.45100000  0.71085000  1
  C  C126  1  0.71760000  0.73370000  0.49957000  1
  C  C127  1  0.73230000  0.34420000  0.70371000  1
  C  C128  1  0.73500000  0.22240000  0.98803000  1
  C  C129  1  0.74680000  0.62420000  0.96275000  1
  C  C130  1  0.74750000  0.32090000  0.95129000  1
  C  C131  1  0.78300000  0.51600000  0.68240000  1
  C  C132  1  0.80340000  0.61890000  0.88558000  1
  C  C133  1  0.80810000  0.12270000  0.42670000  1
  C  C134  1  0.81540000  0.02050000  0.21408000  1
  C  C135  1  0.81640000  0.92550000  0.18236000  1
  C  C136  1  0.82400000  0.75480000  0.44370000  1
  C  C137  1  0.82480000  0.13760000  0.96736000  1
  C  C138  1  0.84650000  0.33570000  0.89824000  1
  C  C139  1  0.84750000  0.30090000  0.67106000  1
  C  C140  1  0.85170000  0.10680000  0.50239000  1
  C  C141  1  0.87410000  0.84250000  0.44770000  1
  C  C142  1  0.87520000  0.68860000  0.38490000  1
  C  C143  1  0.89750000  0.47550000  0.64653000  1
  C  C144  1  0.90090000  0.08130000  0.18500000  1
  C  C145  1  0.90870000  0.88690000  0.12580000  1
  C  C146  1  0.92510000  0.15080000  0.91531000  1
  C  C147  1  0.92930000  0.36650000  0.64205000  1
  C  C148  1  0.92930000  0.62350000  0.88491000  1
  C  C149  1  0.93580000  0.25050000  0.88015000  1
  C  C150  1  0.96580000  0.63270000  0.96034000  1
  C  C151  1  0.97170000  0.70920000  0.33100000  1
  C  C152  1  0.97230000  0.86540000  0.39672000  1
  C  C153  1  0.97880000  0.10200000  0.52544000  1
  C  C154  1  0.98290000  0.54710000  0.61304000  1
  C  C155  1  0.99000000  0.04710000  0.12315000  1
  C  C156  1  0.99030000  0.63560000  0.65102000  1
  C  C157  1  0.99450000  0.94810000  0.09588000  1
  S  S158  1  0.29178000  0.38818000  0.35962000  1
  S  S159  1  0.74060000  0.08256000  0.57708000  1
  S  S160  1  0.84728000  0.63530000  0.03324000  1
  N  N161  1  0.04100000  0.26489000  0.82718000  1
  N  N162  1  0.12320000  0.81907000  0.28583000  1
  N  N163  1  0.20160000  0.22800000  0.74123000  1
  N  N164  1  0.20840000  0.76120000  0.51440000  1
  N  N165  1  0.26540000  0.91590000  0.48702000  1
  N  N166  1  0.27190000  0.11210000  0.35374000  1
  N  N167  1  0.28950000  0.79284000  0.20322000  1
  N  N168  1  0.29810000  0.32490000  0.97436000  1
  N  N169  1  0.35810000  0.15572000  0.23344000  1
  N  N170  1  0.37270000  0.47111000  0.95011000  1
  N  N171  1  0.37640000  0.63543000  0.80701000  1
  N  N172  1  0.44890000  0.65904000  0.68006000  1
  N  N173  1  0.48740000  0.19854000  0.72628000  1
  N  N174  1  0.57200000  0.78160000  0.19150000  1
  N  N175  1  0.64700000  0.27556000  0.72842000  1
  N  N176  1  0.71920000  0.86832000  0.20638000  1
  O  O177  1  0.06174000  0.09562000  0.46904000  1
  O  O178  1  0.09370000  0.66830000  0.05514000  1
  O  O179  1  0.17010000  0.64750000  0.92692000  1
  O  O180  1  0.21878000  0.24168000  0.49551000  1
  O  O181  1  0.32430000  0.50257000  0.19559000  1
  O  O182  1  0.32619000  0.64566000  0.06739000  1
  O  O183  1  0.35091000  0.26890000  0.58360000  1
  O  O184  1  0.43749000  0.07628000  0.47777000  1
  O  O185  1  0.46080000  0.59328000  0.22875000  1
  O  O186  1  0.48670000  0.05248000  0.60785000  1
  O  O187  1  0.54333000  0.63048000  0.93445000  1
  O  O188  1  0.58924000  0.63827000  0.06425000  1
  O  O189  1  0.99410000  0.10108000  0.60043000  1
