# generated using pymatgen
data_CuH20(C7N)4
_symmetry_space_group_name_H-M   'P 1'
_cell_length_a   21.23790000
_cell_length_b   21.23790000
_cell_length_c   21.23790000
_cell_angle_alpha   90.00000000
_cell_angle_beta   90.00000000
_cell_angle_gamma   90.00000000
_symmetry_Int_Tables_number   1
_chemical_formula_structural   CuH20(C7N)4
_chemical_formula_sum   'Cu6 H120 C168 N24'
_cell_volume   9579.32073812
_cell_formula_units_Z   6
loop_
 _symmetry_equiv_pos_site_id
 _symmetry_equiv_pos_as_xyz
  1  'x, y, z'
loop_
 _atom_site_type_symbol
 _atom_site_label
 _atom_site_symmetry_multiplicity
 _atom_site_fract_x
 _atom_site_fract_y
 _atom_site_fract_z
 _atom_site_occupancy
  Cu  Cu0  1  0.00000000  0.50000000  0.30100000  1
  Cu  Cu1  1  0.00000000  0.50000000  0.69900000  1
  Cu  Cu2  1  0.30100000  0.00000000  0.50000000  1
  Cu  Cu3  1  0.50000000  0.30100000  0.00000000  1
  Cu  Cu4  1  0.50000000  0.69900000  0.00000000  1
  Cu  Cu5  1  0.69900000  0.00000000  0.50000000  1
  H  H6  1  0.06850000  0.43370000  0.20000000  1
  H  H7  1  0.06850000  0.43370000  0.80000000  1
  H  H8  1  0.06850000  0.56630000  0.20000000  1
  H  H9  1  0.06850000  0.56630000  0.80000000  1
  H  H10  1  0.08230000  0.42010000  0.38980000  1
  H  H11  1  0.08230000  0.42010000  0.61020000  1
  H  H12  1  0.08230000  0.57990000  0.38980000  1
  H  H13  1  0.08230000  0.57990000  0.61020000  1
  H  H14  1  0.14730000  0.35750000  0.18880000  1
  H  H15  1  0.14730000  0.35750000  0.81120000  1
  H  H16  1  0.14730000  0.64250000  0.18880000  1
  H  H17  1  0.14730000  0.64250000  0.81120000  1
  H  H18  1  0.16110000  0.34390000  0.37860000  1
  H  H19  1  0.16110000  0.34390000  0.62140000  1
  H  H20  1  0.16110000  0.65610000  0.37860000  1
  H  H21  1  0.16110000  0.65610000  0.62140000  1
  H  H22  1  0.18880000  0.14730000  0.35750000  1
  H  H23  1  0.18880000  0.14730000  0.64250000  1
  H  H24  1  0.18880000  0.85270000  0.35750000  1
  H  H25  1  0.18880000  0.85270000  0.64250000  1
  H  H26  1  0.20000000  0.06850000  0.43370000  1
  H  H27  1  0.20000000  0.06850000  0.56630000  1
  H  H28  1  0.20000000  0.93150000  0.43370000  1
  H  H29  1  0.20000000  0.93150000  0.56630000  1
  H  H30  1  0.20340000  0.25770000  0.35470000  1
  H  H31  1  0.20340000  0.25770000  0.64530000  1
  H  H32  1  0.20340000  0.74230000  0.35470000  1
  H  H33  1  0.20340000  0.74230000  0.64530000  1
  H  H34  1  0.25770000  0.35470000  0.20340000  1
  H  H35  1  0.25770000  0.35470000  0.79660000  1
  H  H36  1  0.25770000  0.64530000  0.20340000  1
  H  H37  1  0.25770000  0.64530000  0.79660000  1
  H  H38  1  0.34390000  0.37860000  0.16110000  1
  H  H39  1  0.34390000  0.37860000  0.83890000  1
  H  H40  1  0.34390000  0.62140000  0.16110000  1
  H  H41  1  0.34390000  0.62140000  0.83890000  1
  H  H42  1  0.35470000  0.20340000  0.25770000  1
  H  H43  1  0.35470000  0.20340000  0.74230000  1
  H  H44  1  0.35470000  0.79660000  0.25770000  1
  H  H45  1  0.35470000  0.79660000  0.74230000  1
  H  H46  1  0.35750000  0.18880000  0.14730000  1
  H  H47  1  0.35750000  0.18880000  0.85270000  1
  H  H48  1  0.35750000  0.81120000  0.14730000  1
  H  H49  1  0.35750000  0.81120000  0.85270000  1
  H  H50  1  0.37860000  0.16110000  0.34390000  1
  H  H51  1  0.37860000  0.16110000  0.65610000  1
  H  H52  1  0.37860000  0.83890000  0.34390000  1
  H  H53  1  0.37860000  0.83890000  0.65610000  1
  H  H54  1  0.38980000  0.08230000  0.42010000  1
  H  H55  1  0.38980000  0.08230000  0.57990000  1
  H  H56  1  0.38980000  0.91770000  0.42010000  1
  H  H57  1  0.38980000  0.91770000  0.57990000  1
  H  H58  1  0.42010000  0.38980000  0.08230000  1
  H  H59  1  0.42010000  0.38980000  0.91770000  1
  H  H60  1  0.42010000  0.61020000  0.08230000  1
  H  H61  1  0.42010000  0.61020000  0.91770000  1
  H  H62  1  0.43370000  0.20000000  0.06850000  1
  H  H63  1  0.43370000  0.20000000  0.93150000  1
  H  H64  1  0.43370000  0.80000000  0.06850000  1
  H  H65  1  0.43370000  0.80000000  0.93150000  1
  H  H66  1  0.56630000  0.20000000  0.06850000  1
  H  H67  1  0.56630000  0.20000000  0.93150000  1
  H  H68  1  0.56630000  0.80000000  0.06850000  1
  H  H69  1  0.56630000  0.80000000  0.93150000  1
  H  H70  1  0.57990000  0.38980000  0.08230000  1
  H  H71  1  0.57990000  0.38980000  0.91770000  1
  H  H72  1  0.57990000  0.61020000  0.08230000  1
  H  H73  1  0.57990000  0.61020000  0.91770000  1
  H  H74  1  0.61020000  0.08230000  0.42010000  1
  H  H75  1  0.61020000  0.08230000  0.57990000  1
  H  H76  1  0.61020000  0.91770000  0.42010000  1
  H  H77  1  0.61020000  0.91770000  0.57990000  1
  H  H78  1  0.62140000  0.16110000  0.34390000  1
  H  H79  1  0.62140000  0.16110000  0.65610000  1
  H  H80  1  0.62140000  0.83890000  0.34390000  1
  H  H81  1  0.62140000  0.83890000  0.65610000  1
  H  H82  1  0.64250000  0.18880000  0.14730000  1
  H  H83  1  0.64250000  0.18880000  0.85270000  1
  H  H84  1  0.64250000  0.81120000  0.14730000  1
  H  H85  1  0.64250000  0.81120000  0.85270000  1
  H  H86  1  0.64530000  0.20340000  0.25770000  1
  H  H87  1  0.64530000  0.20340000  0.74230000  1
  H  H88  1  0.64530000  0.79660000  0.25770000  1
  H  H89  1  0.64530000  0.79660000  0.74230000  1
  H  H90  1  0.65610000  0.37860000  0.16110000  1
  H  H91  1  0.65610000  0.37860000  0.83890000  1
  H  H92  1  0.65610000  0.62140000  0.16110000  1
  H  H93  1  0.65610000  0.62140000  0.83890000  1
  H  H94  1  0.74230000  0.35470000  0.20340000  1
  H  H95  1  0.74230000  0.35470000  0.79660000  1
  H  H96  1  0.74230000  0.64530000  0.20340000  1
  H  H97  1  0.74230000  0.64530000  0.79660000  1
  H  H98  1  0.79660000  0.25770000  0.35470000  1
  H  H99  1  0.79660000  0.25770000  0.64530000  1
  H  H100  1  0.79660000  0.74230000  0.35470000  1
  H  H101  1  0.79660000  0.74230000  0.64530000  1
  H  H102  1  0.80000000  0.06850000  0.43370000  1
  H  H103  1  0.80000000  0.06850000  0.56630000  1
  H  H104  1  0.80000000  0.93150000  0.43370000  1
  H  H105  1  0.80000000  0.93150000  0.56630000  1
  H  H106  1  0.81120000  0.14730000  0.35750000  1
  H  H107  1  0.81120000  0.14730000  0.64250000  1
  H  H108  1  0.81120000  0.85270000  0.35750000  1
  H  H109  1  0.81120000  0.85270000  0.64250000  1
  H  H110  1  0.83890000  0.34390000  0.37860000  1
  H  H111  1  0.83890000  0.34390000  0.62140000  1
  H  H112  1  0.83890000  0.65610000  0.37860000  1
  H  H113  1  0.83890000  0.65610000  0.62140000  1
  H  H114  1  0.85270000  0.35750000  0.18880000  1
  H  H115  1  0.85270000  0.35750000  0.81120000  1
  H  H116  1  0.85270000  0.64250000  0.18880000  1
  H  H117  1  0.85270000  0.64250000  0.81120000  1
  H  H118  1  0.91770000  0.42010000  0.38980000  1
  H  H119  1  0.91770000  0.42010000  0.61020000  1
  H  H120  1  0.91770000  0.57990000  0.38980000  1
  H  H121  1  0.91770000  0.57990000  0.61020000  1
  H  H122  1  0.93150000  0.43370000  0.20000000  1
  H  H123  1  0.93150000  0.43370000  0.80000000  1
  H  H124  1  0.93150000  0.56630000  0.20000000  1
  H  H125  1  0.93150000  0.56630000  0.80000000  1
  C  C126  1  0.08730000  0.41550000  0.23620000  1
  C  C127  1  0.08730000  0.41550000  0.76380000  1
  C  C128  1  0.08730000  0.58450000  0.23620000  1
  C  C129  1  0.08730000  0.58450000  0.76380000  1
  C  C130  1  0.09550000  0.40740000  0.34900000  1
  C  C131  1  0.09550000  0.40740000  0.65100000  1
  C  C132  1  0.09550000  0.59260000  0.34900000  1
  C  C133  1  0.09550000  0.59260000  0.65100000  1
  C  C134  1  0.13410000  0.37020000  0.22960000  1
  C  C135  1  0.13410000  0.37020000  0.77040000  1
  C  C136  1  0.13410000  0.62980000  0.22960000  1
  C  C137  1  0.13410000  0.62980000  0.77040000  1
  C  C138  1  0.14230000  0.36210000  0.34240000  1
  C  C139  1  0.14230000  0.36210000  0.65760000  1
  C  C140  1  0.14230000  0.63790000  0.34240000  1
  C  C141  1  0.14230000  0.63790000  0.65760000  1
  C  C142  1  0.16160000  0.34350000  0.28260000  1
  C  C143  1  0.16160000  0.34350000  0.71740000  1
  C  C144  1  0.16160000  0.65650000  0.28260000  1
  C  C145  1  0.16160000  0.65650000  0.71740000  1
  C  C146  1  0.22030000  0.30790000  0.27410000  1
  C  C147  1  0.22030000  0.30790000  0.72590000  1
  C  C148  1  0.22030000  0.69210000  0.27410000  1
  C  C149  1  0.22030000  0.69210000  0.72590000  1
  C  C150  1  0.22920000  0.26060000  0.31820000  1
  C  C151  1  0.22920000  0.26060000  0.68180000  1
  C  C152  1  0.22920000  0.73940000  0.31820000  1
  C  C153  1  0.22920000  0.73940000  0.68180000  1
  C  C154  1  0.22960000  0.13410000  0.37020000  1
  C  C155  1  0.22960000  0.13410000  0.62980000  1
  C  C156  1  0.22960000  0.86590000  0.37020000  1
  C  C157  1  0.22960000  0.86590000  0.62980000  1
  C  C158  1  0.23620000  0.08730000  0.41550000  1
  C  C159  1  0.23620000  0.08730000  0.58450000  1
  C  C160  1  0.23620000  0.91270000  0.41550000  1
  C  C161  1  0.23620000  0.91270000  0.58450000  1
  C  C162  1  0.26060000  0.31820000  0.22920000  1
  C  C163  1  0.26060000  0.31820000  0.77080000  1
  C  C164  1  0.26060000  0.68180000  0.22920000  1
  C  C165  1  0.26060000  0.68180000  0.77080000  1
  C  C166  1  0.27410000  0.22030000  0.30790000  1
  C  C167  1  0.27410000  0.22030000  0.69210000  1
  C  C168  1  0.27410000  0.77970000  0.30790000  1
  C  C169  1  0.27410000  0.77970000  0.69210000  1
  C  C170  1  0.28260000  0.16160000  0.34350000  1
  C  C171  1  0.28260000  0.16160000  0.65650000  1
  C  C172  1  0.28260000  0.83840000  0.34350000  1
  C  C173  1  0.28260000  0.83840000  0.65650000  1
  C  C174  1  0.30790000  0.27410000  0.22030000  1
  C  C175  1  0.30790000  0.27410000  0.77970000  1
  C  C176  1  0.30790000  0.72590000  0.22030000  1
  C  C177  1  0.30790000  0.72590000  0.77970000  1
  C  C178  1  0.31820000  0.22920000  0.26060000  1
  C  C179  1  0.31820000  0.22920000  0.73940000  1
  C  C180  1  0.31820000  0.77080000  0.26060000  1
  C  C181  1  0.31820000  0.77080000  0.73940000  1
  C  C182  1  0.34240000  0.14230000  0.36210000  1
  C  C183  1  0.34240000  0.14230000  0.63790000  1
  C  C184  1  0.34240000  0.85770000  0.36210000  1
  C  C185  1  0.34240000  0.85770000  0.63790000  1
  C  C186  1  0.34350000  0.28260000  0.16160000  1
  C  C187  1  0.34350000  0.28260000  0.83840000  1
  C  C188  1  0.34350000  0.71740000  0.16160000  1
  C  C189  1  0.34350000  0.71740000  0.83840000  1
  C  C190  1  0.34900000  0.09550000  0.40740000  1
  C  C191  1  0.34900000  0.09550000  0.59260000  1
  C  C192  1  0.34900000  0.90450000  0.40740000  1
  C  C193  1  0.34900000  0.90450000  0.59260000  1
  C  C194  1  0.36210000  0.34240000  0.14230000  1
  C  C195  1  0.36210000  0.34240000  0.85770000  1
  C  C196  1  0.36210000  0.65760000  0.14230000  1
  C  C197  1  0.36210000  0.65760000  0.85770000  1
  C  C198  1  0.37020000  0.22960000  0.13410000  1
  C  C199  1  0.37020000  0.22960000  0.86590000  1
  C  C200  1  0.37020000  0.77040000  0.13410000  1
  C  C201  1  0.37020000  0.77040000  0.86590000  1
  C  C202  1  0.40740000  0.34900000  0.09550000  1
  C  C203  1  0.40740000  0.34900000  0.90450000  1
  C  C204  1  0.40740000  0.65100000  0.09550000  1
  C  C205  1  0.40740000  0.65100000  0.90450000  1
  C  C206  1  0.41550000  0.23620000  0.08730000  1
  C  C207  1  0.41550000  0.23620000  0.91270000  1
  C  C208  1  0.41550000  0.76380000  0.08730000  1
  C  C209  1  0.41550000  0.76380000  0.91270000  1
  C  C210  1  0.58450000  0.23620000  0.08730000  1
  C  C211  1  0.58450000  0.23620000  0.91270000  1
  C  C212  1  0.58450000  0.76380000  0.08730000  1
  C  C213  1  0.58450000  0.76380000  0.91270000  1
  C  C214  1  0.59260000  0.34900000  0.09550000  1
  C  C215  1  0.59260000  0.34900000  0.90450000  1
  C  C216  1  0.59260000  0.65100000  0.09550000  1
  C  C217  1  0.59260000  0.65100000  0.90450000  1
  C  C218  1  0.62980000  0.22960000  0.13410000  1
  C  C219  1  0.62980000  0.22960000  0.86590000  1
  C  C220  1  0.62980000  0.77040000  0.13410000  1
  C  C221  1  0.62980000  0.77040000  0.86590000  1
  C  C222  1  0.63790000  0.34240000  0.14230000  1
  C  C223  1  0.63790000  0.34240000  0.85770000  1
  C  C224  1  0.63790000  0.65760000  0.14230000  1
  C  C225  1  0.63790000  0.65760000  0.85770000  1
  C  C226  1  0.65100000  0.09550000  0.40740000  1
  C  C227  1  0.65100000  0.09550000  0.59260000  1
  C  C228  1  0.65100000  0.90450000  0.40740000  1
  C  C229  1  0.65100000  0.90450000  0.59260000  1
  C  C230  1  0.65650000  0.28260000  0.16160000  1
  C  C231  1  0.65650000  0.28260000  0.83840000  1
  C  C232  1  0.65650000  0.71740000  0.16160000  1
  C  C233  1  0.65650000  0.71740000  0.83840000  1
  C  C234  1  0.65760000  0.14230000  0.36210000  1
  C  C235  1  0.65760000  0.14230000  0.63790000  1
  C  C236  1  0.65760000  0.85770000  0.36210000  1
  C  C237  1  0.65760000  0.85770000  0.63790000  1
  C  C238  1  0.68180000  0.22920000  0.26060000  1
  C  C239  1  0.68180000  0.22920000  0.73940000  1
  C  C240  1  0.68180000  0.77080000  0.26060000  1
  C  C241  1  0.68180000  0.77080000  0.73940000  1
  C  C242  1  0.69210000  0.27410000  0.22030000  1
  C  C243  1  0.69210000  0.27410000  0.77970000  1
  C  C244  1  0.69210000  0.72590000  0.22030000  1
  C  C245  1  0.69210000  0.72590000  0.77970000  1
  C  C246  1  0.71740000  0.16160000  0.34350000  1
  C  C247  1  0.71740000  0.16160000  0.65650000  1
  C  C248  1  0.71740000  0.83840000  0.34350000  1
  C  C249  1  0.71740000  0.83840000  0.65650000  1
  C  C250  1  0.72590000  0.22030000  0.30790000  1
  C  C251  1  0.72590000  0.22030000  0.69210000  1
  C  C252  1  0.72590000  0.77970000  0.30790000  1
  C  C253  1  0.72590000  0.77970000  0.69210000  1
  C  C254  1  0.73940000  0.31820000  0.22920000  1
  C  C255  1  0.73940000  0.31820000  0.77080000  1
  C  C256  1  0.73940000  0.68180000  0.22920000  1
  C  C257  1  0.73940000  0.68180000  0.77080000  1
  C  C258  1  0.76380000  0.08730000  0.41550000  1
  C  C259  1  0.76380000  0.08730000  0.58450000  1
  C  C260  1  0.76380000  0.91270000  0.41550000  1
  C  C261  1  0.76380000  0.91270000  0.58450000  1
  C  C262  1  0.77040000  0.13410000  0.37020000  1
  C  C263  1  0.77040000  0.13410000  0.62980000  1
  C  C264  1  0.77040000  0.86590000  0.37020000  1
  C  C265  1  0.77040000  0.86590000  0.62980000  1
  C  C266  1  0.77080000  0.26060000  0.31820000  1
  C  C267  1  0.77080000  0.26060000  0.68180000  1
  C  C268  1  0.77080000  0.73940000  0.31820000  1
  C  C269  1  0.77080000  0.73940000  0.68180000  1
  C  C270  1  0.77970000  0.30790000  0.27410000  1
  C  C271  1  0.77970000  0.30790000  0.72590000  1
  C  C272  1  0.77970000  0.69210000  0.27410000  1
  C  C273  1  0.77970000  0.69210000  0.72590000  1
  C  C274  1  0.83840000  0.34350000  0.28260000  1
  C  C275  1  0.83840000  0.34350000  0.71740000  1
  C  C276  1  0.83840000  0.65650000  0.28260000  1
  C  C277  1  0.83840000  0.65650000  0.71740000  1
  C  C278  1  0.85770000  0.36210000  0.34240000  1
  C  C279  1  0.85770000  0.36210000  0.65760000  1
  C  C280  1  0.85770000  0.63790000  0.34240000  1
  C  C281  1  0.85770000  0.63790000  0.65760000  1
  C  C282  1  0.86590000  0.37020000  0.22960000  1
  C  C283  1  0.86590000  0.37020000  0.77040000  1
  C  C284  1  0.86590000  0.62980000  0.22960000  1
  C  C285  1  0.86590000  0.62980000  0.77040000  1
  C  C286  1  0.90450000  0.40740000  0.34900000  1
  C  C287  1  0.90450000  0.40740000  0.65100000  1
  C  C288  1  0.90450000  0.59260000  0.34900000  1
  C  C289  1  0.90450000  0.59260000  0.65100000  1
  C  C290  1  0.91270000  0.41550000  0.23620000  1
  C  C291  1  0.91270000  0.41550000  0.76380000  1
  C  C292  1  0.91270000  0.58450000  0.23620000  1
  C  C293  1  0.91270000  0.58450000  0.76380000  1
  N  N294  1  0.06800000  0.43400000  0.29600000  1
  N  N295  1  0.06800000  0.43400000  0.70400000  1
  N  N296  1  0.06800000  0.56600000  0.29600000  1
  N  N297  1  0.06800000  0.56600000  0.70400000  1
  N  N298  1  0.29600000  0.06800000  0.43400000  1
  N  N299  1  0.29600000  0.06800000  0.56600000  1
  N  N300  1  0.29600000  0.93200000  0.43400000  1
  N  N301  1  0.29600000  0.93200000  0.56600000  1
  N  N302  1  0.43400000  0.29600000  0.06800000  1
  N  N303  1  0.43400000  0.29600000  0.93200000  1
  N  N304  1  0.43400000  0.70400000  0.06800000  1
  N  N305  1  0.43400000  0.70400000  0.93200000  1
  N  N306  1  0.56600000  0.29600000  0.06800000  1
  N  N307  1  0.56600000  0.29600000  0.93200000  1
  N  N308  1  0.56600000  0.70400000  0.06800000  1
  N  N309  1  0.56600000  0.70400000  0.93200000  1
  N  N310  1  0.70400000  0.06800000  0.43400000  1
  N  N311  1  0.70400000  0.06800000  0.56600000  1
  N  N312  1  0.70400000  0.93200000  0.43400000  1
  N  N313  1  0.70400000  0.93200000  0.56600000  1
  N  N314  1  0.93200000  0.43400000  0.29600000  1
  N  N315  1  0.93200000  0.43400000  0.70400000  1
  N  N316  1  0.93200000  0.56600000  0.29600000  1
  N  N317  1  0.93200000  0.56600000  0.70400000  1
