# generated using pymatgen
data_Co3H60(C11O3)8
_symmetry_space_group_name_H-M   'P 1'
_cell_length_a   15.46800000
_cell_length_b   15.78500000
_cell_length_c   18.03800000
_cell_angle_alpha   107.27000000
_cell_angle_beta   103.94900000
_cell_angle_gamma   107.16300000
_symmetry_Int_Tables_number   1
_chemical_formula_structural   Co3H60(C11O3)8
_chemical_formula_sum   'Co3 H60 C88 O24'
_cell_volume   3748.59771135
_cell_formula_units_Z   1
loop_
 _symmetry_equiv_pos_site_id
 _symmetry_equiv_pos_as_xyz
  1  'x, y, z'
loop_
 _atom_site_type_symbol
 _atom_site_label
 _atom_site_symmetry_multiplicity
 _atom_site_fract_x
 _atom_site_fract_y
 _atom_site_fract_z
 _atom_site_occupancy
  Co  Co0  1  0.00000000  0.00000000  0.00000000  1
  Co  Co1  1  0.02536000  0.17788000  0.91484000  1
  Co  Co2  1  0.97464000  0.82212000  0.08516000  1
  H  H3  1  0.00740000  0.51700000  0.43040000  1
  H  H4  1  0.01380000  0.08760000  0.33140000  1
  H  H5  1  0.02010000  0.49820000  0.25770000  1
  H  H6  1  0.03830000  0.42850000  0.82110000  1
  H  H7  1  0.05630000  0.81880000  0.79650000  1
  H  H8  1  0.07220000  0.44570000  0.55280000  1
  H  H9  1  0.07280000  0.48590000  0.64360000  1
  H  H10  1  0.08150000  0.25290000  0.41730000  1
  H  H11  1  0.11180000  0.69730000  0.46180000  1
  H  H12  1  0.12220000  0.74150000  0.70790000  1
  H  H13  1  0.12990000  0.42860000  0.29190000  1
  H  H14  1  0.13570000  0.69400000  0.95320000  1
  H  H15  1  0.13770000  0.71390000  0.55590000  1
  H  H16  1  0.15140000  0.15500000  0.17830000  1
  H  H17  1  0.18280000  0.79920000  0.53100000  1
  H  H18  1  0.21080000  0.62340000  0.86870000  1
  H  H19  1  0.21500000  0.31360000  0.26490000  1
  H  H20  1  0.22140000  0.79610000  0.29070000  1
  H  H21  1  0.27040000  0.73260000  0.38120000  1
  H  H22  1  0.28050000  0.13240000  0.14180000  1
  H  H23  1  0.30380000  0.33000000  0.46810000  1
  H  H24  1  0.31520000  0.32540000  0.55540000  1
  H  H25  1  0.34610000  0.32840000  0.05500000  1
  H  H26  1  0.36280000  0.70380000  0.84170000  1
  H  H27  1  0.37700000  0.41990000  0.54930000  1
  H  H28  1  0.41940000  0.66070000  0.53320000  1
  H  H29  1  0.43650000  0.19860000  0.23780000  1
  H  H30  1  0.48110000  0.35000000  0.44330000  1
  H  H31  1  0.49220000  0.61650000  0.86800000  1
  H  H32  1  0.49560000  0.26480000  0.38340000  1
  H  H33  1  0.50440000  0.73520000  0.61660000  1
  H  H34  1  0.50780000  0.38350000  0.13200000  1
  H  H35  1  0.51890000  0.65000000  0.55670000  1
  H  H36  1  0.56350000  0.80140000  0.76220000  1
  H  H37  1  0.58060000  0.33930000  0.46680000  1
  H  H38  1  0.62300000  0.58010000  0.45070000  1
  H  H39  1  0.63720000  0.29620000  0.15830000  1
  H  H40  1  0.65390000  0.67160000  0.94500000  1
  H  H41  1  0.68480000  0.67460000  0.44460000  1
  H  H42  1  0.69620000  0.67000000  0.53190000  1
  H  H43  1  0.71950000  0.86760000  0.85820000  1
  H  H44  1  0.72960000  0.26740000  0.61880000  1
  H  H45  1  0.77860000  0.20390000  0.70930000  1
  H  H46  1  0.78500000  0.68640000  0.73510000  1
  H  H47  1  0.78920000  0.37660000  0.13130000  1
  H  H48  1  0.81720000  0.20080000  0.46900000  1
  H  H49  1  0.84860000  0.84500000  0.82170000  1
  H  H50  1  0.86230000  0.28610000  0.44410000  1
  H  H51  1  0.86430000  0.30600000  0.04680000  1
  H  H52  1  0.87010000  0.57140000  0.70810000  1
  H  H53  1  0.87780000  0.25850000  0.29210000  1
  H  H54  1  0.88820000  0.30270000  0.53820000  1
  H  H55  1  0.91850000  0.74710000  0.58270000  1
  H  H56  1  0.92720000  0.51410000  0.35640000  1
  H  H57  1  0.92780000  0.55430000  0.44720000  1
  H  H58  1  0.94370000  0.18120000  0.20350000  1
  H  H59  1  0.96170000  0.57150000  0.17890000  1
  H  H60  1  0.97990000  0.50180000  0.74230000  1
  H  H61  1  0.98620000  0.91240000  0.66860000  1
  H  H62  1  0.99260000  0.48300000  0.56960000  1
  C  C63  1  0.02460000  0.60240000  0.21790000  1
  C  C64  1  0.02840000  0.00040000  0.18720000  1
  C  C65  1  0.04560000  0.82000000  0.93700000  1
  C  C66  1  0.05230000  0.74470000  0.17710000  1
  C  C67  1  0.05340000  0.13250000  0.31740000  1
  C  C68  1  0.05880000  0.56050000  0.26640000  1
  C  C69  1  0.05940000  0.49280000  0.59140000  1
  C  C70  1  0.07570000  0.10270000  0.24370000  1
  C  C71  1  0.08580000  0.77920000  0.81030000  1
  C  C72  1  0.08750000  0.76280000  0.88270000  1
  C  C73  1  0.08760000  0.69670000  0.22750000  1
  C  C74  1  0.09350000  0.23240000  0.36830000  1
  C  C75  1  0.12880000  0.73580000  0.75860000  1
  C  C76  1  0.13500000  0.70470000  0.90510000  1
  C  C77  1  0.13630000  0.17340000  0.22590000  1
  C  C78  1  0.14990000  0.29970000  0.34720000  1
  C  C79  1  0.15170000  0.60790000  0.33050000  1
  C  C80  1  0.15890000  0.45930000  0.34960000  1
  C  C81  1  0.16210000  0.73080000  0.51580000  1
  C  C82  1  0.17320000  0.26840000  0.27710000  1
  C  C83  1  0.17860000  0.73780000  0.28650000  1
  C  C84  1  0.17900000  0.40540000  0.39410000  1
  C  C85  1  0.18010000  0.55790000  0.38710000  1
  C  C86  1  0.18160000  0.66310000  0.85470000  1
  C  C87  1  0.18340000  0.68220000  0.78350000  1
  C  C88  1  0.19610000  0.18440000  0.03060000  1
  C  C89  1  0.20970000  0.69860000  0.33900000  1
  C  C90  1  0.21470000  0.61340000  0.65090000  1
  C  C91  1  0.21740000  0.45360000  0.47960000  1
  C  C92  1  0.22010000  0.60330000  0.47020000  1
  C  C93  1  0.24110000  0.55090000  0.51860000  1
  C  C94  1  0.24860000  0.65730000  0.74020000  1
  C  C95  1  0.28020000  0.59820000  0.61230000  1
  C  C96  1  0.29770000  0.22240000  0.08760000  1
  C  C97  1  0.31530000  0.36630000  0.52520000  1
  C  C98  1  0.32590000  0.18620000  0.14160000  1
  C  C99  1  0.34220000  0.67980000  0.78400000  1
  C  C100  1  0.36520000  0.29820000  0.08920000  1
  C  C101  1  0.37620000  0.62730000  0.65990000  1
  C  C102  1  0.40890000  0.66890000  0.74670000  1
  C  C103  1  0.42190000  0.22520000  0.19920000  1
  C  C104  1  0.46180000  0.33530000  0.13810000  1
  C  C105  1  0.47340000  0.66870000  0.57830000  1
  C  C106  1  0.48950000  0.29660000  0.19970000  1
  C  C107  1  0.51050000  0.70340000  0.80030000  1
  C  C108  1  0.52660000  0.33130000  0.42170000  1
  C  C109  1  0.53820000  0.66470000  0.86190000  1
  C  C110  1  0.57810000  0.77480000  0.80080000  1
  C  C111  1  0.59110000  0.33110000  0.25330000  1
  C  C112  1  0.62380000  0.37270000  0.34010000  1
  C  C113  1  0.63480000  0.70180000  0.91080000  1
  C  C114  1  0.65780000  0.32020000  0.21600000  1
  C  C115  1  0.67410000  0.81380000  0.85840000  1
  C  C116  1  0.68470000  0.63370000  0.47480000  1
  C  C117  1  0.70230000  0.77760000  0.91240000  1
  C  C118  1  0.71980000  0.40180000  0.38770000  1
  C  C119  1  0.75140000  0.34270000  0.25980000  1
  C  C120  1  0.75890000  0.44910000  0.48140000  1
  C  C121  1  0.77990000  0.39670000  0.52980000  1
  C  C122  1  0.78260000  0.54640000  0.52040000  1
  C  C123  1  0.78530000  0.38660000  0.34910000  1
  C  C124  1  0.79030000  0.30140000  0.66100000  1
  C  C125  1  0.80390000  0.81560000  0.96940000  1
  C  C126  1  0.81660000  0.31780000  0.21650000  1
  C  C127  1  0.81840000  0.33690000  0.14530000  1
  C  C128  1  0.81990000  0.44210000  0.61290000  1
  C  C129  1  0.82100000  0.59460000  0.60590000  1
  C  C130  1  0.82140000  0.26220000  0.71350000  1
  C  C131  1  0.82680000  0.73160000  0.72290000  1
  C  C132  1  0.83790000  0.26920000  0.48420000  1
  C  C133  1  0.84110000  0.54070000  0.65040000  1
  C  C134  1  0.84830000  0.39210000  0.66950000  1
  C  C135  1  0.85010000  0.70030000  0.65280000  1
  C  C136  1  0.86370000  0.82660000  0.77410000  1
  C  C137  1  0.86500000  0.29530000  0.09490000  1
  C  C138  1  0.87120000  0.26420000  0.24140000  1
  C  C139  1  0.90650000  0.76760000  0.63170000  1
  C  C140  1  0.91240000  0.30330000  0.77250000  1
  C  C141  1  0.91250000  0.23720000  0.11730000  1
  C  C142  1  0.91420000  0.22080000  0.18970000  1
  C  C143  1  0.92430000  0.89730000  0.75630000  1
  C  C144  1  0.94060000  0.50720000  0.40860000  1
  C  C145  1  0.94120000  0.43950000  0.73360000  1
  C  C146  1  0.94660000  0.86750000  0.68260000  1
  C  C147  1  0.94770000  0.25530000  0.82290000  1
  C  C148  1  0.95440000  0.18000000  0.06300000  1
  C  C149  1  0.97160000  0.99960000  0.81280000  1
  C  C150  1  0.97540000  0.39760000  0.78210000  1
  O  O151  1  0.02320000  0.77200000  0.98720000  1
  O  O152  1  0.02490000  0.06480000  0.79740000  1
  O  O153  1  0.03590000  0.29210000  0.87050000  1
  O  O154  1  0.04170000  0.89540000  0.93800000  1
  O  O155  1  0.05110000  0.97990000  0.11960000  1
  O  O156  1  0.10960000  0.82180000  0.17860000  1
  O  O157  1  0.12050000  0.58840000  0.60370000  1
  O  O158  1  0.14200000  0.10370000  0.02820000  1
  O  O159  1  0.17240000  0.22730000  0.98790000  1
  O  O160  1  0.23640000  0.40320000  0.52970000  1
  O  O161  1  0.24640000  0.70280000  0.51410000  1
  O  O162  1  0.43850000  0.60780000  0.62170000  1
  O  O163  1  0.56150000  0.39220000  0.37830000  1
  O  O164  1  0.75360000  0.29720000  0.48590000  1
  O  O165  1  0.76360000  0.59680000  0.47030000  1
  O  O166  1  0.82760000  0.77270000  0.01210000  1
  O  O167  1  0.85800000  0.89630000  0.97180000  1
  O  O168  1  0.87950000  0.41160000  0.39630000  1
  O  O169  1  0.89040000  0.17820000  0.82140000  1
  O  O170  1  0.94890000  0.02010000  0.88040000  1
  O  O171  1  0.95830000  0.10460000  0.06200000  1
  O  O172  1  0.96410000  0.70790000  0.12950000  1
  O  O173  1  0.97510000  0.93520000  0.20260000  1
  O  O174  1  0.97680000  0.22800000  0.01280000  1
