# generated using pymatgen
data_CeH6(C2O)6
_symmetry_space_group_name_H-M   'P 1'
_cell_length_a   14.10510000
_cell_length_b   15.33650000
_cell_length_c   17.81620000
_cell_angle_alpha   89.98500000
_cell_angle_beta   86.89000000
_cell_angle_gamma   89.74700000
_symmetry_Int_Tables_number   1
_chemical_formula_structural   CeH6(C2O)6
_chemical_formula_sum   'Ce10 H60 C120 O60'
_cell_volume   3848.33774565
_cell_formula_units_Z   10
loop_
 _symmetry_equiv_pos_site_id
 _symmetry_equiv_pos_as_xyz
  1  'x, y, z'
loop_
 _atom_site_type_symbol
 _atom_site_label
 _atom_site_symmetry_multiplicity
 _atom_site_fract_x
 _atom_site_fract_y
 _atom_site_fract_z
 _atom_site_occupancy
  Ce  Ce0  1  0.12908000  0.15794000  0.74768000  1
  Ce  Ce1  1  0.14472000  0.65862000  0.23740000  1
  Ce  Ce2  1  0.25934000  0.92473000  0.73800000  1
  Ce  Ce3  1  0.30642000  0.42660000  0.27629000  1
  Ce  Ce4  1  0.48346000  0.75024000  0.74697000  1
  Ce  Ce5  1  0.51654000  0.24976000  0.25303000  1
  Ce  Ce6  1  0.69358000  0.57340000  0.72371000  1
  Ce  Ce7  1  0.74066000  0.07527000  0.26200000  1
  Ce  Ce8  1  0.85528000  0.34138000  0.76260000  1
  Ce  Ce9  1  0.87092000  0.84206000  0.25232000  1
  H  H10  1  0.00400000  0.42390000  0.61370000  1
  H  H11  1  0.00550000  0.54080000  0.91560000  1
  H  H12  1  0.01180000  0.51670000  0.72750000  1
  H  H13  1  0.01960000  0.12600000  0.06810000  1
  H  H14  1  0.03180000  0.03270000  0.23260000  1
  H  H15  1  0.04590000  0.96270000  0.38050000  1
  H  H16  1  0.06090000  0.60770000  0.01680000  1
  H  H17  1  0.06660000  0.66270000  0.72150000  1
  H  H18  1  0.08710000  0.17310000  0.24340000  1
  H  H19  1  0.11250000  0.09980000  0.96010000  1
  H  H20  1  0.12770000  0.41000000  0.51970000  1
  H  H21  1  0.14770000  0.93760000  0.47170000  1
  H  H22  1  0.18280000  0.25440000  0.96100000  1
  H  H23  1  0.23480000  0.33250000  0.06810000  1
  H  H24  1  0.27640000  0.43540000  0.74790000  1
  H  H25  1  0.30120000  0.94340000  0.24070000  1
  H  H26  1  0.33080000  0.58050000  0.74990000  1
  H  H27  1  0.33750000  0.99850000  0.98810000  1
  H  H28  1  0.35230000  0.08800000  0.23430000  1
  H  H29  1  0.35460000  0.24900000  0.63570000  1
  H  H30  1  0.35710000  0.98690000  0.56150000  1
  H  H31  1  0.36320000  0.53340000  0.56950000  1
  H  H32  1  0.36460000  0.42650000  0.47400000  1
  H  H33  1  0.36580000  0.76400000  0.23960000  1
  H  H34  1  0.37170000  0.07140000  0.45780000  1
  H  H35  1  0.39920000  0.06110000  0.09290000  1
  H  H36  1  0.40560000  0.54350000  0.10530000  1
  H  H37  1  0.40750000  0.62370000  0.99530000  1
  H  H38  1  0.45350000  0.36650000  0.64120000  1
  H  H39  1  0.46200000  0.88850000  0.24410000  1
  H  H40  1  0.53800000  0.11150000  0.75590000  1
  H  H41  1  0.54650000  0.63350000  0.35880000  1
  H  H42  1  0.59250000  0.37630000  0.00470000  1
  H  H43  1  0.59440000  0.45650000  0.89470000  1
  H  H44  1  0.60080000  0.93890000  0.90710000  1
  H  H45  1  0.62830000  0.92860000  0.54220000  1
  H  H46  1  0.63420000  0.23600000  0.76040000  1
  H  H47  1  0.63540000  0.57350000  0.52600000  1
  H  H48  1  0.63680000  0.46660000  0.43050000  1
  H  H49  1  0.64290000  0.01310000  0.43850000  1
  H  H50  1  0.64540000  0.75100000  0.36430000  1
  H  H51  1  0.64770000  0.91200000  0.76570000  1
  H  H52  1  0.66250000  0.00150000  0.01190000  1
  H  H53  1  0.66920000  0.41950000  0.25010000  1
  H  H54  1  0.69880000  0.05660000  0.75930000  1
  H  H55  1  0.72360000  0.56460000  0.25210000  1
  H  H56  1  0.76520000  0.66750000  0.93190000  1
  H  H57  1  0.81720000  0.74560000  0.03900000  1
  H  H58  1  0.85230000  0.06240000  0.52830000  1
  H  H59  1  0.87230000  0.59000000  0.48030000  1
  H  H60  1  0.88750000  0.90020000  0.03990000  1
  H  H61  1  0.91290000  0.82690000  0.75660000  1
  H  H62  1  0.93340000  0.33730000  0.27850000  1
  H  H63  1  0.93910000  0.39230000  0.98320000  1
  H  H64  1  0.95410000  0.03730000  0.61950000  1
  H  H65  1  0.96820000  0.96730000  0.76740000  1
  H  H66  1  0.98040000  0.87400000  0.93190000  1
  H  H67  1  0.98820000  0.48330000  0.27250000  1
  H  H68  1  0.99450000  0.45920000  0.08440000  1
  H  H69  1  0.99600000  0.57610000  0.38630000  1
  C  C70  1  0.00090000  0.62200000  0.00100000  1
  C  C71  1  0.00210000  0.45410000  0.56860000  1
  C  C72  1  0.01140000  0.07520000  0.04080000  1
  C  C73  1  0.01660000  0.27160000  0.89240000  1
  C  C74  1  0.02640000  0.97730000  0.42960000  1
  C  C75  1  0.03420000  0.42100000  0.05730000  1
  C  C76  1  0.05150000  0.31550000  0.96360000  1
  C  C77  1  0.05730000  0.98550000  0.93500000  1
  C  C78  1  0.06680000  0.98760000  0.55770000  1
  C  C79  1  0.06710000  0.05900000  0.97600000  1
  C  C80  1  0.07230000  0.49240000  0.44600000  1
  C  C81  1  0.07580000  0.52890000  0.73180000  1
  C  C82  1  0.07610000  0.44640000  0.51210000  1
  C  C83  1  0.08930000  0.96350000  0.48420000  1
  C  C84  1  0.09640000  0.04270000  0.23570000  1
  C  C85  1  0.09860000  0.37210000  0.73500000  1
  C  C86  1  0.10850000  0.61730000  0.73010000  1
  C  C87  1  0.11830000  0.96820000  0.86380000  1
  C  C88  1  0.12160000  0.41080000  0.07830000  1
  C  C89  1  0.12700000  0.87270000  0.24100000  1
  C  C90  1  0.12930000  0.12630000  0.24040000  1
  C  C91  1  0.13340000  0.97690000  0.61830000  1
  C  C92  1  0.13820000  0.46430000  0.73950000  1
  C  C93  1  0.14470000  0.29630000  0.98560000  1
  C  C94  1  0.15440000  0.47560000  0.38510000  1
  C  C95  1  0.16080000  0.97120000  0.23560000  1
  C  C96  1  0.16520000  0.46260000  0.13800000  1
  C  C97  1  0.17680000  0.34500000  0.04830000  1
  C  C98  1  0.20030000  0.63400000  0.74120000  1
  C  C99  1  0.22750000  0.14040000  0.24070000  1
  C  C100  1  0.23270000  0.72780000  0.73510000  1
  C  C101  1  0.23350000  0.48140000  0.74490000  1
  C  C102  1  0.25740000  0.98870000  0.23830000  1
  C  C103  1  0.26400000  0.23740000  0.24710000  1
  C  C104  1  0.26670000  0.56820000  0.74610000  1
  C  C105  1  0.28760000  0.07610000  0.23730000  1
  C  C106  1  0.37140000  0.09480000  0.70950000  1
  C  C107  1  0.38710000  0.61000000  0.29650000  1
  C  C108  1  0.40280000  0.99810000  0.99270000  1
  C  C109  1  0.40910000  0.24590000  0.66280000  1
  C  C110  1  0.41640000  0.99130000  0.53650000  1
  C  C111  1  0.41910000  0.52060000  0.54150000  1
  C  C112  1  0.42060000  0.45530000  0.48370000  1
  C  C113  1  0.42120000  0.91570000  0.87170000  1
  C  C114  1  0.42210000  0.76170000  0.26430000  1
  C  C115  1  0.42490000  0.04290000  0.47470000  1
  C  C116  1  0.43110000  0.17210000  0.70140000  1
  C  C117  1  0.44040000  0.03750000  0.05570000  1
  C  C118  1  0.44200000  0.52550000  0.06300000  1
  C  C119  1  0.44600000  0.57450000  0.99770000  1
  C  C120  1  0.44700000  0.68660000  0.29950000  1
  C  C121  1  0.46200000  0.95790000  0.93640000  1
  C  C122  1  0.47000000  0.31520000  0.66510000  1
  C  C123  1  0.48070000  0.83600000  0.26500000  1
  C  C124  1  0.48340000  0.88350000  0.62750000  1
  C  C125  1  0.48820000  0.94690000  0.56330000  1
  C  C126  1  0.49580000  0.44640000  0.06330000  1
  C  C127  1  0.49660000  0.62640000  0.61930000  1
  C  C128  1  0.49730000  0.43540000  0.44520000  1
  C  C129  1  0.49770000  0.38970000  0.13180000  1
  C  C130  1  0.50230000  0.61030000  0.86820000  1
  C  C131  1  0.50270000  0.56460000  0.55480000  1
  C  C132  1  0.50340000  0.37360000  0.38070000  1
  C  C133  1  0.50420000  0.55360000  0.93670000  1
  C  C134  1  0.51180000  0.05310000  0.43670000  1
  C  C135  1  0.51660000  0.11650000  0.37250000  1
  C  C136  1  0.51930000  0.16400000  0.73500000  1
  C  C137  1  0.53000000  0.68480000  0.33490000  1
  C  C138  1  0.53800000  0.04210000  0.06360000  1
  C  C139  1  0.55300000  0.31340000  0.70050000  1
  C  C140  1  0.55400000  0.42550000  0.00230000  1
  C  C141  1  0.55800000  0.47450000  0.93700000  1
  C  C142  1  0.55960000  0.96250000  0.94430000  1
  C  C143  1  0.56890000  0.82790000  0.29860000  1
  C  C144  1  0.57510000  0.95710000  0.52530000  1
  C  C145  1  0.57790000  0.23830000  0.73570000  1
  C  C146  1  0.57880000  0.08430000  0.12830000  1
  C  C147  1  0.57940000  0.54470000  0.51630000  1
  C  C148  1  0.58090000  0.47940000  0.45850000  1
  C  C149  1  0.58360000  0.00870000  0.46350000  1
  C  C150  1  0.59090000  0.75410000  0.33720000  1
  C  C151  1  0.59720000  0.00190000  0.00730000  1
  C  C152  1  0.61290000  0.39000000  0.70350000  1
  C  C153  1  0.62860000  0.90520000  0.29050000  1
  C  C154  1  0.71240000  0.92390000  0.76270000  1
  C  C155  1  0.73330000  0.43180000  0.25390000  1
  C  C156  1  0.73600000  0.76260000  0.75290000  1
  C  C157  1  0.74260000  0.01130000  0.76170000  1
  C  C158  1  0.76650000  0.51860000  0.25510000  1
  C  C159  1  0.76730000  0.27220000  0.26490000  1
  C  C160  1  0.77250000  0.85960000  0.75930000  1
  C  C161  1  0.79970000  0.36600000  0.25880000  1
  C  C162  1  0.82320000  0.65500000  0.95170000  1
  C  C163  1  0.83480000  0.53740000  0.86200000  1
  C  C164  1  0.83920000  0.02880000  0.76440000  1
  C  C165  1  0.84560000  0.52440000  0.61490000  1
  C  C166  1  0.85530000  0.70370000  0.01440000  1
  C  C167  1  0.86180000  0.53570000  0.26050000  1
  C  C168  1  0.86660000  0.02310000  0.38170000  1
  C  C169  1  0.87070000  0.87370000  0.75960000  1
  C  C170  1  0.87300000  0.12730000  0.75900000  1
  C  C171  1  0.87840000  0.58920000  0.92170000  1
  C  C172  1  0.88170000  0.03180000  0.13620000  1
  C  C173  1  0.89150000  0.38270000  0.26990000  1
  C  C174  1  0.90140000  0.62790000  0.26500000  1
  C  C175  1  0.90360000  0.95730000  0.76430000  1
  C  C176  1  0.91070000  0.03650000  0.51580000  1
  C  C177  1  0.92390000  0.55360000  0.48790000  1
  C  C178  1  0.92420000  0.47110000  0.26820000  1
  C  C179  1  0.92770000  0.50760000  0.55400000  1
  C  C180  1  0.93290000  0.94100000  0.02400000  1
  C  C181  1  0.93320000  0.01240000  0.44230000  1
  C  C182  1  0.94270000  0.01450000  0.06500000  1
  C  C183  1  0.94850000  0.68450000  0.03640000  1
  C  C184  1  0.96580000  0.57900000  0.94270000  1
  C  C185  1  0.97360000  0.02270000  0.57040000  1
  C  C186  1  0.98340000  0.72840000  0.10760000  1
  C  C187  1  0.98860000  0.92480000  0.95920000  1
  C  C188  1  0.99790000  0.54590000  0.43140000  1
  C  C189  1  0.99910000  0.37800000  0.99900000  1
  O  O190  1  0.00710000  0.35180000  0.73400000  1
  O  O191  1  0.03220000  0.85900000  0.24700000  1
  O  O192  1  0.06130000  0.70540000  0.12780000  1
  O  O193  1  0.06710000  0.21230000  0.86620000  1
  O  O194  1  0.11310000  0.00470000  0.68330000  1
  O  O195  1  0.11430000  0.52820000  0.16340000  1
  O  O196  1  0.12710000  0.89220000  0.83960000  1
  O  O197  1  0.15060000  0.51230000  0.32150000  1
  O  O198  1  0.16290000  0.03260000  0.82820000  1
  O  O199  1  0.16530000  0.31560000  0.73430000  1
  O  O200  1  0.18020000  0.78310000  0.70870000  1
  O  O201  1  0.18770000  0.81680000  0.23530000  1
  O  O202  1  0.20300000  0.29310000  0.27620000  1
  O  O203  1  0.20690000  0.92890000  0.60170000  1
  O  O204  1  0.22170000  0.43190000  0.40300000  1
  O  O205  1  0.24600000  0.44420000  0.15720000  1
  O  O206  1  0.28190000  0.09930000  0.68760000  1
  O  O207  1  0.30780000  0.61370000  0.26600000  1
  O  O208  1  0.32320000  0.75130000  0.75770000  1
  O  O209  1  0.33520000  0.91990000  0.86180000  1
  O  O210  1  0.35730000  0.25300000  0.23710000  1
  O  O211  1  0.40110000  0.02880000  0.74080000  1
  O  O212  1  0.40180000  0.86690000  0.66270000  1
  O  O213  1  0.41420000  0.54020000  0.32370000  1
  O  O214  1  0.42090000  0.66060000  0.64160000  1
  O  O215  1  0.42630000  0.35070000  0.35170000  1
  O  O216  1  0.44640000  0.15100000  0.35100000  1
  O  O217  1  0.45660000  0.41360000  0.19580000  1
  O  O218  1  0.46360000  0.68290000  0.87420000  1
  O  O219  1  0.47420000  0.87640000  0.82940000  1
  O  O220  1  0.52580000  0.12360000  0.17060000  1
  O  O221  1  0.53640000  0.31710000  0.12580000  1
  O  O222  1  0.54340000  0.58640000  0.80420000  1
  O  O223  1  0.55360000  0.84900000  0.64900000  1
  O  O224  1  0.57370000  0.64930000  0.64830000  1
  O  O225  1  0.57910000  0.33940000  0.35840000  1
  O  O226  1  0.58580000  0.45980000  0.67630000  1
  O  O227  1  0.59820000  0.13310000  0.33730000  1
  O  O228  1  0.59890000  0.97120000  0.25920000  1
  O  O229  1  0.64270000  0.74700000  0.76290000  1
  O  O230  1  0.66480000  0.08010000  0.13820000  1
  O  O231  1  0.67680000  0.24870000  0.24230000  1
  O  O232  1  0.69220000  0.38630000  0.73400000  1
  O  O233  1  0.71810000  0.90070000  0.31240000  1
  O  O234  1  0.75400000  0.55580000  0.84280000  1
  O  O235  1  0.77830000  0.56810000  0.59700000  1
  O  O236  1  0.79310000  0.07110000  0.39830000  1
  O  O237  1  0.79700000  0.70690000  0.72380000  1
  O  O238  1  0.81230000  0.18320000  0.76470000  1
  O  O239  1  0.81980000  0.21690000  0.29130000  1
  O  O240  1  0.83470000  0.68440000  0.26570000  1
  O  O241  1  0.83710000  0.96740000  0.17180000  1
  O  O242  1  0.84940000  0.48770000  0.67850000  1
  O  O243  1  0.87290000  0.10780000  0.16040000  1
  O  O244  1  0.88570000  0.47180000  0.83660000  1
  O  O245  1  0.88690000  0.99530000  0.31670000  1
  O  O246  1  0.93290000  0.78770000  0.13380000  1
  O  O247  1  0.93870000  0.29460000  0.87220000  1
  O  O248  1  0.96780000  0.14100000  0.75300000  1
  O  O249  1  0.99290000  0.64820000  0.26600000  1
