# generated using pymatgen
data_NiH3(CO2)3
_symmetry_space_group_name_H-M   'P 1'
_cell_length_a   7.62250000
_cell_length_b   7.78140000
_cell_length_c   12.72800000
_cell_angle_alpha   90.00000000
_cell_angle_beta   90.00000000
_cell_angle_gamma   90.00000000
_symmetry_Int_Tables_number   1
_chemical_formula_structural   NiH3(CO2)3
_chemical_formula_sum   'Ni4 H12 C12 O24'
_cell_volume   754.94504725
_cell_formula_units_Z   4
loop_
 _symmetry_equiv_pos_site_id
 _symmetry_equiv_pos_as_xyz
  1  'x, y, z'
loop_
 _atom_site_type_symbol
 _atom_site_label
 _atom_site_symmetry_multiplicity
 _atom_site_fract_x
 _atom_site_fract_y
 _atom_site_fract_z
 _atom_site_occupancy
  Ni  Ni0  1  0.04104000  0.00751000  0.91895000  1
  Ni  Ni1  1  0.45896000  0.99249000  0.41895000  1
  Ni  Ni2  1  0.54104000  0.49249000  0.08105000  1
  Ni  Ni3  1  0.95896000  0.50751000  0.58105000  1
  H  H4  1  0.06040000  0.30360000  0.76760000  1
  H  H5  1  0.14430000  0.20050000  0.46920000  1
  H  H6  1  0.24440000  0.27870000  0.02180000  1
  H  H7  1  0.25560000  0.72130000  0.52180000  1
  H  H8  1  0.35570000  0.79950000  0.96920000  1
  H  H9  1  0.43960000  0.69640000  0.26760000  1
  H  H10  1  0.56040000  0.19640000  0.23240000  1
  H  H11  1  0.64430000  0.29950000  0.53080000  1
  H  H12  1  0.74440000  0.22130000  0.97820000  1
  H  H13  1  0.75560000  0.77870000  0.47820000  1
  H  H14  1  0.85570000  0.70050000  0.03080000  1
  H  H15  1  0.93960000  0.80360000  0.73240000  1
  C  C16  1  0.05350000  0.76460000  0.74310000  1
  C  C17  1  0.18290000  0.74220000  0.46450000  1
  C  C18  1  0.22050000  0.23020000  0.52330000  1
  C  C19  1  0.27950000  0.76980000  0.02330000  1
  C  C20  1  0.31710000  0.25780000  0.96450000  1
  C  C21  1  0.44650000  0.23540000  0.24310000  1
  C  C22  1  0.55350000  0.73540000  0.25690000  1
  C  C23  1  0.68290000  0.75780000  0.53550000  1
  C  C24  1  0.72050000  0.26980000  0.47670000  1
  C  C25  1  0.77950000  0.73020000  0.97670000  1
  C  C26  1  0.81710000  0.24220000  0.03550000  1
  C  C27  1  0.94650000  0.26460000  0.75690000  1
  O  O28  1  0.04310000  0.66130000  0.46014000  1
  O  O29  1  0.10530000  0.63950000  0.69037000  1
  O  O30  1  0.14700000  0.84130000  0.80999000  1
  O  O31  1  0.14870000  0.86330000  0.03855000  1
  O  O32  1  0.18550000  0.36180000  0.57638000  1
  O  O33  1  0.23490000  0.85090000  0.39765000  1
  O  O34  1  0.26510000  0.14910000  0.89765000  1
  O  O35  1  0.31450000  0.63820000  0.07638000  1
  O  O36  1  0.35130000  0.13670000  0.53855000  1
  O  O37  1  0.35300000  0.15870000  0.30999000  1
  O  O38  1  0.39470000  0.36050000  0.19037000  1
  O  O39  1  0.45690000  0.33870000  0.96014000  1
  O  O40  1  0.54310000  0.83870000  0.53986000  1
  O  O41  1  0.60530000  0.86050000  0.30963000  1
  O  O42  1  0.64700000  0.65870000  0.19001000  1
  O  O43  1  0.64870000  0.63670000  0.96145000  1
  O  O44  1  0.68550000  0.13820000  0.42362000  1
  O  O45  1  0.73490000  0.64910000  0.60235000  1
  O  O46  1  0.76510000  0.35090000  0.10235000  1
  O  O47  1  0.81450000  0.86180000  0.92362000  1
  O  O48  1  0.85130000  0.36330000  0.46145000  1
  O  O49  1  0.85300000  0.34130000  0.69001000  1
  O  O50  1  0.89470000  0.13950000  0.80963000  1
  O  O51  1  0.95690000  0.16130000  0.03986000  1
