# generated using pymatgen
data_ErH3(C3O2)3
_symmetry_space_group_name_H-M   'P 1'
_cell_length_a   10.26700000
_cell_length_b   10.26700000
_cell_length_c   14.46200000
_cell_angle_alpha   90.00000000
_cell_angle_beta   90.00000000
_cell_angle_gamma   90.00000000
_symmetry_Int_Tables_number   1
_chemical_formula_structural   ErH3(C3O2)3
_chemical_formula_sum   'Er4 H12 C36 O24'
_cell_volume   1524.45806152
_cell_formula_units_Z   4
loop_
 _symmetry_equiv_pos_site_id
 _symmetry_equiv_pos_as_xyz
  1  'x, y, z'
loop_
 _atom_site_type_symbol
 _atom_site_label
 _atom_site_symmetry_multiplicity
 _atom_site_fract_x
 _atom_site_fract_y
 _atom_site_fract_z
 _atom_site_occupancy
  Er  Er0  1  0.14741000  0.14741000  0.37500000  1
  Er  Er1  1  0.14741000  0.85258000  0.12500000  1
  Er  Er2  1  0.85258000  0.14741000  0.62500000  1
  Er  Er3  1  0.85258000  0.85258000  0.87500000  1
  H  H4  1  0.00000000  0.10250000  0.00000000  1
  H  H5  1  0.00000000  0.89750000  0.50000000  1
  H  H6  1  0.07460000  0.44180000  0.12860000  1
  H  H7  1  0.07460000  0.55820000  0.37140000  1
  H  H8  1  0.10250000  0.00000000  0.75000000  1
  H  H9  1  0.44180000  0.07460000  0.62140000  1
  H  H10  1  0.44180000  0.92540000  0.87860000  1
  H  H11  1  0.55820000  0.07460000  0.37860000  1
  H  H12  1  0.55820000  0.92540000  0.12140000  1
  H  H13  1  0.89750000  0.00000000  0.25000000  1
  H  H14  1  0.92540000  0.44180000  0.87140000  1
  H  H15  1  0.92540000  0.55820000  0.62860000  1
  C  C16  1  0.00000000  0.19300000  0.00000000  1
  C  C17  1  0.00000000  0.38940000  0.50000000  1
  C  C18  1  0.00000000  0.46510000  0.00000000  1
  C  C19  1  0.00000000  0.53490000  0.50000000  1
  C  C20  1  0.00000000  0.61060000  0.00000000  1
  C  C21  1  0.00000000  0.80700000  0.50000000  1
  C  C22  1  0.04380000  0.26080000  0.07730000  1
  C  C23  1  0.04380000  0.73920000  0.42270000  1
  C  C24  1  0.04440000  0.39670000  0.07710000  1
  C  C25  1  0.04440000  0.60330000  0.42290000  1
  C  C26  1  0.08680000  0.18400000  0.16050000  1
  C  C27  1  0.08680000  0.81600000  0.33950000  1
  C  C28  1  0.18400000  0.08680000  0.58950000  1
  C  C29  1  0.18400000  0.91320000  0.91050000  1
  C  C30  1  0.19300000  0.00000000  0.75000000  1
  C  C31  1  0.26080000  0.04380000  0.67270000  1
  C  C32  1  0.26080000  0.95620000  0.82730000  1
  C  C33  1  0.38940000  0.00000000  0.25000000  1
  C  C34  1  0.39670000  0.04440000  0.67290000  1
  C  C35  1  0.39670000  0.95560000  0.82710000  1
  C  C36  1  0.46510000  0.00000000  0.75000000  1
  C  C37  1  0.53490000  0.00000000  0.25000000  1
  C  C38  1  0.60330000  0.04440000  0.32710000  1
  C  C39  1  0.60330000  0.95560000  0.17290000  1
  C  C40  1  0.61060000  0.00000000  0.75000000  1
  C  C41  1  0.73920000  0.04380000  0.32730000  1
  C  C42  1  0.73920000  0.95620000  0.17270000  1
  C  C43  1  0.80700000  0.00000000  0.25000000  1
  C  C44  1  0.81600000  0.08680000  0.41050000  1
  C  C45  1  0.81600000  0.91320000  0.08950000  1
  C  C46  1  0.91320000  0.18400000  0.83950000  1
  C  C47  1  0.91320000  0.81600000  0.66050000  1
  C  C48  1  0.95560000  0.39670000  0.92290000  1
  C  C49  1  0.95560000  0.60330000  0.57710000  1
  C  C50  1  0.95620000  0.26080000  0.92270000  1
  C  C51  1  0.95620000  0.73920000  0.57730000  1
  O  O52  1  0.06800000  0.11160000  0.59960000  1
  O  O53  1  0.06800000  0.88840000  0.90040000  1
  O  O54  1  0.07190000  0.33470000  0.44175000  1
  O  O55  1  0.07190000  0.66530000  0.05825000  1
  O  O56  1  0.09430000  0.24140000  0.23714000  1
  O  O57  1  0.09430000  0.75860000  0.26286000  1
  O  O58  1  0.11160000  0.06800000  0.15040000  1
  O  O59  1  0.11160000  0.93200000  0.34960000  1
  O  O60  1  0.24140000  0.09430000  0.51286000  1
  O  O61  1  0.24140000  0.90570000  0.98714000  1
  O  O62  1  0.33470000  0.07190000  0.30825000  1
  O  O63  1  0.33470000  0.92810000  0.19175000  1
  O  O64  1  0.66530000  0.07190000  0.69175000  1
  O  O65  1  0.66530000  0.92810000  0.80825000  1
  O  O66  1  0.75860000  0.09430000  0.48714000  1
  O  O67  1  0.75860000  0.90570000  0.01286000  1
  O  O68  1  0.88840000  0.06800000  0.84960000  1
  O  O69  1  0.88840000  0.93200000  0.65040000  1
  O  O70  1  0.90570000  0.24140000  0.76286000  1
  O  O71  1  0.90570000  0.75860000  0.73714000  1
  O  O72  1  0.92810000  0.33470000  0.55825000  1
  O  O73  1  0.92810000  0.66530000  0.94175000  1
  O  O74  1  0.93200000  0.11160000  0.40040000  1
  O  O75  1  0.93200000  0.88840000  0.09960000  1
