# generated using pymatgen
data_CoH2(CO2)2
_symmetry_space_group_name_H-M   'P 1'
_cell_length_a   9.83210000
_cell_length_b   11.25390000
_cell_length_c   14.42250000
_cell_angle_alpha   91.19300000
_cell_angle_beta   90.00000000
_cell_angle_gamma   90.00000000
_symmetry_Int_Tables_number   1
_chemical_formula_structural   CoH2(CO2)2
_chemical_formula_sum   'Co12 H24 C24 O48'
_cell_volume   1595.49606051
_cell_formula_units_Z   12
loop_
 _symmetry_equiv_pos_site_id
 _symmetry_equiv_pos_as_xyz
  1  'x, y, z'
loop_
 _atom_site_type_symbol
 _atom_site_label
 _atom_site_symmetry_multiplicity
 _atom_site_fract_x
 _atom_site_fract_y
 _atom_site_fract_z
 _atom_site_occupancy
  Co  Co0  1  0.00000000  0.00000000  0.00000000  1
  Co  Co1  1  0.00000000  0.50000000  0.00000000  1
  Co  Co2  1  0.07944000  0.24486000  0.86693000  1
  Co  Co3  1  0.11028000  0.74021000  0.31090000  1
  Co  Co4  1  0.38972000  0.24021000  0.81090000  1
  Co  Co5  1  0.42056000  0.74486000  0.36693000  1
  Co  Co6  1  0.50000000  0.00000000  0.50000000  1
  Co  Co7  1  0.50000000  0.50000000  0.50000000  1
  Co  Co8  1  0.57944000  0.25514000  0.63307000  1
  Co  Co9  1  0.61028000  0.75979000  0.18910000  1
  Co  Co10  1  0.88972000  0.25979000  0.68910000  1
  Co  Co11  1  0.92056000  0.75514000  0.13307000  1
  H  H12  1  0.03800000  0.47500000  0.26100000  1
  H  H13  1  0.12100000  0.94500000  0.46400000  1
  H  H14  1  0.15800000  0.70100000  0.92900000  1
  H  H15  1  0.19800000  0.98400000  0.23300000  1
  H  H16  1  0.21200000  0.50900000  0.49100000  1
  H  H17  1  0.24200000  0.13900000  0.63100000  1
  H  H18  1  0.25800000  0.63900000  0.13100000  1
  H  H19  1  0.28800000  0.00900000  0.99100000  1
  H  H20  1  0.30200000  0.48400000  0.73300000  1
  H  H21  1  0.34200000  0.20100000  0.42900000  1
  H  H22  1  0.37900000  0.44500000  0.96400000  1
  H  H23  1  0.46200000  0.97500000  0.76100000  1
  H  H24  1  0.53800000  0.02500000  0.23900000  1
  H  H25  1  0.62100000  0.55500000  0.03600000  1
  H  H26  1  0.65800000  0.79900000  0.57100000  1
  H  H27  1  0.69800000  0.51600000  0.26700000  1
  H  H28  1  0.71200000  0.99100000  0.00900000  1
  H  H29  1  0.74200000  0.36100000  0.86900000  1
  H  H30  1  0.75800000  0.86100000  0.36900000  1
  H  H31  1  0.78800000  0.49100000  0.50900000  1
  H  H32  1  0.80200000  0.01600000  0.76700000  1
  H  H33  1  0.84200000  0.29900000  0.07100000  1
  H  H34  1  0.87900000  0.05500000  0.53600000  1
  H  H35  1  0.96200000  0.52500000  0.73900000  1
  C  C36  1  0.01350000  0.51700000  0.21200000  1
  C  C37  1  0.10690000  0.74350000  0.96990000  1
  C  C38  1  0.12860000  0.95520000  0.18740000  1
  C  C39  1  0.17160000  0.16920000  0.66990000  1
  C  C40  1  0.21190000  0.92420000  0.45280000  1
  C  C41  1  0.22120000  0.57200000  0.45050000  1
  C  C42  1  0.27880000  0.07200000  0.95050000  1
  C  C43  1  0.28810000  0.42420000  0.95280000  1
  C  C44  1  0.32840000  0.66920000  0.16990000  1
  C  C45  1  0.37140000  0.45520000  0.68740000  1
  C  C46  1  0.39310000  0.24350000  0.46990000  1
  C  C47  1  0.48650000  0.01700000  0.71200000  1
  C  C48  1  0.51350000  0.98300000  0.28800000  1
  C  C49  1  0.60690000  0.75650000  0.53010000  1
  C  C50  1  0.62860000  0.54480000  0.31260000  1
  C  C51  1  0.67160000  0.33080000  0.83010000  1
  C  C52  1  0.71190000  0.57580000  0.04720000  1
  C  C53  1  0.72120000  0.92800000  0.04950000  1
  C  C54  1  0.77880000  0.42800000  0.54950000  1
  C  C55  1  0.78810000  0.07580000  0.54720000  1
  C  C56  1  0.82840000  0.83080000  0.33010000  1
  C  C57  1  0.87140000  0.04480000  0.81260000  1
  C  C58  1  0.89310000  0.25650000  0.03010000  1
  C  C59  1  0.98650000  0.48300000  0.78800000  1
  O  O60  1  0.00440000  0.54303000  0.85953000  1
  O  O61  1  0.00485000  0.62874000  0.21954000  1
  O  O62  1  0.02740000  0.68453000  0.02343000  1
  O  O63  1  0.06030000  0.18383000  0.63173000  1
  O  O64  1  0.08356000  0.85032000  0.19522000  1
  O  O65  1  0.10430000  0.02333000  0.12383000  1
  O  O66  1  0.11530000  0.85115000  0.96665000  1
  O  O67  1  0.12208000  0.61331000  0.40961000  1
  O  O68  1  0.15480000  0.10274000  0.93994000  1
  O  O69  1  0.19983000  0.19133000  0.75453000  1
  O  O70  1  0.20890000  0.48218000  0.00228000  1
  O  O71  1  0.24287000  0.84700000  0.39150000  1
  O  O72  1  0.25713000  0.34700000  0.89150000  1
  O  O73  1  0.29110000  0.98218000  0.50228000  1
  O  O74  1  0.30017000  0.69133000  0.25453000  1
  O  O75  1  0.34520000  0.60274000  0.43994000  1
  O  O76  1  0.37792000  0.11331000  0.90961000  1
  O  O77  1  0.38470000  0.35115000  0.46665000  1
  O  O78  1  0.39570000  0.52333000  0.62383000  1
  O  O79  1  0.41644000  0.35032000  0.69522000  1
  O  O80  1  0.43970000  0.68383000  0.13173000  1
  O  O81  1  0.47260000  0.18453000  0.52343000  1
  O  O82  1  0.49515000  0.12874000  0.71954000  1
  O  O83  1  0.49560000  0.04303000  0.35953000  1
  O  O84  1  0.50440000  0.95697000  0.64047000  1
  O  O85  1  0.50485000  0.87126000  0.28046000  1
  O  O86  1  0.52740000  0.81547000  0.47657000  1
  O  O87  1  0.56030000  0.31617000  0.86827000  1
  O  O88  1  0.58356000  0.64968000  0.30478000  1
  O  O89  1  0.60430000  0.47667000  0.37617000  1
  O  O90  1  0.61530000  0.64885000  0.53335000  1
  O  O91  1  0.62208000  0.88669000  0.09039000  1
  O  O92  1  0.65480000  0.39726000  0.56006000  1
  O  O93  1  0.69983000  0.30867000  0.74547000  1
  O  O94  1  0.70890000  0.01782000  0.49772000  1
  O  O95  1  0.74287000  0.65300000  0.10850000  1
  O  O96  1  0.75713000  0.15300000  0.60850000  1
  O  O97  1  0.79110000  0.51782000  0.99772000  1
  O  O98  1  0.80017000  0.80867000  0.24547000  1
  O  O99  1  0.84520000  0.89726000  0.06006000  1
  O  O100  1  0.87792000  0.38669000  0.59039000  1
  O  O101  1  0.88470000  0.14885000  0.03335000  1
  O  O102  1  0.89570000  0.97667000  0.87617000  1
  O  O103  1  0.91644000  0.14968000  0.80478000  1
  O  O104  1  0.93970000  0.81617000  0.36827000  1
  O  O105  1  0.97260000  0.31547000  0.97657000  1
  O  O106  1  0.99515000  0.37126000  0.78046000  1
  O  O107  1  0.99560000  0.45697000  0.14047000  1
