# generated using pymatgen
data_La2C12S3(NO2)6
_symmetry_space_group_name_H-M   'P 1'
_cell_length_a   7.04040000
_cell_length_b   13.00150000
_cell_length_c   13.73380000
_cell_angle_alpha   90.00000000
_cell_angle_beta   100.88100000
_cell_angle_gamma   90.00000000
_symmetry_Int_Tables_number   1
_chemical_formula_structural   La2C12S3(NO2)6
_chemical_formula_sum   'La4 C24 S6 N12 O24'
_cell_volume   1234.53227883
_cell_formula_units_Z   2
loop_
 _symmetry_equiv_pos_site_id
 _symmetry_equiv_pos_as_xyz
  1  'x, y, z'
loop_
 _atom_site_type_symbol
 _atom_site_label
 _atom_site_symmetry_multiplicity
 _atom_site_fract_x
 _atom_site_fract_y
 _atom_site_fract_z
 _atom_site_occupancy
  La  La0  1  0.20765000  0.53844000  0.04226000  1
  La  La1  1  0.41322000  0.46409000  0.55926000  1
  La  La2  1  0.58678000  0.96409000  0.44074000  1
  La  La3  1  0.79235000  0.03844000  0.95774000  1
  C  C4  1  0.04340000  0.28790000  0.99680000  1
  C  C5  1  0.05200000  0.50960000  0.77520000  1
  C  C6  1  0.07900000  0.93110000  0.40760000  1
  C  C7  1  0.09060000  0.98610000  0.31100000  1
  C  C8  1  0.25580000  0.26500000  0.00750000  1
  C  C9  1  0.26720000  0.49710000  0.79930000  1
  C  C10  1  0.29040000  0.07960000  0.92780000  1
  C  C11  1  0.32140000  0.51700000  0.29670000  1
  C  C12  1  0.35780000  0.17910000  0.98170000  1
  C  C13  1  0.37240000  0.63040000  0.28860000  1
  C  C14  1  0.44130000  0.19870000  0.53420000  1
  C  C15  1  0.45930000  0.70510000  0.35820000  1
  C  C16  1  0.54070000  0.20510000  0.64180000  1
  C  C17  1  0.55870000  0.69870000  0.46580000  1
  C  C18  1  0.62760000  0.13040000  0.71140000  1
  C  C19  1  0.64220000  0.67910000  0.01830000  1
  C  C20  1  0.67860000  0.01700000  0.70330000  1
  C  C21  1  0.70960000  0.57960000  0.07220000  1
  C  C22  1  0.73280000  0.99710000  0.20070000  1
  C  C23  1  0.74420000  0.76500000  0.99250000  1
  C  C24  1  0.90940000  0.48610000  0.68900000  1
  C  C25  1  0.92100000  0.43110000  0.59240000  1
  C  C26  1  0.94800000  0.00960000  0.22480000  1
  C  C27  1  0.95660000  0.78790000  0.00320000  1
  S  S28  1  0.25810000  0.05736000  0.18774000  1
  S  S29  1  0.36790000  0.79124000  0.20186000  1
  S  S30  1  0.40470000  0.80682000  0.95077000  1
  S  S31  1  0.59530000  0.30682000  0.04923000  1
  S  S32  1  0.63210000  0.29124000  0.79814000  1
  S  S33  1  0.74190000  0.55736000  0.81226000  1
  N  N34  1  0.02580000  0.04980000  0.15070000  1
  N  N35  1  0.26900000  0.01000000  0.29870000  1
  N  N36  1  0.31510000  0.66910000  0.19890000  1
  N  N37  1  0.37160000  0.34010000  0.04400000  1
  N  N38  1  0.45200000  0.69200000  0.99670000  1
  N  N39  1  0.46350000  0.79790000  0.31660000  1
  N  N40  1  0.53650000  0.29790000  0.68340000  1
  N  N41  1  0.54800000  0.19200000  0.00330000  1
  N  N42  1  0.62840000  0.84010000  0.95600000  1
  N  N43  1  0.68490000  0.16910000  0.80110000  1
  N  N44  1  0.73100000  0.51000000  0.70130000  1
  N  N45  1  0.97420000  0.54980000  0.84930000  1
  O  O46  1  0.00040000  0.38250000  0.99240000  1
  O  O47  1  0.07290000  0.71710000  0.00460000  1
  O  O48  1  0.07840000  0.40910000  0.57310000  1
  O  O49  1  0.11430000  0.05900000  0.90880000  1
  O  O50  1  0.24230000  0.91240000  0.46070000  1
  O  O51  1  0.26650000  0.47200000  0.21660000  1
  O  O52  1  0.32700000  0.47940000  0.38030000  1
  O  O53  1  0.34170000  0.49540000  0.88840000  1
  O  O54  1  0.35890000  0.49330000  0.73050000  1
  O  O55  1  0.38250000  0.28290000  0.49410000  1
  O  O56  1  0.41300000  0.11270000  0.49330000  1
  O  O57  1  0.42110000  0.02530000  0.90280000  1
  O  O58  1  0.57890000  0.52530000  0.09720000  1
  O  O59  1  0.58700000  0.61270000  0.50670000  1
  O  O60  1  0.61750000  0.78290000  0.50590000  1
  O  O61  1  0.64110000  0.99330000  0.26950000  1
  O  O62  1  0.65830000  0.99540000  0.11160000  1
  O  O63  1  0.67300000  0.97940000  0.61970000  1
  O  O64  1  0.73350000  0.97200000  0.78340000  1
  O  O65  1  0.75770000  0.41240000  0.53930000  1
  O  O66  1  0.88570000  0.55900000  0.09120000  1
  O  O67  1  0.92160000  0.90910000  0.42690000  1
  O  O68  1  0.92710000  0.21710000  0.99540000  1
  O  O69  1  0.99960000  0.88250000  0.00760000  1
