# generated using pymatgen
data_ZnMo3H5C9O8
_symmetry_space_group_name_H-M   'P 1'
_cell_length_a   42.37289096
_cell_length_b   42.37289096
_cell_length_c   42.37289096
_cell_angle_alpha   109.47122063
_cell_angle_beta   109.47122063
_cell_angle_gamma   109.47122063
_symmetry_Int_Tables_number   1
_chemical_formula_structural   ZnMo3H5C9O8
_chemical_formula_sum   'Zn48 Mo144 H240 C432 O384'
_cell_volume   58565.57283738
_cell_formula_units_Z   48
loop_
 _symmetry_equiv_pos_site_id
 _symmetry_equiv_pos_as_xyz
  1  'x, y, z'
loop_
 _atom_site_type_symbol
 _atom_site_label
 _atom_site_symmetry_multiplicity
 _atom_site_fract_x
 _atom_site_fract_y
 _atom_site_fract_z
 _atom_site_occupancy
  C  C0  1  0.04040000  0.47380000  0.51360000  1
  C  C1  1  0.46020000  0.97380000  0.43340000  1
  C  C2  1  0.54040000  0.52680000  0.06660000  1
  C  C3  1  0.96020000  0.02680000  0.98640000  1
  C  C4  1  0.02090000  0.95980000  0.97450000  1
  C  C5  1  0.48530000  0.45980000  0.93890000  1
  C  C6  1  0.52090000  0.04640000  0.56110000  1
  C  C7  1  0.98530000  0.54640000  0.52550000  1
  C  C8  1  0.01280000  0.40990000  0.41570000  1
  C  C9  1  0.49420000  0.90990000  0.39710000  1
  C  C10  1  0.51280000  0.59710000  0.10290000  1
  C  C11  1  0.99420000  0.09710000  0.08430000  1
  C  C12  1  0.12330000  0.02860000  0.13930000  1
  C  C13  1  0.38930000  0.52860000  0.90530000  1
  C  C14  1  0.62330000  0.98400000  0.59470000  1
  C  C15  1  0.88930000  0.48400000  0.36070000  1
  C  C16  1  0.10290000  0.01280000  0.09710000  1
  C  C17  1  0.14660000  0.07610000  0.20410000  1
  C  C18  1  0.37200000  0.57610000  0.92950000  1
  C  C19  1  0.41570000  0.51280000  0.90990000  1
  C  C20  1  0.60290000  0.00580000  0.59010000  1
  C  C21  1  0.64660000  0.94250000  0.57050000  1
  C  C22  1  0.87200000  0.44250000  0.29590000  1
  C  C23  1  0.91570000  0.50580000  0.40290000  1
  C  C24  1  0.12580000  0.05940000  0.16200000  1
  C  C25  1  0.39740000  0.55940000  0.93360000  1
  C  C26  1  0.62580000  0.96380000  0.56640000  1
  C  C27  1  0.89740000  0.46380000  0.33800000  1
  C  C28  1  0.02860000  0.44550000  0.44670000  1
  C  C29  1  0.49880000  0.94550000  0.41690000  1
  C  C30  1  0.52860000  0.58190000  0.08310000  1
  C  C31  1  0.99880000  0.08190000  0.05330000  1
  C  C32  1  0.08310000  0.02860000  0.08190000  1
  C  C33  1  0.44670000  0.52860000  0.94550000  1
  C  C34  1  0.58310000  0.00120000  0.55450000  1
  C  C35  1  0.94670000  0.50120000  0.41810000  1
  C  C36  1  0.10710000  0.07570000  0.14800000  1
  C  C37  1  0.42770000  0.57570000  0.96860000  1
  C  C38  1  0.60710000  0.95910000  0.53140000  1
  C  C39  1  0.92770000  0.45910000  0.35200000  1
  C  C40  1  0.06110000  0.01470000  0.04020000  1
  C  C41  1  0.47450000  0.51470000  0.95360000  1
  C  C42  1  0.56110000  0.02090000  0.54640000  1
  C  C43  1  0.97450000  0.52090000  0.45980000  1
  C  C44  1  0.08410000  0.06100000  0.10690000  1
  C  C45  1  0.45410000  0.56100000  0.97690000  1
  C  C46  1  0.58410000  0.97720000  0.52310000  1
  C  C47  1  0.95410000  0.47720000  0.39310000  1
  C  C48  1  0.02860000  0.40530000  0.38930000  1
  C  C49  1  0.51600000  0.90530000  0.37670000  1
  C  C50  1  0.52860000  0.63930000  0.12330000  1
  C  C51  1  0.01600000  0.13930000  0.11070000  1
  C  C52  1  0.02680000  0.56660000  0.54040000  1
  C  C53  1  0.52620000  0.06660000  0.53980000  1
  C  C54  1  0.52680000  0.48640000  0.96020000  1
  C  C55  1  0.02620000  0.98640000  0.95960000  1
  C  C56  1  0.06660000  0.04040000  0.02680000  1
  C  C57  1  0.51360000  0.54040000  0.97380000  1
  C  C58  1  0.56660000  0.03980000  0.52620000  1
  C  C59  1  0.01360000  0.53980000  0.47320000  1
  C  C60  1  0.06100000  0.47690000  0.45410000  1
  C  C61  1  0.52280000  0.97690000  0.41590000  1
  C  C62  1  0.56100000  0.60690000  0.08410000  1
  C  C63  1  0.02280000  0.10690000  0.04590000  1
  C  C64  1  0.04640000  0.02550000  0.98530000  1
  C  C65  1  0.54020000  0.52550000  0.97910000  1
  C  C66  1  0.54640000  0.06110000  0.52090000  1
  C  C67  1  0.04020000  0.56110000  0.51470000  1
  C  C68  1  0.05940000  0.43360000  0.39740000  1
  C  C69  1  0.53620000  0.93360000  0.37420000  1
  C  C70  1  0.55940000  0.66200000  0.12580000  1
  C  C71  1  0.03620000  0.16200000  0.10260000  1
  C  C72  1  0.07570000  0.46860000  0.42770000  1
  C  C73  1  0.54090000  0.96860000  0.39290000  1
  C  C74  1  0.57570000  0.64800000  0.10710000  1
  C  C75  1  0.04090000  0.14800000  0.07230000  1
  C  C76  1  0.10690000  0.58410000  0.56100000  1
  C  C77  1  0.52310000  0.08410000  0.47720000  1
  C  C78  1  0.60690000  0.54590000  0.02280000  1
  C  C79  1  0.02310000  0.04590000  0.93900000  1
  C  C80  1  0.07610000  0.42950000  0.37200000  1
  C  C81  1  0.55750000  0.92950000  0.35340000  1
  C  C82  1  0.57610000  0.70410000  0.14660000  1
  C  C83  1  0.05750000  0.20410000  0.12800000  1
  C  C84  1  0.08190000  0.58310000  0.52860000  1
  C  C85  1  0.55450000  0.08310000  0.50120000  1
  C  C86  1  0.58190000  0.55330000  0.99880000  1
  C  C87  1  0.05450000  0.05330000  0.97140000  1
  C  C88  1  0.14800000  0.60710000  0.57570000  1
  C  C89  1  0.53140000  0.10710000  0.45910000  1
  C  C90  1  0.64800000  0.57230000  0.04090000  1
  C  C91  1  0.03140000  0.07230000  0.92430000  1
  C  C92  1  0.09710000  0.60290000  0.51280000  1
  C  C93  1  0.59010000  0.10290000  0.50580000  1
  C  C94  1  0.59710000  0.58430000  0.99420000  1
  C  C95  1  0.09010000  0.08430000  0.98720000  1
  C  C96  1  0.35340000  0.79590000  0.92390000  1
  C  C97  1  0.37200000  0.29590000  0.44250000  1
  C  C98  1  0.85340000  0.42950000  0.05750000  1
  C  C99  1  0.87200000  0.92950000  0.57610000  1
  C  C100  1  0.16200000  0.62580000  0.55940000  1
  C  C101  1  0.56640000  0.12580000  0.46380000  1
  C  C102  1  0.66200000  0.60260000  0.03620000  1
  C  C103  1  0.06640000  0.10260000  0.94060000  1
  C  C104  1  0.13930000  0.62330000  0.52860000  1
  C  C105  1  0.59470000  0.12330000  0.48400000  1
  C  C106  1  0.63930000  0.61070000  0.01600000  1
  C  C107  1  0.09470000  0.11070000  0.97140000  1
  C  C108  1  0.37670000  0.86070000  0.97140000  1
  C  C109  1  0.38930000  0.36070000  0.48400000  1
  C  C110  1  0.87670000  0.40530000  0.01600000  1
  C  C111  1  0.88930000  0.90530000  0.52860000  1
  C  C112  1  0.37420000  0.83800000  0.94060000  1
  C  C113  1  0.39740000  0.33800000  0.46380000  1
  C  C114  1  0.87420000  0.43360000  0.03620000  1
  C  C115  1  0.89740000  0.93360000  0.55940000  1
  C  C116  1  0.20410000  0.64660000  0.57610000  1
  C  C117  1  0.57050000  0.14660000  0.44250000  1
  C  C118  1  0.70410000  0.62800000  0.05750000  1
  C  C119  1  0.07050000  0.12800000  0.92390000  1
  C  C120  1  0.39710000  0.90290000  0.98720000  1
  C  C121  1  0.41570000  0.40290000  0.50580000  1
  C  C122  1  0.89710000  0.40990000  0.99420000  1
  C  C123  1  0.91570000  0.90990000  0.51280000  1
  C  C124  1  0.39290000  0.85200000  0.92430000  1
  C  C125  1  0.42770000  0.35200000  0.45910000  1
  C  C126  1  0.89290000  0.46860000  0.04090000  1
  C  C127  1  0.92770000  0.96860000  0.57570000  1
  C  C128  1  0.41690000  0.91810000  0.97140000  1
  C  C129  1  0.44670000  0.41810000  0.50120000  1
  C  C130  1  0.91690000  0.44550000  0.99880000  1
  C  C131  1  0.94670000  0.94550000  0.52860000  1
  C  C132  1  0.29590000  0.42390000  0.35340000  1
  C  C133  1  0.57050000  0.92390000  0.12800000  1
  C  C134  1  0.79590000  0.94250000  0.37200000  1
  C  C135  1  0.07050000  0.44250000  0.14660000  1
  C  C136  1  0.41590000  0.89310000  0.93900000  1
  C  C137  1  0.45410000  0.39310000  0.47720000  1
  C  C138  1  0.91590000  0.47690000  0.02280000  1
  C  C139  1  0.95410000  0.97690000  0.56100000  1
  C  C140  1  0.35200000  0.42430000  0.39290000  1
  C  C141  1  0.53140000  0.92430000  0.07230000  1
  C  C142  1  0.85200000  0.95910000  0.42770000  1
  C  C143  1  0.03140000  0.45910000  0.10710000  1
  C  C144  1  0.33800000  0.44060000  0.37420000  1
  C  C145  1  0.56640000  0.94060000  0.10260000  1
  C  C146  1  0.83800000  0.96380000  0.39740000  1
  C  C147  1  0.06640000  0.46380000  0.12580000  1
  C  C148  1  0.43890000  0.95980000  0.98530000  1
  C  C149  1  0.47450000  0.45980000  0.52090000  1
  C  C150  1  0.93890000  0.45360000  0.97910000  1
  C  C151  1  0.97450000  0.95360000  0.51470000  1
  C  C152  1  0.39310000  0.43900000  0.41590000  1
  C  C153  1  0.52310000  0.93900000  0.04590000  1
  C  C154  1  0.89310000  0.97720000  0.45410000  1
  C  C155  1  0.02310000  0.47720000  0.08410000  1
  C  C156  1  0.45960000  0.48640000  0.52620000  1
  C  C157  1  0.46020000  0.98640000  0.02680000  1
  C  C158  1  0.95960000  0.93340000  0.47320000  1
  C  C159  1  0.96020000  0.43340000  0.97380000  1
  C  C160  1  0.43340000  0.97320000  0.95960000  1
  C  C161  1  0.51360000  0.47320000  0.53980000  1
  C  C162  1  0.93340000  0.47380000  0.96020000  1
  C  C163  1  0.01360000  0.97380000  0.54040000  1
  C  C164  1  0.36070000  0.47140000  0.37670000  1
  C  C165  1  0.59470000  0.97140000  0.11070000  1
  C  C166  1  0.86070000  0.98400000  0.38930000  1
  C  C167  1  0.09470000  0.48400000  0.12330000  1
  C  C168  1  0.43900000  0.54590000  0.52310000  1
  C  C169  1  0.52280000  0.04590000  0.10690000  1
  C  C170  1  0.93900000  0.91590000  0.39310000  1
  C  C171  1  0.02280000  0.41590000  0.97690000  1
  C  C172  1  0.47910000  0.02550000  0.04020000  1
  C  C173  1  0.48530000  0.52550000  0.54640000  1
  C  C174  1  0.97910000  0.43890000  0.95360000  1
  C  C175  1  0.98530000  0.93890000  0.45980000  1
  C  C176  1  0.42430000  0.57230000  0.53140000  1
  C  C177  1  0.54090000  0.07230000  0.14800000  1
  C  C178  1  0.92430000  0.89290000  0.35200000  1
  C  C179  1  0.04090000  0.39290000  0.96860000  1
  C  C180  1  0.47140000  0.55330000  0.55450000  1
  C  C181  1  0.49880000  0.05330000  0.08190000  1
  C  C182  1  0.97140000  0.91690000  0.41810000  1
  C  C183  1  0.99880000  0.41690000  0.94550000  1
  C  C184  1  0.41810000  0.47140000  0.41690000  1
  C  C185  1  0.55450000  0.97140000  0.05330000  1
  C  C186  1  0.91810000  0.00120000  0.44670000  1
  C  C187  1  0.05450000  0.50120000  0.08310000  1
  C  C188  1  0.44060000  0.60260000  0.56640000  1
  C  C189  1  0.53620000  0.10260000  0.16200000  1
  C  C190  1  0.94060000  0.87420000  0.33800000  1
  C  C191  1  0.03620000  0.37420000  0.93360000  1
  C  C192  1  0.42390000  0.62800000  0.57050000  1
  C  C193  1  0.48720000  0.58430000  0.59010000  1
  C  C194  1  0.49420000  0.08430000  0.09710000  1
  C  C195  1  0.55750000  0.12800000  0.20410000  1
  C  C196  1  0.92390000  0.85340000  0.29590000  1
  C  C197  1  0.98720000  0.89710000  0.40290000  1
  C  C198  1  0.99420000  0.39710000  0.90990000  1
  C  C199  1  0.05750000  0.35340000  0.92950000  1
  C  C200  1  0.47140000  0.61070000  0.59470000  1
  C  C201  1  0.51600000  0.11070000  0.13930000  1
  C  C202  1  0.97140000  0.87670000  0.36070000  1
  C  C203  1  0.01600000  0.37670000  0.90530000  1
  C  C204  1  0.40290000  0.48720000  0.39710000  1
  C  C205  1  0.59010000  0.98720000  0.08430000  1
  C  C206  1  0.90290000  0.00580000  0.41570000  1
  C  C207  1  0.09010000  0.50580000  0.10290000  1
  C  C208  1  0.45360000  0.01470000  0.97450000  1
  C  C209  1  0.54020000  0.51470000  0.56110000  1
  C  C210  1  0.95360000  0.47910000  0.93890000  1
  C  C211  1  0.04020000  0.97910000  0.52550000  1
  C  C212  1  0.47320000  0.45960000  0.43340000  1
  C  C213  1  0.52620000  0.95960000  0.98640000  1
  C  C214  1  0.97320000  0.03980000  0.51360000  1
  C  C215  1  0.02620000  0.53980000  0.06660000  1
  C  C216  1  0.47380000  0.04040000  0.01360000  1
  C  C217  1  0.52680000  0.54040000  0.56660000  1
  C  C218  1  0.97380000  0.46020000  0.93340000  1
  C  C219  1  0.02680000  0.96020000  0.48640000  1
  C  C220  1  0.45980000  0.48530000  0.43890000  1
  C  C221  1  0.54640000  0.98530000  0.02550000  1
  C  C222  1  0.95980000  0.02090000  0.47450000  1
  C  C223  1  0.04640000  0.52090000  0.06110000  1
  C  C224  1  0.40990000  0.01280000  0.91570000  1
  C  C225  1  0.59710000  0.51280000  0.60290000  1
  C  C226  1  0.90990000  0.49420000  0.89710000  1
  C  C227  1  0.09710000  0.99420000  0.58430000  1
  C  C228  1  0.48400000  0.88930000  0.86070000  1
  C  C229  1  0.52860000  0.38930000  0.40530000  1
  C  C230  1  0.98400000  0.62330000  0.09470000  1
  C  C231  1  0.02860000  0.12330000  0.63930000  1
  C  C232  1  0.44250000  0.87200000  0.79590000  1
  C  C233  1  0.50580000  0.91570000  0.90290000  1
  C  C234  1  0.51280000  0.41570000  0.40990000  1
  C  C235  1  0.57610000  0.37200000  0.42950000  1
  C  C236  1  0.94250000  0.64660000  0.07050000  1
  C  C237  1  0.00580000  0.60290000  0.09010000  1
  C  C238  1  0.01280000  0.10290000  0.59710000  1
  C  C239  1  0.07610000  0.14660000  0.70410000  1
  C  C240  1  0.46380000  0.89740000  0.83800000  1
  C  C241  1  0.55940000  0.39740000  0.43360000  1
  C  C242  1  0.96380000  0.62580000  0.06640000  1
  C  C243  1  0.05940000  0.12580000  0.66200000  1
  C  C244  1  0.44550000  0.02860000  0.94670000  1
  C  C245  1  0.58190000  0.52860000  0.58310000  1
  C  C246  1  0.94550000  0.49880000  0.91690000  1
  C  C247  1  0.08190000  0.99880000  0.55330000  1
  C  C248  1  0.50120000  0.94670000  0.91810000  1
  C  C249  1  0.52860000  0.44670000  0.44550000  1
  C  C250  1  0.00120000  0.58310000  0.05450000  1
  C  C251  1  0.02860000  0.08310000  0.58190000  1
  C  C252  1  0.45910000  0.92770000  0.85200000  1
  C  C253  1  0.57570000  0.42770000  0.46860000  1
  C  C254  1  0.95910000  0.60710000  0.03140000  1
  C  C255  1  0.07570000  0.10710000  0.64800000  1
  C  C256  1  0.51470000  0.47450000  0.45360000  1
  C  C257  1  0.52090000  0.97450000  0.95980000  1
  C  C258  1  0.01470000  0.06110000  0.54020000  1
  C  C259  1  0.02090000  0.56110000  0.04640000  1
  C  C260  1  0.47720000  0.95410000  0.89310000  1
  C  C261  1  0.56100000  0.45410000  0.47690000  1
  C  C262  1  0.97720000  0.58410000  0.02310000  1
  C  C263  1  0.06100000  0.08410000  0.60690000  1
  C  C264  1  0.40530000  0.02860000  0.88930000  1
  C  C265  1  0.63930000  0.52860000  0.62330000  1
  C  C266  1  0.90530000  0.51600000  0.87670000  1
  C  C267  1  0.13930000  0.01600000  0.61070000  1
  C  C268  1  0.48640000  0.52680000  0.46020000  1
  C  C269  1  0.56660000  0.02680000  0.04040000  1
  C  C270  1  0.98640000  0.02620000  0.45960000  1
  C  C271  1  0.06660000  0.52620000  0.03980000  1
  C  C272  1  0.53980000  0.01360000  0.97320000  1
  C  C273  1  0.54040000  0.51360000  0.47380000  1
  C  C274  1  0.03980000  0.56660000  0.02620000  1
  C  C275  1  0.04040000  0.06660000  0.52680000  1
  C  C276  1  0.47690000  0.06100000  0.95410000  1
  C  C277  1  0.60690000  0.56100000  0.58410000  1
  C  C278  1  0.97690000  0.52280000  0.91590000  1
  C  C279  1  0.10690000  0.02280000  0.54590000  1
  C  C280  1  0.52550000  0.54020000  0.47910000  1
  C  C281  1  0.56110000  0.04020000  0.01470000  1
  C  C282  1  0.02550000  0.04640000  0.48530000  1
  C  C283  1  0.06110000  0.54640000  0.02090000  1
  C  C284  1  0.43360000  0.05940000  0.89740000  1
  C  C285  1  0.66200000  0.55940000  0.62580000  1
  C  C286  1  0.93360000  0.53620000  0.87420000  1
  C  C287  1  0.16200000  0.03620000  0.60260000  1
  C  C288  1  0.46860000  0.07570000  0.92770000  1
  C  C289  1  0.64800000  0.57570000  0.60710000  1
  C  C290  1  0.96860000  0.54090000  0.89290000  1
  C  C291  1  0.14800000  0.04090000  0.57230000  1
  C  C292  1  0.54590000  0.60690000  0.52280000  1
  C  C293  1  0.58410000  0.10690000  0.06100000  1
  C  C294  1  0.04590000  0.02310000  0.43900000  1
  C  C295  1  0.08410000  0.52310000  0.97720000  1
  C  C296  1  0.42950000  0.07610000  0.87200000  1
  C  C297  1  0.70410000  0.57610000  0.64660000  1
  C  C298  1  0.92950000  0.55750000  0.85340000  1
  C  C299  1  0.20410000  0.05750000  0.62800000  1
  C  C300  1  0.55330000  0.58190000  0.49880000  1
  C  C301  1  0.58310000  0.08190000  0.02860000  1
  C  C302  1  0.05330000  0.05450000  0.47140000  1
  C  C303  1  0.08310000  0.55450000  0.00120000  1
  C  C304  1  0.57230000  0.64800000  0.54090000  1
  C  C305  1  0.60710000  0.14800000  0.07570000  1
  C  C306  1  0.07230000  0.03140000  0.42430000  1
  C  C307  1  0.10710000  0.53140000  0.95910000  1
  C  C308  1  0.58430000  0.59710000  0.49420000  1
  C  C309  1  0.60290000  0.09710000  0.01280000  1
  C  C310  1  0.08430000  0.09010000  0.48720000  1
  C  C311  1  0.10290000  0.59010000  0.00580000  1
  C  C312  1  0.42950000  0.85340000  0.55750000  1
  C  C313  1  0.79590000  0.35340000  0.42390000  1
  C  C314  1  0.92950000  0.87200000  0.07610000  1
  C  C315  1  0.29590000  0.37200000  0.94250000  1
  C  C316  1  0.60260000  0.66200000  0.53620000  1
  C  C317  1  0.62580000  0.16200000  0.05940000  1
  C  C318  1  0.10260000  0.06640000  0.44060000  1
  C  C319  1  0.12580000  0.56640000  0.96380000  1
  C  C320  1  0.61070000  0.63930000  0.51600000  1
  C  C321  1  0.62330000  0.13930000  0.02860000  1
  C  C322  1  0.11070000  0.09470000  0.47140000  1
  C  C323  1  0.12330000  0.59470000  0.98400000  1
  C  C324  1  0.40530000  0.87670000  0.51600000  1
  C  C325  1  0.86070000  0.37670000  0.47140000  1
  C  C326  1  0.90530000  0.88930000  0.02860000  1
  C  C327  1  0.36070000  0.38930000  0.98400000  1
  C  C328  1  0.43360000  0.87420000  0.53620000  1
  C  C329  1  0.83800000  0.37420000  0.44060000  1
  C  C330  1  0.93360000  0.89740000  0.05940000  1
  C  C331  1  0.33800000  0.39740000  0.96380000  1
  C  C332  1  0.62800000  0.70410000  0.55750000  1
  C  C333  1  0.64660000  0.20410000  0.07610000  1
  C  C334  1  0.12800000  0.07050000  0.42390000  1
  C  C335  1  0.14660000  0.57050000  0.94250000  1
  C  C336  1  0.40990000  0.89710000  0.49420000  1
  C  C337  1  0.90290000  0.39710000  0.48720000  1
  C  C338  1  0.90990000  0.91570000  0.01280000  1
  C  C339  1  0.40290000  0.41570000  0.00580000  1
  C  C340  1  0.46860000  0.89290000  0.54090000  1
  C  C341  1  0.85200000  0.39290000  0.42430000  1
  C  C342  1  0.96860000  0.92770000  0.07570000  1
  C  C343  1  0.35200000  0.42770000  0.95910000  1
  C  C344  1  0.44550000  0.91690000  0.49880000  1
  C  C345  1  0.91810000  0.41690000  0.47140000  1
  C  C346  1  0.94550000  0.94670000  0.02860000  1
  C  C347  1  0.41810000  0.44670000  0.00120000  1
  C  C348  1  0.44250000  0.07050000  0.64660000  1
  C  C349  1  0.92390000  0.57050000  0.62800000  1
  C  C350  1  0.94250000  0.79590000  0.87200000  1
  C  C351  1  0.42390000  0.29590000  0.85340000  1
  C  C352  1  0.47690000  0.91590000  0.52280000  1
  C  C353  1  0.89310000  0.41590000  0.43900000  1
  C  C354  1  0.97690000  0.95410000  0.06100000  1
  C  C355  1  0.39310000  0.45410000  0.97720000  1
  C  C356  1  0.45910000  0.03140000  0.60710000  1
  C  C357  1  0.92430000  0.53140000  0.57230000  1
  C  C358  1  0.95910000  0.85200000  0.92770000  1
  C  C359  1  0.42430000  0.35200000  0.89290000  1
  C  C360  1  0.46380000  0.06640000  0.62580000  1
  C  C361  1  0.94060000  0.56640000  0.60260000  1
  C  C362  1  0.96380000  0.83800000  0.89740000  1
  C  C363  1  0.44060000  0.33800000  0.87420000  1
  C  C364  1  0.45980000  0.47450000  0.02090000  1
  C  C365  1  0.95360000  0.97450000  0.01470000  1
  C  C366  1  0.95980000  0.43890000  0.48530000  1
  C  C367  1  0.45360000  0.93890000  0.47910000  1
  C  C368  1  0.47720000  0.02310000  0.58410000  1
  C  C369  1  0.93900000  0.52310000  0.54590000  1
  C  C370  1  0.97720000  0.89310000  0.95410000  1
  C  C371  1  0.43900000  0.39310000  0.91590000  1
  C  C372  1  0.48640000  0.45960000  0.02620000  1
  C  C373  1  0.93340000  0.95960000  0.97320000  1
  C  C374  1  0.98640000  0.46020000  0.52680000  1
  C  C375  1  0.43340000  0.96020000  0.47380000  1
  C  C376  1  0.47380000  0.93340000  0.46020000  1
  C  C377  1  0.97320000  0.43340000  0.45960000  1
  C  C378  1  0.97380000  0.01360000  0.04040000  1
  C  C379  1  0.47320000  0.51360000  0.03980000  1
  C  C380  1  0.48400000  0.09470000  0.62330000  1
  C  C381  1  0.97140000  0.59470000  0.61070000  1
  C  C382  1  0.98400000  0.86070000  0.88930000  1
  C  C383  1  0.47140000  0.36070000  0.87670000  1
  C  C384  1  0.54590000  0.43900000  0.02310000  1
  C  C385  1  0.91590000  0.93900000  0.89310000  1
  C  C386  1  0.04590000  0.52280000  0.60690000  1
  C  C387  1  0.41590000  0.02280000  0.47690000  1
  C  C388  1  0.52550000  0.48530000  0.04640000  1
  C  C389  1  0.93890000  0.98530000  0.95980000  1
  C  C390  1  0.02550000  0.47910000  0.54020000  1
  C  C391  1  0.43890000  0.97910000  0.45360000  1
  C  C392  1  0.57230000  0.42430000  0.03140000  1
  C  C393  1  0.89290000  0.92430000  0.85200000  1
  C  C394  1  0.07230000  0.54090000  0.64800000  1
  C  C395  1  0.39290000  0.04090000  0.46860000  1
  C  C396  1  0.55330000  0.47140000  0.05450000  1
  C  C397  1  0.91690000  0.97140000  0.91810000  1
  C  C398  1  0.05330000  0.49880000  0.58190000  1
  C  C399  1  0.41690000  0.99880000  0.44550000  1
  C  C400  1  0.50120000  0.05450000  0.58310000  1
  C  C401  1  0.97140000  0.55450000  0.55330000  1
  C  C402  1  0.00120000  0.91810000  0.94670000  1
  C  C403  1  0.47140000  0.41810000  0.91690000  1
  C  C404  1  0.60260000  0.44060000  0.06640000  1
  C  C405  1  0.87420000  0.94060000  0.83800000  1
  C  C406  1  0.10260000  0.53620000  0.66200000  1
  C  C407  1  0.37420000  0.03620000  0.43360000  1
  C  C408  1  0.58430000  0.48720000  0.09010000  1
  C  C409  1  0.62800000  0.42390000  0.07050000  1
  C  C410  1  0.85340000  0.92390000  0.79590000  1
  C  C411  1  0.89710000  0.98720000  0.90290000  1
  C  C412  1  0.08430000  0.49420000  0.59710000  1
  C  C413  1  0.12800000  0.55750000  0.70410000  1
  C  C414  1  0.35340000  0.05750000  0.42950000  1
  C  C415  1  0.39710000  0.99420000  0.40990000  1
  C  C416  1  0.61070000  0.47140000  0.09470000  1
  C  C417  1  0.87670000  0.97140000  0.86070000  1
  C  C418  1  0.11070000  0.51600000  0.63930000  1
  C  C419  1  0.37670000  0.01600000  0.40530000  1
  C  C420  1  0.50580000  0.09010000  0.60290000  1
  C  C421  1  0.98720000  0.59010000  0.58430000  1
  C  C422  1  0.00580000  0.90290000  0.91570000  1
  C  C423  1  0.48720000  0.40290000  0.89710000  1
  C  C424  1  0.51470000  0.54020000  0.06110000  1
  C  C425  1  0.97910000  0.04020000  0.02550000  1
  C  C426  1  0.01470000  0.45360000  0.47450000  1
  C  C427  1  0.47910000  0.95360000  0.43890000  1
  C  C428  1  0.53980000  0.02620000  0.56660000  1
  C  C429  1  0.95960000  0.52620000  0.48640000  1
  C  C430  1  0.03980000  0.97320000  0.01360000  1
  C  C431  1  0.45960000  0.47320000  0.93340000  1
  H  H432  1  0.13430000  0.01610000  0.14940000  1
  H  H433  1  0.36670000  0.51610000  0.88180000  1
  H  H434  1  0.63430000  0.98490000  0.61820000  1
  H  H435  1  0.86670000  0.48490000  0.35060000  1
  H  H436  1  0.10340000  0.99200000  0.08080000  1
  H  H437  1  0.41120000  0.49200000  0.88860000  1
  H  H438  1  0.60340000  0.02260000  0.61140000  1
  H  H439  1  0.91120000  0.52260000  0.41920000  1
  H  H440  1  0.06680000  0.48400000  0.52280000  1
  H  H441  1  0.46120000  0.98400000  0.41720000  1
  H  H442  1  0.56680000  0.54400000  0.08280000  1
  H  H443  1  0.96120000  0.04400000  0.97720000  1
  H  H444  1  0.02260000  0.91920000  0.91120000  1
  H  H445  1  0.50800000  0.41920000  0.89660000  1
  H  H446  1  0.52260000  0.11140000  0.60340000  1
  H  H447  1  0.00800000  0.61140000  0.58880000  1
  H  H448  1  0.01610000  0.38180000  0.36670000  1
  H  H449  1  0.51510000  0.88180000  0.36570000  1
  H  H450  1  0.51610000  0.64940000  0.13430000  1
  H  H451  1  0.01510000  0.14940000  0.13330000  1
  H  H452  1  0.10880000  0.09740000  0.16540000  1
  H  H453  1  0.43200000  0.59740000  0.98860000  1
  H  H454  1  0.60880000  0.94340000  0.51140000  1
  H  H455  1  0.93200000  0.44340000  0.33460000  1
  H  H456  1  0.07100000  0.07250000  0.09770000  1
  H  H457  1  0.47480000  0.57250000  0.00150000  1
  H  H458  1  0.57100000  0.97330000  0.49850000  1
  H  H459  1  0.97480000  0.47330000  0.40230000  1
  H  H460  1  0.04400000  0.58280000  0.56680000  1
  H  H461  1  0.51600000  0.08280000  0.53880000  1
  H  H462  1  0.54400000  0.47720000  0.96120000  1
  H  H463  1  0.01600000  0.97720000  0.93320000  1
  H  H464  1  0.09770000  0.57100000  0.57250000  1
  H  H465  1  0.49850000  0.07100000  0.47330000  1
  H  H466  1  0.59770000  0.52520000  0.02670000  1
  H  H467  1  0.99850000  0.02520000  0.92750000  1
  H  H468  1  0.07250000  0.50150000  0.47480000  1
  H  H469  1  0.52670000  0.00150000  0.42900000  1
  H  H470  1  0.57250000  0.59770000  0.07100000  1
  H  H471  1  0.02670000  0.09770000  0.02520000  1
  H  H472  1  0.08280000  0.06680000  0.04400000  1
  H  H473  1  0.52280000  0.56680000  0.98400000  1
  H  H474  1  0.58280000  0.03880000  0.51600000  1
  H  H475  1  0.02280000  0.53880000  0.45600000  1
  H  H476  1  0.09740000  0.48860000  0.43200000  1
  H  H477  1  0.55660000  0.98860000  0.39120000  1
  H  H478  1  0.59740000  0.66540000  0.10880000  1
  H  H479  1  0.05660000  0.16540000  0.06800000  1
  H  H480  1  0.16540000  0.60880000  0.59740000  1
  H  H481  1  0.51140000  0.10880000  0.44340000  1
  H  H482  1  0.66540000  0.56800000  0.05660000  1
  H  H483  1  0.01140000  0.06800000  0.90260000  1
  H  H484  1  0.11140000  0.08880000  0.00800000  1
  H  H485  1  0.58080000  0.58880000  0.97740000  1
  H  H486  1  0.61140000  0.10340000  0.52260000  1
  H  H487  1  0.08080000  0.60340000  0.49200000  1
  H  H488  1  0.36570000  0.85060000  0.98390000  1
  H  H489  1  0.36670000  0.35060000  0.48490000  1
  H  H490  1  0.86570000  0.38180000  0.01510000  1
  H  H491  1  0.86670000  0.88180000  0.51610000  1
  H  H492  1  0.14940000  0.63430000  0.51610000  1
  H  H493  1  0.61820000  0.13430000  0.48490000  1
  H  H494  1  0.64940000  0.63330000  0.01510000  1
  H  H495  1  0.11820000  0.13330000  0.98390000  1
  H  H496  1  0.39660000  0.91920000  0.00800000  1
  H  H497  1  0.41120000  0.41920000  0.52260000  1
  H  H498  1  0.89660000  0.38860000  0.97740000  1
  H  H499  1  0.91120000  0.88860000  0.49200000  1
  H  H500  1  0.39120000  0.83460000  0.90260000  1
  H  H501  1  0.43200000  0.33460000  0.44340000  1
  H  H502  1  0.89120000  0.48860000  0.05660000  1
  H  H503  1  0.93200000  0.98860000  0.59740000  1
  H  H504  1  0.33460000  0.40260000  0.39120000  1
  H  H505  1  0.51140000  0.90260000  0.06800000  1
  H  H506  1  0.83460000  0.94340000  0.43200000  1
  H  H507  1  0.01140000  0.44340000  0.10880000  1
  H  H508  1  0.43320000  0.47720000  0.51600000  1
  H  H509  1  0.46120000  0.97720000  0.04400000  1
  H  H510  1  0.93320000  0.91720000  0.45600000  1
  H  H511  1  0.96120000  0.41720000  0.98400000  1
  H  H512  1  0.40230000  0.42750000  0.42900000  1
  H  H513  1  0.49850000  0.92750000  0.02520000  1
  H  H514  1  0.90230000  0.97330000  0.47480000  1
  H  H515  1  0.99850000  0.47330000  0.07100000  1
  H  H516  1  0.42900000  0.90230000  0.92750000  1
  H  H517  1  0.47480000  0.40230000  0.47330000  1
  H  H518  1  0.92900000  0.50150000  0.02670000  1
  H  H519  1  0.97480000  0.00150000  0.57250000  1
  H  H520  1  0.41720000  0.95600000  0.93320000  1
  H  H521  1  0.52280000  0.45600000  0.53880000  1
  H  H522  1  0.91720000  0.48400000  0.96120000  1
  H  H523  1  0.02280000  0.98400000  0.56680000  1
  H  H524  1  0.42750000  0.52520000  0.49850000  1
  H  H525  1  0.52670000  0.02520000  0.09770000  1
  H  H526  1  0.92750000  0.92900000  0.40230000  1
  H  H527  1  0.02670000  0.42900000  0.00150000  1
  H  H528  1  0.40260000  0.56800000  0.51140000  1
  H  H529  1  0.55660000  0.06800000  0.16540000  1
  H  H530  1  0.90260000  0.89120000  0.33460000  1
  H  H531  1  0.05660000  0.39120000  0.98860000  1
  H  H532  1  0.35060000  0.48390000  0.36570000  1
  H  H533  1  0.61820000  0.98390000  0.13330000  1
  H  H534  1  0.85060000  0.98490000  0.36670000  1
  H  H535  1  0.11820000  0.48490000  0.13430000  1
  H  H536  1  0.38860000  0.99200000  0.91120000  1
  H  H537  1  0.58080000  0.49200000  0.60340000  1
  H  H538  1  0.88860000  0.47740000  0.89660000  1
  H  H539  1  0.08080000  0.97740000  0.58880000  1
  H  H540  1  0.45600000  0.43320000  0.41720000  1
  H  H541  1  0.51600000  0.93320000  0.97720000  1
  H  H542  1  0.95600000  0.03880000  0.52280000  1
  H  H543  1  0.01600000  0.53880000  0.08280000  1
  H  H544  1  0.47740000  0.08880000  0.08080000  1
  H  H545  1  0.50800000  0.58880000  0.61140000  1
  H  H546  1  0.97740000  0.39660000  0.88860000  1
  H  H547  1  0.00800000  0.89660000  0.41920000  1
  H  H548  1  0.48390000  0.63330000  0.61820000  1
  H  H549  1  0.51510000  0.13330000  0.14940000  1
  H  H550  1  0.98390000  0.86570000  0.35060000  1
  H  H551  1  0.01510000  0.36570000  0.88180000  1
  H  H552  1  0.48490000  0.86670000  0.85060000  1
  H  H553  1  0.51610000  0.36670000  0.38180000  1
  H  H554  1  0.98490000  0.63430000  0.11820000  1
  H  H555  1  0.01610000  0.13430000  0.64940000  1
  H  H556  1  0.49200000  0.41120000  0.38860000  1
  H  H557  1  0.52260000  0.91120000  0.91920000  1
  H  H558  1  0.99200000  0.10340000  0.58080000  1
  H  H559  1  0.02260000  0.60340000  0.11140000  1
  H  H560  1  0.48400000  0.06680000  0.02280000  1
  H  H561  1  0.54400000  0.56680000  0.58280000  1
  H  H562  1  0.98400000  0.46120000  0.91720000  1
  H  H563  1  0.04400000  0.96120000  0.47720000  1
  H  H564  1  0.41920000  0.50800000  0.39660000  1
  H  H565  1  0.61140000  0.00800000  0.08880000  1
  H  H566  1  0.91920000  0.02260000  0.41120000  1
  H  H567  1  0.11140000  0.52260000  0.10340000  1
  H  H568  1  0.38180000  0.01610000  0.86670000  1
  H  H569  1  0.64940000  0.51610000  0.63430000  1
  H  H570  1  0.88180000  0.51510000  0.86570000  1
  H  H571  1  0.14940000  0.01510000  0.63330000  1
  H  H572  1  0.44340000  0.93200000  0.83460000  1
  H  H573  1  0.59740000  0.43200000  0.48860000  1
  H  H574  1  0.94340000  0.60880000  0.01140000  1
  H  H575  1  0.09740000  0.10880000  0.66540000  1
  H  H576  1  0.47330000  0.97480000  0.90230000  1
  H  H577  1  0.57250000  0.47480000  0.50150000  1
  H  H578  1  0.97330000  0.57100000  0.99850000  1
  H  H579  1  0.07250000  0.07100000  0.59770000  1
  H  H580  1  0.47720000  0.54400000  0.46120000  1
  H  H581  1  0.58280000  0.04400000  0.06680000  1
  H  H582  1  0.97720000  0.01600000  0.43320000  1
  H  H583  1  0.08280000  0.51600000  0.03880000  1
  H  H584  1  0.52520000  0.59770000  0.52670000  1
  H  H585  1  0.57100000  0.09770000  0.07250000  1
  H  H586  1  0.02520000  0.99850000  0.42750000  1
  H  H587  1  0.07100000  0.49850000  0.97330000  1
  H  H588  1  0.50150000  0.07250000  0.97480000  1
  H  H589  1  0.59770000  0.57250000  0.57100000  1
  H  H590  1  0.00150000  0.52670000  0.92900000  1
  H  H591  1  0.09770000  0.02670000  0.52520000  1
  H  H592  1  0.53880000  0.02280000  0.95600000  1
  H  H593  1  0.56680000  0.52280000  0.48400000  1
  H  H594  1  0.03880000  0.58280000  0.01600000  1
  H  H595  1  0.06680000  0.08280000  0.54400000  1
  H  H596  1  0.48860000  0.09740000  0.93200000  1
  H  H597  1  0.66540000  0.59740000  0.60880000  1
  H  H598  1  0.98860000  0.55660000  0.89120000  1
  H  H599  1  0.16540000  0.05660000  0.56800000  1
  H  H600  1  0.56800000  0.66540000  0.55660000  1
  H  H601  1  0.60880000  0.16540000  0.09740000  1
  H  H602  1  0.06800000  0.01140000  0.40260000  1
  H  H603  1  0.10880000  0.51140000  0.94340000  1
  H  H604  1  0.58880000  0.58080000  0.47740000  1
  H  H605  1  0.60340000  0.08080000  0.99200000  1
  H  H606  1  0.08880000  0.11140000  0.50800000  1
  H  H607  1  0.10340000  0.61140000  0.02260000  1
  H  H608  1  0.38180000  0.86570000  0.51510000  1
  H  H609  1  0.85060000  0.36570000  0.48390000  1
  H  H610  1  0.88180000  0.86670000  0.01610000  1
  H  H611  1  0.35060000  0.36670000  0.98490000  1
  H  H612  1  0.63330000  0.64940000  0.51510000  1
  H  H613  1  0.63430000  0.14940000  0.01610000  1
  H  H614  1  0.13330000  0.11820000  0.48390000  1
  H  H615  1  0.13430000  0.61820000  0.98490000  1
  H  H616  1  0.41920000  0.41120000  0.02260000  1
  H  H617  1  0.88860000  0.91120000  0.99200000  1
  H  H618  1  0.91920000  0.39660000  0.50800000  1
  H  H619  1  0.38860000  0.89660000  0.47740000  1
  H  H620  1  0.48860000  0.89120000  0.55660000  1
  H  H621  1  0.83460000  0.39120000  0.40260000  1
  H  H622  1  0.98860000  0.93200000  0.09740000  1
  H  H623  1  0.33460000  0.43200000  0.94340000  1
  H  H624  1  0.44340000  0.01140000  0.60880000  1
  H  H625  1  0.90260000  0.51140000  0.56800000  1
  H  H626  1  0.94340000  0.83460000  0.93200000  1
  H  H627  1  0.40260000  0.33460000  0.89120000  1
  H  H628  1  0.47720000  0.43320000  0.01600000  1
  H  H629  1  0.91720000  0.93320000  0.95600000  1
  H  H630  1  0.97720000  0.46120000  0.54400000  1
  H  H631  1  0.41720000  0.96120000  0.48400000  1
  H  H632  1  0.47330000  0.99850000  0.57100000  1
  H  H633  1  0.92750000  0.49850000  0.52520000  1
  H  H634  1  0.97330000  0.90230000  0.97480000  1
  H  H635  1  0.42750000  0.40230000  0.92900000  1
  H  H636  1  0.50150000  0.92900000  0.52670000  1
  H  H637  1  0.90230000  0.42900000  0.42750000  1
  H  H638  1  0.00150000  0.97480000  0.07250000  1
  H  H639  1  0.40230000  0.47480000  0.97330000  1
  H  H640  1  0.48400000  0.91720000  0.46120000  1
  H  H641  1  0.95600000  0.41720000  0.43320000  1
  H  H642  1  0.98400000  0.02280000  0.06680000  1
  H  H643  1  0.45600000  0.52280000  0.03880000  1
  H  H644  1  0.52520000  0.42750000  0.99850000  1
  H  H645  1  0.92900000  0.92750000  0.90230000  1
  H  H646  1  0.02520000  0.52670000  0.59770000  1
  H  H647  1  0.42900000  0.02670000  0.50150000  1
  H  H648  1  0.56800000  0.40260000  0.01140000  1
  H  H649  1  0.89120000  0.90260000  0.83460000  1
  H  H650  1  0.06800000  0.55660000  0.66540000  1
  H  H651  1  0.39120000  0.05660000  0.48860000  1
  H  H652  1  0.48490000  0.11820000  0.63430000  1
  H  H653  1  0.98390000  0.61820000  0.63330000  1
  H  H654  1  0.98490000  0.85060000  0.86670000  1
  H  H655  1  0.48390000  0.35060000  0.86570000  1
  H  H656  1  0.49200000  0.58080000  0.10340000  1
  H  H657  1  0.97740000  0.08080000  0.08880000  1
  H  H658  1  0.99200000  0.38860000  0.41120000  1
  H  H659  1  0.47740000  0.88860000  0.39660000  1
  H  H660  1  0.53880000  0.01600000  0.58280000  1
  H  H661  1  0.93320000  0.51600000  0.47720000  1
  H  H662  1  0.03880000  0.95600000  0.02280000  1
  H  H663  1  0.43320000  0.45600000  0.91720000  1
  H  H664  1  0.58880000  0.50800000  0.11140000  1
  H  H665  1  0.89660000  0.00800000  0.91920000  1
  H  H666  1  0.08880000  0.47740000  0.58080000  1
  H  H667  1  0.39660000  0.97740000  0.38860000  1
  H  H668  1  0.63330000  0.48390000  0.11820000  1
  H  H669  1  0.86570000  0.98390000  0.85060000  1
  H  H670  1  0.13330000  0.51510000  0.64940000  1
  H  H671  1  0.36570000  0.01510000  0.38180000  1
  Mo  Mo672  1  0.21992000  0.19663000  0.41123000  1
  Mo  Mo673  1  0.28540000  0.69663000  0.97671000  1
  Mo  Mo674  1  0.71992000  0.80869000  0.52329000  1
  Mo  Mo675  1  0.78540000  0.30869000  0.08877000  1
  Mo  Mo676  1  0.21433000  0.67354000  0.82617000  1
  Mo  Mo677  1  0.34737000  0.17354000  0.45921000  1
  Mo  Mo678  1  0.71433000  0.38816000  0.04079000  1
  Mo  Mo679  1  0.84737000  0.88816000  0.67383000  1
  Mo  Mo680  1  0.28008000  0.58877000  0.80337000  1
  Mo  Mo681  1  0.28540000  0.08877000  0.30869000  1
  Mo  Mo682  1  0.78008000  0.47671000  0.19131000  1
  Mo  Mo683  1  0.78540000  0.97671000  0.69663000  1
  Mo  Mo684  1  0.23149000  0.18488000  0.33303000  1
  Mo  Mo685  1  0.35185000  0.68488000  0.95339000  1
  Mo  Mo686  1  0.73149000  0.89846000  0.54661000  1
  Mo  Mo687  1  0.85185000  0.39846000  0.16697000  1
  Mo  Mo688  1  0.08877000  0.30337000  0.28008000  1
  Mo  Mo689  1  0.52329000  0.80337000  0.21460000  1
  Mo  Mo690  1  0.58877000  0.80869000  0.28540000  1
  Mo  Mo691  1  0.02329000  0.30869000  0.21992000  1
  Mo  Mo692  1  0.26851000  0.66697000  0.81512000  1
  Mo  Mo693  1  0.35185000  0.16697000  0.39846000  1
  Mo  Mo694  1  0.76851000  0.45339000  0.10154000  1
  Mo  Mo695  1  0.85185000  0.95339000  0.68488000  1
  Mo  Mo696  1  0.28567000  0.17383000  0.32646000  1
  Mo  Mo697  1  0.34737000  0.67383000  0.88816000  1
  Mo  Mo698  1  0.78567000  0.95921000  0.61184000  1
  Mo  Mo699  1  0.84737000  0.45921000  0.17354000  1
  Mo  Mo700  1  0.16697000  0.31512000  0.26851000  1
  Mo  Mo701  1  0.54661000  0.81512000  0.14815000  1
  Mo  Mo702  1  0.66697000  0.89846000  0.35185000  1
  Mo  Mo703  1  0.04661000  0.39846000  0.23149000  1
  Mo  Mo704  1  0.17383000  0.38816000  0.34737000  1
  Mo  Mo705  1  0.54079000  0.88816000  0.21433000  1
  Mo  Mo706  1  0.67383000  0.82646000  0.28567000  1
  Mo  Mo707  1  0.04079000  0.32646000  0.15263000  1
  Mo  Mo708  1  0.17354000  0.32617000  0.21433000  1
  Mo  Mo709  1  0.61184000  0.82617000  0.15263000  1
  Mo  Mo710  1  0.67354000  0.95921000  0.34737000  1
  Mo  Mo711  1  0.11184000  0.45921000  0.28567000  1
  Mo  Mo712  1  0.18488000  0.45339000  0.35185000  1
  Mo  Mo713  1  0.60154000  0.95339000  0.26851000  1
  Mo  Mo714  1  0.68488000  0.83303000  0.23149000  1
  Mo  Mo715  1  0.10154000  0.33303000  0.14815000  1
  Mo  Mo716  1  0.32617000  0.65263000  0.61184000  1
  Mo  Mo717  1  0.54079000  0.15263000  0.32646000  1
  Mo  Mo718  1  0.82617000  0.71433000  0.17354000  1
  Mo  Mo719  1  0.04079000  0.21433000  0.88816000  1
  Mo  Mo720  1  0.33303000  0.73149000  0.68488000  1
  Mo  Mo721  1  0.54661000  0.23149000  0.39846000  1
  Mo  Mo722  1  0.83303000  0.64815000  0.10154000  1
  Mo  Mo723  1  0.04661000  0.14815000  0.81512000  1
  Mo  Mo724  1  0.19663000  0.47671000  0.28540000  1
  Mo  Mo725  1  0.69131000  0.97671000  0.28008000  1
  Mo  Mo726  1  0.69663000  0.91123000  0.21992000  1
  Mo  Mo727  1  0.19131000  0.41123000  0.21460000  1
  Mo  Mo728  1  0.31512000  0.64815000  0.54661000  1
  Mo  Mo729  1  0.60154000  0.14815000  0.33303000  1
  Mo  Mo730  1  0.81512000  0.76851000  0.16697000  1
  Mo  Mo731  1  0.10154000  0.26851000  0.95339000  1
  Mo  Mo732  1  0.41123000  0.71992000  0.69663000  1
  Mo  Mo733  1  0.52329000  0.21992000  0.30869000  1
  Mo  Mo734  1  0.91123000  0.71460000  0.19131000  1
  Mo  Mo735  1  0.02329000  0.21460000  0.80337000  1
  Mo  Mo736  1  0.32646000  0.78567000  0.67383000  1
  Mo  Mo737  1  0.61184000  0.28567000  0.45921000  1
  Mo  Mo738  1  0.82646000  0.65263000  0.04079000  1
  Mo  Mo739  1  0.11184000  0.15263000  0.82617000  1
  Mo  Mo740  1  0.30337000  0.71460000  0.52329000  1
  Mo  Mo741  1  0.69131000  0.21460000  0.41123000  1
  Mo  Mo742  1  0.80337000  0.78008000  0.08877000  1
  Mo  Mo743  1  0.19131000  0.28008000  0.97671000  1
  Mo  Mo744  1  0.30869000  0.78540000  0.58877000  1
  Mo  Mo745  1  0.69663000  0.28540000  0.47671000  1
  Mo  Mo746  1  0.80869000  0.71992000  0.02329000  1
  Mo  Mo747  1  0.19663000  0.21992000  0.91123000  1
  Mo  Mo748  1  0.38816000  0.71433000  0.54079000  1
  Mo  Mo749  1  0.67354000  0.21433000  0.32617000  1
  Mo  Mo750  1  0.88816000  0.84737000  0.17383000  1
  Mo  Mo751  1  0.17354000  0.34737000  0.95921000  1
  Mo  Mo752  1  0.47671000  0.78008000  0.69131000  1
  Mo  Mo753  1  0.58877000  0.28008000  0.30337000  1
  Mo  Mo754  1  0.97671000  0.78540000  0.19663000  1
  Mo  Mo755  1  0.08877000  0.28540000  0.80869000  1
  Mo  Mo756  1  0.39846000  0.85185000  0.66697000  1
  Mo  Mo757  1  0.68488000  0.35185000  0.45339000  1
  Mo  Mo758  1  0.89846000  0.73149000  0.04661000  1
  Mo  Mo759  1  0.18488000  0.23149000  0.83303000  1
  Mo  Mo760  1  0.30869000  0.02329000  0.71992000  1
  Mo  Mo761  1  0.80337000  0.52329000  0.71460000  1
  Mo  Mo762  1  0.80869000  0.58877000  0.78540000  1
  Mo  Mo763  1  0.30337000  0.08877000  0.78008000  1
  Mo  Mo764  1  0.45339000  0.76851000  0.60154000  1
  Mo  Mo765  1  0.66697000  0.26851000  0.31512000  1
  Mo  Mo766  1  0.95339000  0.85185000  0.18488000  1
  Mo  Mo767  1  0.16697000  0.35185000  0.89846000  1
  Mo  Mo768  1  0.45921000  0.84737000  0.67354000  1
  Mo  Mo769  1  0.67383000  0.34737000  0.38816000  1
  Mo  Mo770  1  0.95921000  0.78567000  0.11184000  1
  Mo  Mo771  1  0.17383000  0.28567000  0.82646000  1
  Mo  Mo772  1  0.39846000  0.04661000  0.73149000  1
  Mo  Mo773  1  0.81512000  0.54661000  0.64815000  1
  Mo  Mo774  1  0.89846000  0.66697000  0.85185000  1
  Mo  Mo775  1  0.31512000  0.16697000  0.76851000  1
  Mo  Mo776  1  0.38816000  0.17383000  0.84737000  1
  Mo  Mo777  1  0.82646000  0.67383000  0.78567000  1
  Mo  Mo778  1  0.88816000  0.54079000  0.71433000  1
  Mo  Mo779  1  0.32646000  0.04079000  0.65263000  1
  Mo  Mo780  1  0.45921000  0.11184000  0.78567000  1
  Mo  Mo781  1  0.82617000  0.61184000  0.65263000  1
  Mo  Mo782  1  0.95921000  0.67354000  0.84737000  1
  Mo  Mo783  1  0.32617000  0.17354000  0.71433000  1
  Mo  Mo784  1  0.45339000  0.18488000  0.85185000  1
  Mo  Mo785  1  0.83303000  0.68488000  0.73149000  1
  Mo  Mo786  1  0.95339000  0.60154000  0.76851000  1
  Mo  Mo787  1  0.33303000  0.10154000  0.64815000  1
  Mo  Mo788  1  0.65263000  0.32617000  0.11184000  1
  Mo  Mo789  1  0.71433000  0.82617000  0.67354000  1
  Mo  Mo790  1  0.15263000  0.54079000  0.82646000  1
  Mo  Mo791  1  0.21433000  0.04079000  0.38816000  1
  Mo  Mo792  1  0.64815000  0.83303000  0.60154000  1
  Mo  Mo793  1  0.73149000  0.33303000  0.18488000  1
  Mo  Mo794  1  0.14815000  0.04661000  0.31512000  1
  Mo  Mo795  1  0.23149000  0.54661000  0.89846000  1
  Mo  Mo796  1  0.47671000  0.19663000  0.78540000  1
  Mo  Mo797  1  0.91123000  0.69663000  0.71992000  1
  Mo  Mo798  1  0.97671000  0.69131000  0.78008000  1
  Mo  Mo799  1  0.41123000  0.19131000  0.71460000  1
  Mo  Mo800  1  0.64815000  0.31512000  0.04661000  1
  Mo  Mo801  1  0.76851000  0.81512000  0.66697000  1
  Mo  Mo802  1  0.14815000  0.60154000  0.83303000  1
  Mo  Mo803  1  0.26851000  0.10154000  0.45339000  1
  Mo  Mo804  1  0.71460000  0.91123000  0.69131000  1
  Mo  Mo805  1  0.71992000  0.41123000  0.19663000  1
  Mo  Mo806  1  0.21460000  0.02329000  0.30337000  1
  Mo  Mo807  1  0.21992000  0.52329000  0.80869000  1
  Mo  Mo808  1  0.65263000  0.82646000  0.54079000  1
  Mo  Mo809  1  0.78567000  0.32646000  0.17383000  1
  Mo  Mo810  1  0.15263000  0.11184000  0.32617000  1
  Mo  Mo811  1  0.28567000  0.61184000  0.95921000  1
  Mo  Mo812  1  0.71460000  0.30337000  0.02329000  1
  Mo  Mo813  1  0.78008000  0.80337000  0.58877000  1
  Mo  Mo814  1  0.21460000  0.69131000  0.91123000  1
  Mo  Mo815  1  0.28008000  0.19131000  0.47671000  1
  O  O816  1  0.22787000  0.06152000  0.28389000  1
  O  O817  1  0.27763000  0.56152000  0.83365000  1
  O  O818  1  0.72787000  0.94398000  0.66635000  1
  O  O819  1  0.77763000  0.44398000  0.21611000  1
  O  O820  1  0.16519000  0.06092000  0.21385000  1
  O  O821  1  0.34707000  0.56092000  0.89573000  1
  O  O822  1  0.66519000  0.95134000  0.60427000  1
  O  O823  1  0.84707000  0.45134000  0.28615000  1
  O  O824  1  0.17256000  0.14766000  0.30634000  1
  O  O825  1  0.34132000  0.64766000  0.97510000  1
  O  O826  1  0.67256000  0.86622000  0.52490000  1
  O  O827  1  0.84132000  0.36622000  0.19366000  1
  O  O828  1  0.14518000  0.10265000  0.22731000  1
  O  O829  1  0.37534000  0.60265000  0.95747000  1
  O  O830  1  0.64518000  0.91787000  0.54253000  1
  O  O831  1  0.87534000  0.41787000  0.27269000  1
  O  O832  1  0.21586000  0.70306000  0.87120000  1
  O  O833  1  0.33186000  0.20306000  0.48720000  1
  O  O834  1  0.71586000  0.34466000  0.01280000  1
  O  O835  1  0.83186000  0.84466000  0.62880000  1
  O  O836  1  0.27213000  0.71611000  0.93848000  1
  O  O837  1  0.27763000  0.21611000  0.44398000  1
  O  O838  1  0.77213000  0.33365000  0.05602000  1
  O  O839  1  0.77763000  0.83365000  0.56152000  1
  O  O840  1  0.21402000  0.62966000  0.79234000  1
  O  O841  1  0.33732000  0.12966000  0.41564000  1
  O  O842  1  0.71402000  0.42168000  0.08436000  1
  O  O843  1  0.83732000  0.92168000  0.70766000  1
  O  O844  1  0.23022000  0.21381000  0.37967000  1
  O  O845  1  0.33414000  0.71381000  0.98359000  1
  O  O846  1  0.73022000  0.85055000  0.51641000  1
  O  O847  1  0.83414000  0.35055000  0.12033000  1
  O  O848  1  0.22996000  0.14079000  0.29801000  1
  O  O849  1  0.34278000  0.64079000  0.91083000  1
  O  O850  1  0.72996000  0.93195000  0.58917000  1
  O  O851  1  0.84278000  0.43195000  0.20199000  1
  O  O852  1  0.26978000  0.62033000  0.78619000  1
  O  O853  1  0.33414000  0.12033000  0.35055000  1
  O  O854  1  0.76978000  0.48359000  0.14945000  1
  O  O855  1  0.83414000  0.98359000  0.71381000  1
  O  O856  1  0.06092000  0.39573000  0.34707000  1
  O  O857  1  0.54866000  0.89573000  0.33481000  1
  O  O858  1  0.56092000  0.71385000  0.16519000  1
  O  O859  1  0.04866000  0.21385000  0.15293000  1
  O  O860  1  0.27004000  0.70199000  0.85921000  1
  O  O861  1  0.34278000  0.20199000  0.43195000  1
  O  O862  1  0.77004000  0.41083000  0.06805000  1
  O  O863  1  0.84278000  0.91083000  0.64079000  1
  O  O864  1  0.28414000  0.12880000  0.29694000  1
  O  O865  1  0.33186000  0.62880000  0.84466000  1
  O  O866  1  0.78414000  0.98720000  0.65534000  1
  O  O867  1  0.83186000  0.48720000  0.20306000  1
  O  O868  1  0.06152000  0.33365000  0.27763000  1
  O  O869  1  0.55602000  0.83365000  0.27213000  1
  O  O870  1  0.56152000  0.78389000  0.22787000  1
  O  O871  1  0.05602000  0.28389000  0.22237000  1
  O  O872  1  0.28598000  0.20766000  0.37034000  1
  O  O873  1  0.33732000  0.70766000  0.92168000  1
  O  O874  1  0.78598000  0.91564000  0.57832000  1
  O  O875  1  0.83732000  0.41564000  0.12966000  1
  O  O876  1  0.12033000  0.28619000  0.26978000  1
  O  O877  1  0.51641000  0.78619000  0.16586000  1
  O  O878  1  0.62033000  0.85055000  0.33414000  1
  O  O879  1  0.01641000  0.35055000  0.23022000  1
  O  O880  1  0.12880000  0.34466000  0.33186000  1
  O  O881  1  0.51280000  0.84466000  0.21586000  1
  O  O882  1  0.62880000  0.79694000  0.28414000  1
  O  O883  1  0.01280000  0.29694000  0.16814000  1
  O  O884  1  0.32744000  0.69366000  0.85234000  1
  O  O885  1  0.34132000  0.19366000  0.36622000  1
  O  O886  1  0.82744000  0.47510000  0.13378000  1
  O  O887  1  0.84132000  0.97510000  0.64766000  1
  O  O888  1  0.33481000  0.78615000  0.93908000  1
  O  O889  1  0.34707000  0.28615000  0.45134000  1
  O  O890  1  0.83481000  0.39573000  0.04866000  1
  O  O891  1  0.84707000  0.89573000  0.56092000  1
  O  O892  1  0.10265000  0.45747000  0.37534000  1
  O  O893  1  0.58213000  0.95747000  0.35482000  1
  O  O894  1  0.60265000  0.72731000  0.14518000  1
  O  O895  1  0.08213000  0.22731000  0.12466000  1
  O  O896  1  0.12966000  0.29234000  0.21402000  1
  O  O897  1  0.57832000  0.79234000  0.16268000  1
  O  O898  1  0.62966000  0.91564000  0.33732000  1
  O  O899  1  0.07832000  0.41564000  0.28598000  1
  O  O900  1  0.14079000  0.41083000  0.34278000  1
  O  O901  1  0.56805000  0.91083000  0.27004000  1
  O  O902  1  0.64079000  0.79801000  0.22996000  1
  O  O903  1  0.06805000  0.29801000  0.15722000  1
  O  O904  1  0.19366000  0.35234000  0.32744000  1
  O  O905  1  0.52490000  0.85234000  0.15868000  1
  O  O906  1  0.69366000  0.86622000  0.34132000  1
  O  O907  1  0.02490000  0.36622000  0.17256000  1
  O  O908  1  0.35482000  0.77269000  0.89735000  1
  O  O909  1  0.37534000  0.27269000  0.41787000  1
  O  O910  1  0.85482000  0.45747000  0.08213000  1
  O  O911  1  0.87534000  0.95747000  0.60265000  1
  O  O912  1  0.22731000  0.64518000  0.60265000  1
  O  O913  1  0.54253000  0.14518000  0.41787000  1
  O  O914  1  0.72731000  0.62466000  0.08213000  1
  O  O915  1  0.04253000  0.12466000  0.89735000  1
  O  O916  1  0.14766000  0.47510000  0.34132000  1
  O  O917  1  0.63378000  0.97510000  0.32744000  1
  O  O918  1  0.64766000  0.80634000  0.17256000  1
  O  O919  1  0.13378000  0.30634000  0.15868000  1
  O  O920  1  0.20199000  0.35921000  0.27004000  1
  O  O921  1  0.58917000  0.85921000  0.15722000  1
  O  O922  1  0.70199000  0.93195000  0.34278000  1
  O  O923  1  0.08917000  0.43195000  0.22996000  1
  O  O924  1  0.20766000  0.42168000  0.33732000  1
  O  O925  1  0.58436000  0.92168000  0.21402000  1
  O  O926  1  0.70766000  0.87034000  0.28598000  1
  O  O927  1  0.08436000  0.37034000  0.16268000  1
  O  O928  1  0.27269000  0.39735000  0.35482000  1
  O  O929  1  0.54253000  0.89735000  0.12466000  1
  O  O930  1  0.77269000  0.91787000  0.37534000  1
  O  O931  1  0.04253000  0.41787000  0.14518000  1
  O  O932  1  0.21385000  0.66519000  0.56092000  1
  O  O933  1  0.60427000  0.16519000  0.45134000  1
  O  O934  1  0.71385000  0.65293000  0.04866000  1
  O  O935  1  0.10427000  0.15293000  0.93908000  1
  O  O936  1  0.30634000  0.67256000  0.64766000  1
  O  O937  1  0.52490000  0.17256000  0.36622000  1
  O  O938  1  0.80634000  0.65868000  0.13378000  1
  O  O939  1  0.02490000  0.15868000  0.85234000  1
  O  O940  1  0.20306000  0.37120000  0.21586000  1
  O  O941  1  0.65534000  0.87120000  0.16814000  1
  O  O942  1  0.70306000  0.98720000  0.33186000  1
  O  O943  1  0.15534000  0.48720000  0.28414000  1
  O  O944  1  0.21381000  0.48359000  0.33414000  1
  O  O945  1  0.64945000  0.98359000  0.26978000  1
  O  O946  1  0.71381000  0.87967000  0.23022000  1
  O  O947  1  0.14945000  0.37967000  0.16586000  1
  O  O948  1  0.29234000  0.66268000  0.57832000  1
  O  O949  1  0.58436000  0.16268000  0.37034000  1
  O  O950  1  0.79234000  0.71402000  0.12966000  1
  O  O951  1  0.08436000  0.21402000  0.92168000  1
  O  O952  1  0.21611000  0.43848000  0.27213000  1
  O  O953  1  0.66635000  0.93848000  0.22237000  1
  O  O954  1  0.71611000  0.94398000  0.27763000  1
  O  O955  1  0.16635000  0.44398000  0.22787000  1
  O  O956  1  0.37120000  0.66814000  0.65534000  1
  O  O957  1  0.51280000  0.16814000  0.29694000  1
  O  O958  1  0.87120000  0.71586000  0.20306000  1
  O  O959  1  0.01280000  0.21586000  0.84466000  1
  O  O960  1  0.29801000  0.72996000  0.64079000  1
  O  O961  1  0.58917000  0.22996000  0.43195000  1
  O  O962  1  0.79801000  0.65722000  0.06805000  1
  O  O963  1  0.08917000  0.15722000  0.85921000  1
  O  O964  1  0.28615000  0.43908000  0.33481000  1
  O  O965  1  0.60427000  0.93908000  0.15293000  1
  O  O966  1  0.78615000  0.95134000  0.34707000  1
  O  O967  1  0.10427000  0.45134000  0.16519000  1
  O  O968  1  0.37967000  0.73022000  0.71381000  1
  O  O969  1  0.51641000  0.23022000  0.35055000  1
  O  O970  1  0.87967000  0.66586000  0.14945000  1
  O  O971  1  0.01641000  0.16586000  0.78619000  1
  O  O972  1  0.35921000  0.65722000  0.58917000  1
  O  O973  1  0.56805000  0.15722000  0.29801000  1
  O  O974  1  0.85921000  0.77004000  0.20199000  1
  O  O975  1  0.06805000  0.27004000  0.91083000  1
  O  O976  1  0.28619000  0.66586000  0.51641000  1
  O  O977  1  0.64945000  0.16586000  0.37967000  1
  O  O978  1  0.78619000  0.76978000  0.12033000  1
  O  O979  1  0.14945000  0.26978000  0.98359000  1
  O  O980  1  0.37034000  0.78598000  0.70766000  1
  O  O981  1  0.57832000  0.28598000  0.41564000  1
  O  O982  1  0.87034000  0.66268000  0.08436000  1
  O  O983  1  0.07832000  0.16268000  0.79234000  1
  O  O984  1  0.28389000  0.72787000  0.56152000  1
  O  O985  1  0.66635000  0.22787000  0.44398000  1
  O  O986  1  0.78389000  0.72237000  0.05602000  1
  O  O987  1  0.16635000  0.22237000  0.93848000  1
  O  O988  1  0.29694000  0.78414000  0.62880000  1
  O  O989  1  0.65534000  0.28414000  0.48720000  1
  O  O990  1  0.79694000  0.66814000  0.01280000  1
  O  O991  1  0.15534000  0.16814000  0.87120000  1
  O  O992  1  0.39735000  0.62466000  0.54253000  1
  O  O993  1  0.58213000  0.12466000  0.22731000  1
  O  O994  1  0.89735000  0.85482000  0.27269000  1
  O  O995  1  0.08213000  0.35482000  0.95747000  1
  O  O996  1  0.35234000  0.65868000  0.52490000  1
  O  O997  1  0.63378000  0.15868000  0.30634000  1
  O  O998  1  0.85234000  0.82744000  0.19366000  1
  O  O999  1  0.13378000  0.32744000  0.97510000  1
  O  O1000  1  0.43908000  0.65293000  0.60427000  1
  O  O1001  1  0.54866000  0.15293000  0.21385000  1
  O  O1002  1  0.93908000  0.83481000  0.28615000  1
  O  O1003  1  0.04866000  0.33481000  0.89573000  1
  O  O1004  1  0.43848000  0.72237000  0.66635000  1
  O  O1005  1  0.55602000  0.22237000  0.28389000  1
  O  O1006  1  0.93848000  0.77213000  0.21611000  1
  O  O1007  1  0.05602000  0.27213000  0.83365000  1
  O  O1008  1  0.44398000  0.77763000  0.71611000  1
  O  O1009  1  0.56152000  0.27763000  0.33365000  1
  O  O1010  1  0.94398000  0.72787000  0.16635000  1
  O  O1011  1  0.06152000  0.22787000  0.78389000  1
  O  O1012  1  0.45134000  0.84707000  0.78615000  1
  O  O1013  1  0.56092000  0.34707000  0.39573000  1
  O  O1014  1  0.95134000  0.66519000  0.10427000  1
  O  O1015  1  0.06092000  0.16519000  0.71385000  1
  O  O1016  1  0.36622000  0.84132000  0.69366000  1
  O  O1017  1  0.64766000  0.34132000  0.47510000  1
  O  O1018  1  0.86622000  0.67256000  0.02490000  1
  O  O1019  1  0.14766000  0.17256000  0.80634000  1
  O  O1020  1  0.41787000  0.87534000  0.77269000  1
  O  O1021  1  0.60265000  0.37534000  0.45747000  1
  O  O1022  1  0.91787000  0.64518000  0.04253000  1
  O  O1023  1  0.10265000  0.14518000  0.72731000  1
  O  O1024  1  0.34466000  0.71586000  0.51280000  1
  O  O1025  1  0.70306000  0.21586000  0.37120000  1
  O  O1026  1  0.84466000  0.83186000  0.12880000  1
  O  O1027  1  0.20306000  0.33186000  0.98720000  1
  O  O1028  1  0.33365000  0.77213000  0.55602000  1
  O  O1029  1  0.71611000  0.27213000  0.43848000  1
  O  O1030  1  0.83365000  0.77763000  0.06152000  1
  O  O1031  1  0.21611000  0.27763000  0.94398000  1
  O  O1032  1  0.42168000  0.71402000  0.58436000  1
  O  O1033  1  0.62966000  0.21402000  0.29234000  1
  O  O1034  1  0.92168000  0.83732000  0.20766000  1
  O  O1035  1  0.12966000  0.33732000  0.91564000  1
  O  O1036  1  0.35055000  0.83414000  0.62033000  1
  O  O1037  1  0.71381000  0.33414000  0.48359000  1
  O  O1038  1  0.85055000  0.73022000  0.01641000  1
  O  O1039  1  0.21381000  0.23022000  0.87967000  1
  O  O1040  1  0.43195000  0.84278000  0.70199000  1
  O  O1041  1  0.64079000  0.34278000  0.41083000  1
  O  O1042  1  0.93195000  0.72996000  0.08917000  1
  O  O1043  1  0.14079000  0.22996000  0.79801000  1
  O  O1044  1  0.48359000  0.76978000  0.64945000  1
  O  O1045  1  0.62033000  0.26978000  0.28619000  1
  O  O1046  1  0.98359000  0.83414000  0.21381000  1
  O  O1047  1  0.12033000  0.33414000  0.85055000  1
  O  O1048  1  0.39573000  0.06092000  0.84707000  1
  O  O1049  1  0.71385000  0.56092000  0.66519000  1
  O  O1050  1  0.89573000  0.54866000  0.83481000  1
  O  O1051  1  0.21385000  0.04866000  0.65293000  1
  O  O1052  1  0.41083000  0.77004000  0.56805000  1
  O  O1053  1  0.70199000  0.27004000  0.35921000  1
  O  O1054  1  0.91083000  0.84278000  0.14079000  1
  O  O1055  1  0.20199000  0.34278000  0.93195000  1
  O  O1056  1  0.48720000  0.83186000  0.70306000  1
  O  O1057  1  0.62880000  0.33186000  0.34466000  1
  O  O1058  1  0.98720000  0.78414000  0.15534000  1
  O  O1059  1  0.12880000  0.28414000  0.79694000  1
  O  O1060  1  0.33365000  0.06152000  0.77763000  1
  O  O1061  1  0.78389000  0.56152000  0.72787000  1
  O  O1062  1  0.83365000  0.55602000  0.77213000  1
  O  O1063  1  0.28389000  0.05602000  0.72237000  1
  O  O1064  1  0.41564000  0.83732000  0.62966000  1
  O  O1065  1  0.70766000  0.33732000  0.42168000  1
  O  O1066  1  0.91564000  0.78598000  0.07832000  1
  O  O1067  1  0.20766000  0.28598000  0.87034000  1
  O  O1068  1  0.35055000  0.01641000  0.73022000  1
  O  O1069  1  0.78619000  0.51641000  0.66586000  1
  O  O1070  1  0.85055000  0.62033000  0.83414000  1
  O  O1071  1  0.28619000  0.12033000  0.76978000  1
  O  O1072  1  0.34466000  0.12880000  0.83186000  1
  O  O1073  1  0.79694000  0.62880000  0.78414000  1
  O  O1074  1  0.84466000  0.51280000  0.71586000  1
  O  O1075  1  0.29694000  0.01280000  0.66814000  1
  O  O1076  1  0.47510000  0.82744000  0.63378000  1
  O  O1077  1  0.69366000  0.32744000  0.35234000  1
  O  O1078  1  0.97510000  0.84132000  0.14766000  1
  O  O1079  1  0.19366000  0.34132000  0.86622000  1
  O  O1080  1  0.39573000  0.83481000  0.54866000  1
  O  O1081  1  0.78615000  0.33481000  0.43908000  1
  O  O1082  1  0.89573000  0.84707000  0.06092000  1
  O  O1083  1  0.28615000  0.34707000  0.95134000  1
  O  O1084  1  0.45747000  0.10265000  0.87534000  1
  O  O1085  1  0.72731000  0.60265000  0.64518000  1
  O  O1086  1  0.95747000  0.58213000  0.85482000  1
  O  O1087  1  0.22731000  0.08213000  0.62466000  1
  O  O1088  1  0.41564000  0.07832000  0.78598000  1
  O  O1089  1  0.79234000  0.57832000  0.66268000  1
  O  O1090  1  0.91564000  0.62966000  0.83732000  1
  O  O1091  1  0.29234000  0.12966000  0.71402000  1
  O  O1092  1  0.41083000  0.14079000  0.84278000  1
  O  O1093  1  0.79801000  0.64079000  0.72996000  1
  O  O1094  1  0.91083000  0.56805000  0.77004000  1
  O  O1095  1  0.29801000  0.06805000  0.65722000  1
  O  O1096  1  0.36622000  0.02490000  0.67256000  1
  O  O1097  1  0.85234000  0.52490000  0.65868000  1
  O  O1098  1  0.86622000  0.69366000  0.84132000  1
  O  O1099  1  0.35234000  0.19366000  0.82744000  1
  O  O1100  1  0.45747000  0.85482000  0.58213000  1
  O  O1101  1  0.77269000  0.35482000  0.39735000  1
  O  O1102  1  0.95747000  0.87534000  0.10265000  1
  O  O1103  1  0.27269000  0.37534000  0.91787000  1
  O  O1104  1  0.62466000  0.72731000  0.58213000  1
  O  O1105  1  0.64518000  0.22731000  0.10265000  1
  O  O1106  1  0.12466000  0.04253000  0.39735000  1
  O  O1107  1  0.14518000  0.54253000  0.91787000  1
  O  O1108  1  0.47510000  0.14766000  0.84132000  1
  O  O1109  1  0.80634000  0.64766000  0.67256000  1
  O  O1110  1  0.97510000  0.63378000  0.82744000  1
  O  O1111  1  0.30634000  0.13378000  0.65868000  1
  O  O1112  1  0.43195000  0.08917000  0.72996000  1
  O  O1113  1  0.85921000  0.58917000  0.65722000  1
  O  O1114  1  0.93195000  0.70199000  0.84278000  1
  O  O1115  1  0.35921000  0.20199000  0.77004000  1
  O  O1116  1  0.42168000  0.20766000  0.83732000  1
  O  O1117  1  0.87034000  0.70766000  0.78598000  1
  O  O1118  1  0.92168000  0.58436000  0.71402000  1
  O  O1119  1  0.37034000  0.08436000  0.66268000  1
  O  O1120  1  0.41787000  0.04253000  0.64518000  1
  O  O1121  1  0.89735000  0.54253000  0.62466000  1
  O  O1122  1  0.91787000  0.77269000  0.87534000  1
  O  O1123  1  0.39735000  0.27269000  0.85482000  1
  O  O1124  1  0.65293000  0.71385000  0.54866000  1
  O  O1125  1  0.66519000  0.21385000  0.06092000  1
  O  O1126  1  0.15293000  0.10427000  0.43908000  1
  O  O1127  1  0.16519000  0.60427000  0.95134000  1
  O  O1128  1  0.65868000  0.80634000  0.63378000  1
  O  O1129  1  0.67256000  0.30634000  0.14766000  1
  O  O1130  1  0.15868000  0.02490000  0.35234000  1
  O  O1131  1  0.17256000  0.52490000  0.86622000  1
  O  O1132  1  0.48720000  0.15534000  0.78414000  1
  O  O1133  1  0.87120000  0.65534000  0.66814000  1
  O  O1134  1  0.98720000  0.70306000  0.83186000  1
  O  O1135  1  0.37120000  0.20306000  0.71586000  1
  O  O1136  1  0.48359000  0.21381000  0.83414000  1
  O  O1137  1  0.87967000  0.71381000  0.73022000  1
  O  O1138  1  0.98359000  0.64945000  0.76978000  1
  O  O1139  1  0.37967000  0.14945000  0.66586000  1
  O  O1140  1  0.66268000  0.29234000  0.07832000  1
  O  O1141  1  0.71402000  0.79234000  0.62966000  1
  O  O1142  1  0.16268000  0.58436000  0.87034000  1
  O  O1143  1  0.21402000  0.08436000  0.42168000  1
  O  O1144  1  0.44398000  0.16635000  0.72787000  1
  O  O1145  1  0.93848000  0.66635000  0.72237000  1
  O  O1146  1  0.94398000  0.71611000  0.77763000  1
  O  O1147  1  0.43848000  0.21611000  0.77213000  1
  O  O1148  1  0.66814000  0.37120000  0.15534000  1
  O  O1149  1  0.71586000  0.87120000  0.70306000  1
  O  O1150  1  0.16814000  0.51280000  0.79694000  1
  O  O1151  1  0.21586000  0.01280000  0.34466000  1
  O  O1152  1  0.65722000  0.79801000  0.56805000  1
  O  O1153  1  0.72996000  0.29801000  0.14079000  1
  O  O1154  1  0.15722000  0.08917000  0.35921000  1
  O  O1155  1  0.22996000  0.58917000  0.93195000  1
  O  O1156  1  0.45134000  0.10427000  0.66519000  1
  O  O1157  1  0.93908000  0.60427000  0.65293000  1
  O  O1158  1  0.95134000  0.78615000  0.84707000  1
  O  O1159  1  0.43908000  0.28615000  0.83481000  1
  O  O1160  1  0.66586000  0.87967000  0.64945000  1
  O  O1161  1  0.73022000  0.37967000  0.21381000  1
  O  O1162  1  0.16586000  0.01641000  0.28619000  1
  O  O1163  1  0.23022000  0.51641000  0.85055000  1
  O  O1164  1  0.65722000  0.35921000  0.08917000  1
  O  O1165  1  0.77004000  0.85921000  0.70199000  1
  O  O1166  1  0.15722000  0.56805000  0.79801000  1
  O  O1167  1  0.27004000  0.06805000  0.41083000  1
  O  O1168  1  0.66586000  0.28619000  0.01641000  1
  O  O1169  1  0.76978000  0.78619000  0.62033000  1
  O  O1170  1  0.16586000  0.64945000  0.87967000  1
  O  O1171  1  0.26978000  0.14945000  0.48359000  1
  O  O1172  1  0.66268000  0.87034000  0.58436000  1
  O  O1173  1  0.78598000  0.37034000  0.20766000  1
  O  O1174  1  0.16268000  0.07832000  0.29234000  1
  O  O1175  1  0.28598000  0.57832000  0.91564000  1
  O  O1176  1  0.72237000  0.78389000  0.55602000  1
  O  O1177  1  0.72787000  0.28389000  0.06152000  1
  O  O1178  1  0.22237000  0.16635000  0.43848000  1
  O  O1179  1  0.22787000  0.66635000  0.94398000  1
  O  O1180  1  0.66814000  0.79694000  0.51280000  1
  O  O1181  1  0.78414000  0.29694000  0.12880000  1
  O  O1182  1  0.16814000  0.15534000  0.37120000  1
  O  O1183  1  0.28414000  0.65534000  0.98720000  1
  O  O1184  1  0.62466000  0.39735000  0.04253000  1
  O  O1185  1  0.85482000  0.89735000  0.77269000  1
  O  O1186  1  0.12466000  0.58213000  0.72731000  1
  O  O1187  1  0.35482000  0.08213000  0.45747000  1
  O  O1188  1  0.65868000  0.35234000  0.02490000  1
  O  O1189  1  0.82744000  0.85234000  0.69366000  1
  O  O1190  1  0.15868000  0.63378000  0.80634000  1
  O  O1191  1  0.32744000  0.13378000  0.47510000  1
  O  O1192  1  0.65293000  0.43908000  0.10427000  1
  O  O1193  1  0.83481000  0.93908000  0.78615000  1
  O  O1194  1  0.15293000  0.54866000  0.71385000  1
  O  O1195  1  0.33481000  0.04866000  0.39573000  1
  O  O1196  1  0.72237000  0.43848000  0.16635000  1
  O  O1197  1  0.77213000  0.93848000  0.71611000  1
  O  O1198  1  0.22237000  0.55602000  0.78389000  1
  O  O1199  1  0.27213000  0.05602000  0.33365000  1
  Zn  Zn1200  1  0.19624000  0.08362000  0.26950000  1
  Zn  Zn1201  1  0.31412000  0.58362000  0.88738000  1
  Zn  Zn1202  1  0.69624000  0.92674000  0.61262000  1
  Zn  Zn1203  1  0.81412000  0.42674000  0.23050000  1
  Zn  Zn1204  1  0.30376000  0.73050000  0.91638000  1
  Zn  Zn1205  1  0.31412000  0.23050000  0.42674000  1
  Zn  Zn1206  1  0.80376000  0.38738000  0.07326000  1
  Zn  Zn1207  1  0.81412000  0.88738000  0.58362000  1
  Zn  Zn1208  1  0.08362000  0.38738000  0.31412000  1
  Zn  Zn1209  1  0.57326000  0.88738000  0.30376000  1
  Zn  Zn1210  1  0.58362000  0.76950000  0.19624000  1
  Zn  Zn1211  1  0.07326000  0.26950000  0.18588000  1
  Zn  Zn1212  1  0.23050000  0.41638000  0.30376000  1
  Zn  Zn1213  1  0.61262000  0.91638000  0.18588000  1
  Zn  Zn1214  1  0.73050000  0.92674000  0.31412000  1
  Zn  Zn1215  1  0.11262000  0.42674000  0.19624000  1
  Zn  Zn1216  1  0.26950000  0.69624000  0.58362000  1
  Zn  Zn1217  1  0.61262000  0.19624000  0.42674000  1
  Zn  Zn1218  1  0.76950000  0.68588000  0.07326000  1
  Zn  Zn1219  1  0.11262000  0.18588000  0.91638000  1
  Zn  Zn1220  1  0.41638000  0.68588000  0.61262000  1
  Zn  Zn1221  1  0.57326000  0.18588000  0.26950000  1
  Zn  Zn1222  1  0.91638000  0.80376000  0.23050000  1
  Zn  Zn1223  1  0.07326000  0.30376000  0.88738000  1
  Zn  Zn1224  1  0.42674000  0.81412000  0.73050000  1
  Zn  Zn1225  1  0.58362000  0.31412000  0.38738000  1
  Zn  Zn1226  1  0.92674000  0.69624000  0.11262000  1
  Zn  Zn1227  1  0.08362000  0.19624000  0.76950000  1
  Zn  Zn1228  1  0.38738000  0.80376000  0.57326000  1
  Zn  Zn1229  1  0.73050000  0.30376000  0.41638000  1
  Zn  Zn1230  1  0.88738000  0.81412000  0.08362000  1
  Zn  Zn1231  1  0.23050000  0.31412000  0.92674000  1
  Zn  Zn1232  1  0.38738000  0.08362000  0.81412000  1
  Zn  Zn1233  1  0.76950000  0.58362000  0.69624000  1
  Zn  Zn1234  1  0.88738000  0.57326000  0.80376000  1
  Zn  Zn1235  1  0.26950000  0.07326000  0.68588000  1
  Zn  Zn1236  1  0.42674000  0.11262000  0.69624000  1
  Zn  Zn1237  1  0.91638000  0.61262000  0.68588000  1
  Zn  Zn1238  1  0.92674000  0.73050000  0.81412000  1
  Zn  Zn1239  1  0.41638000  0.23050000  0.80376000  1
  Zn  Zn1240  1  0.68588000  0.76950000  0.57326000  1
  Zn  Zn1241  1  0.69624000  0.26950000  0.08362000  1
  Zn  Zn1242  1  0.18588000  0.11262000  0.41638000  1
  Zn  Zn1243  1  0.19624000  0.61262000  0.92674000  1
  Zn  Zn1244  1  0.68588000  0.41638000  0.11262000  1
  Zn  Zn1245  1  0.80376000  0.91638000  0.73050000  1
  Zn  Zn1246  1  0.18588000  0.57326000  0.76950000  1
  Zn  Zn1247  1  0.30376000  0.07326000  0.38738000  1
