# generated using pymatgen
data_Ni2H10C17O9
_symmetry_space_group_name_H-M   'P 1'
_cell_length_a   10.24700000
_cell_length_b   15.25000000
_cell_length_c   20.94600000
_cell_angle_alpha   90.00000000
_cell_angle_beta   99.91000000
_cell_angle_gamma   90.00000000
_symmetry_Int_Tables_number   1
_chemical_formula_structural   Ni2H10C17O9
_chemical_formula_sum   'Ni8 H40 C68 O36'
_cell_volume   3224.32546981
_cell_formula_units_Z   4
loop_
 _symmetry_equiv_pos_site_id
 _symmetry_equiv_pos_as_xyz
  1  'x, y, z'
loop_
 _atom_site_type_symbol
 _atom_site_label
 _atom_site_symmetry_multiplicity
 _atom_site_fract_x
 _atom_site_fract_y
 _atom_site_fract_z
 _atom_site_occupancy
  Ni  Ni0  1  0.20295000  0.14291000  0.18574000  1
  Ni  Ni1  1  0.20295000  0.35709000  0.68574000  1
  Ni  Ni2  1  0.25327000  0.23819000  0.83127000  1
  Ni  Ni3  1  0.25327000  0.26181000  0.33127000  1
  Ni  Ni4  1  0.74673000  0.73819000  0.66873000  1
  Ni  Ni5  1  0.74673000  0.76181000  0.16873000  1
  Ni  Ni6  1  0.79705000  0.64291000  0.31426000  1
  Ni  Ni7  1  0.79705000  0.85709000  0.81426000  1
  H  H8  1  0.02180000  0.22230000  0.70110000  1
  H  H9  1  0.02180000  0.27770000  0.20110000  1
  H  H10  1  0.04600000  0.18100000  0.27100000  1
  H  H11  1  0.04600000  0.31900000  0.77100000  1
  H  H12  1  0.08040000  0.23840000  0.50370000  1
  H  H13  1  0.08040000  0.26160000  0.00370000  1
  H  H14  1  0.14280000  0.54910000  0.09420000  1
  H  H15  1  0.14280000  0.95090000  0.59420000  1
  H  H16  1  0.16740000  0.59490000  0.90810000  1
  H  H17  1  0.16740000  0.90510000  0.40810000  1
  H  H18  1  0.23380000  0.06510000  0.48720000  1
  H  H19  1  0.23380000  0.43490000  0.98720000  1
  H  H20  1  0.26340000  0.13850000  0.58970000  1
  H  H21  1  0.26340000  0.36150000  0.08970000  1
  H  H22  1  0.33790000  0.50560000  0.97510000  1
  H  H23  1  0.33790000  0.99440000  0.47510000  1
  H  H24  1  0.47080000  0.57990000  0.07400000  1
  H  H25  1  0.47080000  0.92010000  0.57400000  1
  H  H26  1  0.47150000  0.55440000  0.75850000  1
  H  H27  1  0.47150000  0.94560000  0.25850000  1
  H  H28  1  0.52850000  0.05440000  0.74150000  1
  H  H29  1  0.52850000  0.44560000  0.24150000  1
  H  H30  1  0.52920000  0.07990000  0.42600000  1
  H  H31  1  0.52920000  0.42010000  0.92600000  1
  H  H32  1  0.66210000  0.00560000  0.52490000  1
  H  H33  1  0.66210000  0.49440000  0.02490000  1
  H  H34  1  0.73660000  0.63850000  0.91030000  1
  H  H35  1  0.73660000  0.86150000  0.41030000  1
  H  H36  1  0.76620000  0.56510000  0.01280000  1
  H  H37  1  0.76620000  0.93490000  0.51280000  1
  H  H38  1  0.83260000  0.09490000  0.59190000  1
  H  H39  1  0.83260000  0.40510000  0.09190000  1
  H  H40  1  0.85720000  0.04910000  0.40580000  1
  H  H41  1  0.85720000  0.45090000  0.90580000  1
  H  H42  1  0.91960000  0.73840000  0.99630000  1
  H  H43  1  0.91960000  0.76160000  0.49630000  1
  H  H44  1  0.95400000  0.68100000  0.22900000  1
  H  H45  1  0.95400000  0.81900000  0.72900000  1
  H  H46  1  0.97820000  0.72230000  0.79890000  1
  H  H47  1  0.97820000  0.77770000  0.29890000  1
  C  C48  1  0.01150000  0.22400000  0.61870000  1
  C  C49  1  0.01150000  0.27600000  0.11870000  1
  C  C50  1  0.01830000  0.19360000  0.50260000  1
  C  C51  1  0.01830000  0.30640000  0.00260000  1
  C  C52  1  0.02080000  0.64540000  0.05460000  1
  C  C53  1  0.02080000  0.85460000  0.55460000  1
  C  C54  1  0.03540000  0.67470000  0.94280000  1
  C  C55  1  0.03540000  0.82530000  0.44280000  1
  C  C56  1  0.04430000  0.16530000  0.38780000  1
  C  C57  1  0.04430000  0.33470000  0.88780000  1
  C  C58  1  0.11590000  0.58040000  0.05610000  1
  C  C59  1  0.11590000  0.91960000  0.55610000  1
  C  C60  1  0.13120000  0.60790000  0.94480000  1
  C  C61  1  0.13120000  0.89210000  0.44480000  1
  C  C62  1  0.17130000  0.56130000  0.00240000  1
  C  C63  1  0.17130000  0.93870000  0.50240000  1
  C  C64  1  0.27690000  0.01100000  0.50370000  1
  C  C65  1  0.27690000  0.48900000  0.00370000  1
  C  C66  1  0.32630000  0.09750000  0.60780000  1
  C  C67  1  0.32630000  0.40250000  0.10780000  1
  C  C68  1  0.35140000  0.18430000  0.71050000  1
  C  C69  1  0.35140000  0.31570000  0.21050000  1
  C  C70  1  0.35400000  0.02720000  0.57070000  1
  C  C71  1  0.35400000  0.47280000  0.07070000  1
  C  C72  1  0.38190000  0.08860000  0.30880000  1
  C  C73  1  0.38190000  0.41140000  0.80880000  1
  C  C74  1  0.39010000  0.10830000  0.67130000  1
  C  C75  1  0.39010000  0.39170000  0.17130000  1
  C  C76  1  0.45040000  0.53230000  0.09830000  1
  C  C77  1  0.45040000  0.96770000  0.59830000  1
  C  C78  1  0.48300000  0.02170000  0.33800000  1
  C  C79  1  0.48300000  0.47830000  0.83800000  1
  C  C80  1  0.48600000  0.04780000  0.69880000  1
  C  C81  1  0.48600000  0.45220000  0.19880000  1
  C  C82  1  0.51400000  0.54780000  0.80120000  1
  C  C83  1  0.51400000  0.95220000  0.30120000  1
  C  C84  1  0.51700000  0.52170000  0.16200000  1
  C  C85  1  0.51700000  0.97830000  0.66200000  1
  C  C86  1  0.54960000  0.03230000  0.40170000  1
  C  C87  1  0.54960000  0.46770000  0.90170000  1
  C  C88  1  0.60990000  0.60830000  0.82870000  1
  C  C89  1  0.60990000  0.89170000  0.32870000  1
  C  C90  1  0.61810000  0.58860000  0.19120000  1
  C  C91  1  0.61810000  0.91140000  0.69120000  1
  C  C92  1  0.64600000  0.52720000  0.92930000  1
  C  C93  1  0.64600000  0.97280000  0.42930000  1
  C  C94  1  0.64860000  0.68430000  0.78950000  1
  C  C95  1  0.64860000  0.81570000  0.28950000  1
  C  C96  1  0.67370000  0.59750000  0.89220000  1
  C  C97  1  0.67370000  0.90250000  0.39220000  1
  C  C98  1  0.72310000  0.51100000  0.99630000  1
  C  C99  1  0.72310000  0.98900000  0.49630000  1
  C  C100  1  0.82870000  0.06130000  0.49760000  1
  C  C101  1  0.82870000  0.43870000  0.99760000  1
  C  C102  1  0.86880000  0.10790000  0.55520000  1
  C  C103  1  0.86880000  0.39210000  0.05520000  1
  C  C104  1  0.88410000  0.08040000  0.44390000  1
  C  C105  1  0.88410000  0.41960000  0.94390000  1
  C  C106  1  0.95570000  0.66530000  0.11220000  1
  C  C107  1  0.95570000  0.83470000  0.61220000  1
  C  C108  1  0.96460000  0.17470000  0.55720000  1
  C  C109  1  0.96460000  0.32530000  0.05720000  1
  C  C110  1  0.97920000  0.14540000  0.44540000  1
  C  C111  1  0.97920000  0.35460000  0.94540000  1
  C  C112  1  0.98170000  0.69360000  0.99740000  1
  C  C113  1  0.98170000  0.80640000  0.49740000  1
  C  C114  1  0.98850000  0.72400000  0.88130000  1
  C  C115  1  0.98850000  0.77600000  0.38130000  1
  O  O116  1  0.00770000  0.63090000  0.16560000  1
  O  O117  1  0.00770000  0.86910000  0.66560000  1
  O  O118  1  0.00800000  0.69010000  0.82930000  1
  O  O119  1  0.00800000  0.80990000  0.32930000  1
  O  O120  1  0.06940000  0.20400000  0.11370000  1
  O  O121  1  0.06940000  0.29600000  0.61370000  1
  O  O122  1  0.11870000  0.20770000  0.25560000  1
  O  O123  1  0.11870000  0.29230000  0.75560000  1
  O  O124  1  0.14220000  0.21510000  0.39680000  1
  O  O125  1  0.14220000  0.28490000  0.89680000  1
  O  O126  1  0.32070000  0.24720000  0.17910000  1
  O  O127  1  0.32070000  0.25280000  0.67910000  1
  O  O128  1  0.32960000  0.07480000  0.25020000  1
  O  O129  1  0.32960000  0.42520000  0.75020000  1
  O  O130  1  0.35260000  0.17200000  0.76990000  1
  O  O131  1  0.35260000  0.32800000  0.26990000  1
  O  O132  1  0.36440000  0.15300000  0.34310000  1
  O  O133  1  0.36440000  0.34700000  0.84310000  1
  O  O134  1  0.63560000  0.65300000  0.15690000  1
  O  O135  1  0.63560000  0.84700000  0.65690000  1
  O  O136  1  0.64740000  0.67200000  0.73010000  1
  O  O137  1  0.64740000  0.82800000  0.23010000  1
  O  O138  1  0.67040000  0.57480000  0.24980000  1
  O  O139  1  0.67040000  0.92520000  0.74980000  1
  O  O140  1  0.67930000  0.74720000  0.32090000  1
  O  O141  1  0.67930000  0.75280000  0.82090000  1
  O  O142  1  0.85780000  0.71510000  0.10320000  1
  O  O143  1  0.85780000  0.78490000  0.60320000  1
  O  O144  1  0.88130000  0.70770000  0.24440000  1
  O  O145  1  0.88130000  0.79230000  0.74440000  1
  O  O146  1  0.93060000  0.70400000  0.38630000  1
  O  O147  1  0.93060000  0.79600000  0.88630000  1
  O  O148  1  0.99200000  0.19010000  0.67070000  1
  O  O149  1  0.99200000  0.30990000  0.17070000  1
  O  O150  1  0.99230000  0.13090000  0.33440000  1
  O  O151  1  0.99230000  0.36910000  0.83440000  1
