# generated using pymatgen
data_Cu4H13C26(NO2)6
_symmetry_space_group_name_H-M   'P 1'
_cell_length_a   16.00000000
_cell_length_b   19.19800000
_cell_length_c   21.41100000
_cell_angle_alpha   90.00000000
_cell_angle_beta   90.00000000
_cell_angle_gamma   99.86100000
_symmetry_Int_Tables_number   1
_chemical_formula_structural   Cu4H13C26(NO2)6
_chemical_formula_sum   'Cu16 H52 C104 N24 O48'
_cell_volume   6479.60961926
_cell_formula_units_Z   4
loop_
 _symmetry_equiv_pos_site_id
 _symmetry_equiv_pos_as_xyz
  1  'x, y, z'
loop_
 _atom_site_type_symbol
 _atom_site_label
 _atom_site_symmetry_multiplicity
 _atom_site_fract_x
 _atom_site_fract_y
 _atom_site_fract_z
 _atom_site_occupancy
  Cu  Cu0  1  0.18732000  0.08536000  0.62590000  1
  Cu  Cu1  1  0.18732000  0.58536000  0.87410000  1
  Cu  Cu2  1  0.31256000  0.12940000  0.73843000  1
  Cu  Cu3  1  0.31256000  0.62940000  0.76157000  1
  Cu  Cu4  1  0.36123000  0.02191000  0.64905000  1
  Cu  Cu5  1  0.36123000  0.52191000  0.85095000  1
  Cu  Cu6  1  0.48953000  0.09584000  0.77206000  1
  Cu  Cu7  1  0.48953000  0.59584000  0.72795000  1
  Cu  Cu8  1  0.51047000  0.40416000  0.27206000  1
  Cu  Cu9  1  0.51047000  0.90416000  0.22795000  1
  Cu  Cu10  1  0.63877000  0.47809000  0.14905000  1
  Cu  Cu11  1  0.63877000  0.97809000  0.35095000  1
  Cu  Cu12  1  0.68744000  0.37060000  0.23843000  1
  Cu  Cu13  1  0.68744000  0.87060000  0.26157000  1
  Cu  Cu14  1  0.81268000  0.41464000  0.12590000  1
  Cu  Cu15  1  0.81268000  0.91464000  0.37410000  1
  H  H16  1  0.04230000  0.24980000  0.65860000  1
  H  H17  1  0.04230000  0.74980000  0.84140000  1
  H  H18  1  0.04840000  0.16780000  0.12870000  1
  H  H19  1  0.04840000  0.66780000  0.37130000  1
  H  H20  1  0.05220000  0.43810000  0.74290000  1
  H  H21  1  0.05220000  0.93810000  0.75710000  1
  H  H22  1  0.12260000  0.03680000  0.33760000  1
  H  H23  1  0.12260000  0.53680000  0.16240000  1
  H  H24  1  0.17730000  0.03440000  0.43590000  1
  H  H25  1  0.17730000  0.53440000  0.06410000  1
  H  H26  1  0.20120000  0.12640000  0.03770000  1
  H  H27  1  0.20120000  0.62640000  0.46230000  1
  H  H28  1  0.23340000  0.14530000  0.93410000  1
  H  H29  1  0.23340000  0.64530000  0.56590000  1
  H  H30  1  0.23610000  0.32430000  0.77350000  1
  H  H31  1  0.23610000  0.82430000  0.72650000  1
  H  H32  1  0.31000000  0.48830000  0.21210000  1
  H  H33  1  0.31000000  0.98830000  0.28790000  1
  H  H34  1  0.31950000  0.03500000  0.13710000  1
  H  H35  1  0.31950000  0.53500000  0.36290000  1
  H  H36  1  0.40740000  0.03640000  0.05760000  1
  H  H37  1  0.40740000  0.53640000  0.44240000  1
  H  H38  1  0.41020000  0.48770000  0.03950000  1
  H  H39  1  0.41020000  0.98770000  0.46050000  1
  H  H40  1  0.44390000  0.06310000  0.95570000  1
  H  H41  1  0.44390000  0.56310000  0.54430000  1
  H  H42  1  0.55610000  0.43690000  0.45570000  1
  H  H43  1  0.55610000  0.93690000  0.04430000  1
  H  H44  1  0.58980000  0.01230000  0.53950000  1
  H  H45  1  0.58980000  0.51230000  0.96050000  1
  H  H46  1  0.59260000  0.46360000  0.55760000  1
  H  H47  1  0.59260000  0.96360000  0.94240000  1
  H  H48  1  0.68050000  0.46500000  0.63710000  1
  H  H49  1  0.68050000  0.96500000  0.86290000  1
  H  H50  1  0.69000000  0.01170000  0.71210000  1
  H  H51  1  0.69000000  0.51170000  0.78790000  1
  H  H52  1  0.76390000  0.17570000  0.27350000  1
  H  H53  1  0.76390000  0.67570000  0.22650000  1
  H  H54  1  0.76660000  0.35470000  0.43410000  1
  H  H55  1  0.76660000  0.85470000  0.06590000  1
  H  H56  1  0.79880000  0.37360000  0.53770000  1
  H  H57  1  0.79880000  0.87360000  0.96230000  1
  H  H58  1  0.82270000  0.46560000  0.93590000  1
  H  H59  1  0.82270000  0.96560000  0.56410000  1
  H  H60  1  0.87740000  0.46320000  0.83760000  1
  H  H61  1  0.87740000  0.96320000  0.66240000  1
  H  H62  1  0.94780000  0.06190000  0.24290000  1
  H  H63  1  0.94780000  0.56190000  0.25710000  1
  H  H64  1  0.95160000  0.33220000  0.62870000  1
  H  H65  1  0.95160000  0.83220000  0.87130000  1
  H  H66  1  0.95770000  0.25020000  0.15860000  1
  H  H67  1  0.95770000  0.75020000  0.34140000  1
  C  C68  1  0.03381000  0.34530000  0.69743000  1
  C  C69  1  0.03381000  0.84530000  0.80257000  1
  C  C70  1  0.06906000  0.28453000  0.68559000  1
  C  C71  1  0.06906000  0.78453000  0.81441000  1
  C  C72  1  0.07552000  0.39768000  0.73549000  1
  C  C73  1  0.07552000  0.89768000  0.76451000  1
  C  C74  1  0.10449000  0.11361000  0.18447000  1
  C  C75  1  0.10449000  0.61361000  0.31553000  1
  C  C76  1  0.14527000  0.27698000  0.71507000  1
  C  C77  1  0.14527000  0.77698000  0.78493000  1
  C  C78  1  0.15264000  0.39060000  0.76314000  1
  C  C79  1  0.15264000  0.89060000  0.73686000  1
  C  C80  1  0.16908000  0.05870000  0.25783000  1
  C  C81  1  0.16908000  0.55870000  0.24217000  1
  C  C82  1  0.18290000  0.21106000  0.70363000  1
  C  C83  1  0.18290000  0.71106000  0.79637000  1
  C  C84  1  0.18591000  0.32978000  0.75368000  1
  C  C85  1  0.18591000  0.82978000  0.74632000  1
  C  C86  1  0.20170000  0.45174000  0.79893000  1
  C  C87  1  0.20170000  0.95174000  0.70107000  1
  C  C88  1  0.22192000  0.07141000  0.16122000  1
  C  C89  1  0.22192000  0.57141000  0.33878000  1
  C  C90  1  0.22688000  0.02303000  0.41920000  1
  C  C91  1  0.22688000  0.52303000  0.08080000  1
  C  C92  1  0.23521000  0.01877000  0.35506000  1
  C  C93  1  0.23521000  0.51877000  0.14494000  1
  C  C94  1  0.24910000  0.11190000  0.02107000  1
  C  C95  1  0.24910000  0.61190000  0.47893000  1
  C  C96  1  0.26940000  0.12420000  0.95920000  1
  C  C97  1  0.26940000  0.62420000  0.54080000  1
  C  C98  1  0.28289000  0.01975000  0.52860000  1
  C  C99  1  0.28289000  0.51975000  0.97140000  1
  C  C100  1  0.29119000  0.01065000  0.45907000  1
  C  C101  1  0.29119000  0.51065000  0.04093000  1
  C  C102  1  0.29980000  0.07782000  0.05846000  1
  C  C103  1  0.29980000  0.57782000  0.44154000  1
  C  C104  1  0.30600000  0.49586000  0.16933000  1
  C  C105  1  0.30600000  0.99586000  0.33067000  1
  C  C106  1  0.34219000  0.10604000  0.93320000  1
  C  C107  1  0.34219000  0.60604000  0.56680000  1
  C  C108  1  0.36310000  0.11628000  0.86554000  1
  C  C109  1  0.36310000  0.61628000  0.63446000  1
  C  C110  1  0.36534000  0.49317000  0.06561000  1
  C  C111  1  0.36534000  0.99317000  0.43439000  1
  C  C112  1  0.37167000  0.48408000  0.12937000  1
  C  C113  1  0.37167000  0.98408000  0.37063000  1
  C  C114  1  0.37260000  0.05930000  0.03300000  1
  C  C115  1  0.37260000  0.55930000  0.46700000  1
  C  C116  1  0.39380000  0.07440000  0.97158000  1
  C  C117  1  0.39380000  0.57440000  0.52842000  1
  C  C118  1  0.45031000  0.46336000  0.15742000  1
  C  C119  1  0.45031000  0.96336000  0.34258000  1
  C  C120  1  0.54969000  0.03664000  0.65742000  1
  C  C121  1  0.54969000  0.53664000  0.84258000  1
  C  C122  1  0.60620000  0.42560000  0.47158000  1
  C  C123  1  0.60620000  0.92560000  0.02842000  1
  C  C124  1  0.62740000  0.44070000  0.53300000  1
  C  C125  1  0.62740000  0.94070000  0.96700000  1
  C  C126  1  0.62833000  0.01592000  0.62937000  1
  C  C127  1  0.62833000  0.51592000  0.87063000  1
  C  C128  1  0.63466000  0.00683000  0.56561000  1
  C  C129  1  0.63466000  0.50683000  0.93439000  1
  C  C130  1  0.63690000  0.38372000  0.36554000  1
  C  C131  1  0.63690000  0.88372000  0.13446000  1
  C  C132  1  0.65781000  0.39396000  0.43320000  1
  C  C133  1  0.65781000  0.89396000  0.06680000  1
  C  C134  1  0.69400000  0.00414000  0.66933000  1
  C  C135  1  0.69400000  0.50414000  0.83067000  1
  C  C136  1  0.70020000  0.42218000  0.55846000  1
  C  C137  1  0.70020000  0.92218000  0.94154000  1
  C  C138  1  0.70881000  0.48935000  0.95907000  1
  C  C139  1  0.70881000  0.98935000  0.54093000  1
  C  C140  1  0.71711000  0.48025000  0.02860000  1
  C  C141  1  0.71711000  0.98025000  0.47140000  1
  C  C142  1  0.73060000  0.37580000  0.45920000  1
  C  C143  1  0.73060000  0.87580000  0.04080000  1
  C  C144  1  0.75090000  0.38810000  0.52107000  1
  C  C145  1  0.75090000  0.88810000  0.97893000  1
  C  C146  1  0.76479000  0.48123000  0.85506000  1
  C  C147  1  0.76479000  0.98123000  0.64494000  1
  C  C148  1  0.77312000  0.47697000  0.91920000  1
  C  C149  1  0.77312000  0.97697000  0.58080000  1
  C  C150  1  0.77808000  0.42859000  0.66122000  1
  C  C151  1  0.77808000  0.92859000  0.83878000  1
  C  C152  1  0.79830000  0.04826000  0.29893000  1
  C  C153  1  0.79830000  0.54826000  0.20107000  1
  C  C154  1  0.81409000  0.17022000  0.25368000  1
  C  C155  1  0.81409000  0.67022000  0.24632000  1
  C  C156  1  0.81710000  0.28894000  0.20363000  1
  C  C157  1  0.81710000  0.78894000  0.29637000  1
  C  C158  1  0.83092000  0.44130000  0.75783000  1
  C  C159  1  0.83092000  0.94130000  0.74217000  1
  C  C160  1  0.84736000  0.10940000  0.26314000  1
  C  C161  1  0.84736000  0.60940000  0.23686000  1
  C  C162  1  0.85473000  0.22302000  0.21507000  1
  C  C163  1  0.85473000  0.72302000  0.28493000  1
  C  C164  1  0.89551000  0.38639000  0.68447000  1
  C  C165  1  0.89551000  0.88639000  0.81553000  1
  C  C166  1  0.92448000  0.10232000  0.23549000  1
  C  C167  1  0.92448000  0.60232000  0.26451000  1
  C  C168  1  0.93094000  0.21547000  0.18559000  1
  C  C169  1  0.93094000  0.71547000  0.31441000  1
  C  C170  1  0.96619000  0.15470000  0.19743000  1
  C  C171  1  0.96619000  0.65470000  0.30257000  1
  N  N172  1  0.04169000  0.14798000  0.16476000  1
  N  N173  1  0.04169000  0.64798000  0.33524000  1
  N  N174  1  0.10333000  0.09085000  0.24352000  1
  N  N175  1  0.10333000  0.59085000  0.25648000  1
  N  N176  1  0.16315000  0.10760000  0.14115000  1
  N  N177  1  0.16315000  0.60760000  0.35885000  1
  N  N178  1  0.17005000  0.03819000  0.31831000  1
  N  N179  1  0.17005000  0.53819000  0.18169000  1
  N  N180  1  0.22968000  0.04607000  0.21895000  1
  N  N181  1  0.22968000  0.54607000  0.28105000  1
  N  N182  1  0.28386000  0.05884000  0.12114000  1
  N  N183  1  0.28386000  0.55884000  0.37886000  1
  N  N184  1  0.71614000  0.44116000  0.62114000  1
  N  N185  1  0.71614000  0.94116000  0.87886000  1
  N  N186  1  0.77032000  0.45393000  0.71895000  1
  N  N187  1  0.77032000  0.95393000  0.78105000  1
  N  N188  1  0.82995000  0.46181000  0.81831000  1
  N  N189  1  0.82995000  0.96181000  0.68169000  1
  N  N190  1  0.83685000  0.39240000  0.64115000  1
  N  N191  1  0.83685000  0.89240000  0.85885000  1
  N  N192  1  0.89667000  0.40915000  0.74352000  1
  N  N193  1  0.89667000  0.90915000  0.75648000  1
  N  N194  1  0.95831000  0.35202000  0.66476000  1
  N  N195  1  0.95831000  0.85202000  0.83524000  1
  O  O196  1  0.15213000  0.17137000  0.66085000  1
  O  O197  1  0.15213000  0.67137000  0.83915000  1
  O  O198  1  0.17571000  0.00979000  0.70250000  1
  O  O199  1  0.17571000  0.50979000  0.79750000  1
  O  O200  1  0.21645000  0.03892000  0.54815000  1
  O  O201  1  0.21645000  0.53892000  0.95185000  1
  O  O202  1  0.24247000  0.20211000  0.73931000  1
  O  O203  1  0.24247000  0.70211000  0.76069000  1
  O  O204  1  0.26918000  0.44135000  0.82534000  1
  O  O205  1  0.26918000  0.94135000  0.67466000  1
  O  O206  1  0.30446000  0.11492000  0.64851000  1
  O  O207  1  0.30446000  0.61492000  0.85149000  1
  O  O208  1  0.30660000  0.12967000  0.82885000  1
  O  O209  1  0.30660000  0.62967000  0.67115000  1
  O  O210  1  0.34396000  0.00677000  0.56138000  1
  O  O211  1  0.34396000  0.50677000  0.93862000  1
  O  O212  1  0.38065000  0.05049000  0.73687000  1
  O  O213  1  0.38065000  0.55049000  0.76313000  1
  O  O214  1  0.43745000  0.11054000  0.85062000  1
  O  O215  1  0.43745000  0.61054000  0.64938000  1
  O  O216  1  0.43957000  0.43004000  0.20766000  1
  O  O217  1  0.43957000  0.93004000  0.29234000  1
  O  O218  1  0.48227000  0.02038000  0.62905000  1
  O  O219  1  0.48227000  0.52038000  0.87095000  1
  O  O220  1  0.51773000  0.47962000  0.12905000  1
  O  O221  1  0.51773000  0.97962000  0.37095000  1
  O  O222  1  0.56043000  0.06996000  0.70766000  1
  O  O223  1  0.56043000  0.56996000  0.79234000  1
  O  O224  1  0.56255000  0.38946000  0.35062000  1
  O  O225  1  0.56255000  0.88946000  0.14938000  1
  O  O226  1  0.61935000  0.44951000  0.23687000  1
  O  O227  1  0.61935000  0.94951000  0.26313000  1
  O  O228  1  0.65604000  0.49323000  0.06138000  1
  O  O229  1  0.65604000  0.99323000  0.43862000  1
  O  O230  1  0.69340000  0.37033000  0.32885000  1
  O  O231  1  0.69340000  0.87033000  0.17115000  1
  O  O232  1  0.69554000  0.38508000  0.14851000  1
  O  O233  1  0.69554000  0.88508000  0.35149000  1
  O  O234  1  0.73082000  0.05865000  0.32534000  1
  O  O235  1  0.73082000  0.55865000  0.17466000  1
  O  O236  1  0.75753000  0.29789000  0.23931000  1
  O  O237  1  0.75753000  0.79789000  0.26069000  1
  O  O238  1  0.78355000  0.46108000  0.04815000  1
  O  O239  1  0.78355000  0.96108000  0.45185000  1
  O  O240  1  0.82429000  0.49021000  0.20250000  1
  O  O241  1  0.82429000  0.99021000  0.29750000  1
  O  O242  1  0.84787000  0.32863000  0.16085000  1
  O  O243  1  0.84787000  0.82863000  0.33915000  1
