# generated using pymatgen
data_Mn2H41(C2O)24
_symmetry_space_group_name_H-M   'P 1'
_cell_length_a   12.30290000
_cell_length_b   17.43360000
_cell_length_c   17.49200000
_cell_angle_alpha   67.67000000
_cell_angle_beta   76.20000000
_cell_angle_gamma   71.88400000
_symmetry_Int_Tables_number   1
_chemical_formula_structural   Mn2H41(C2O)24
_chemical_formula_sum   'Mn4 H82 C96 O48'
_cell_volume   3267.30484360
_cell_formula_units_Z   2
loop_
 _symmetry_equiv_pos_site_id
 _symmetry_equiv_pos_as_xyz
  1  'x, y, z'
loop_
 _atom_site_type_symbol
 _atom_site_label
 _atom_site_symmetry_multiplicity
 _atom_site_fract_x
 _atom_site_fract_y
 _atom_site_fract_z
 _atom_site_occupancy
  Mn  Mn0  1  0.13054000  0.79954000  0.35449000  1
  Mn  Mn1  1  0.14298000  0.56495000  0.52963000  1
  Mn  Mn2  1  0.85702000  0.43505000  0.47037000  1
  Mn  Mn3  1  0.86946000  0.20046000  0.64551000  1
  H  H4  1  0.01540000  0.64600000  0.07110000  1
  H  H5  1  0.01830000  0.71310000  0.10950000  1
  H  H6  1  0.02680000  0.62920000  0.95560000  1
  H  H7  1  0.02700000  0.57320000  0.30140000  1
  H  H8  1  0.02880000  0.82590000  0.61740000  1
  H  H9  1  0.03670000  0.17640000  0.01100000  1
  H  H10  1  0.07810000  0.49400000  0.94280000  1
  H  H11  1  0.08620000  0.18990000  0.39130000  1
  H  H12  1  0.09290000  0.14010000  0.27230000  1
  H  H13  1  0.10650000  0.70130000  0.03140000  1
  H  H14  1  0.13270000  0.66830000  0.24830000  1
  H  H15  1  0.13280000  0.58520000  0.77320000  1
  H  H16  1  0.14900000  0.41830000  0.12350000  1
  H  H17  1  0.15580000  0.21700000  0.75610000  1
  H  H18  1  0.16990000  0.36510000  0.76210000  1
  H  H19  1  0.17440000  0.45810000  0.87960000  1
  H  H20  1  0.18830000  0.53020000  0.90670000  1
  H  H21  1  0.19210000  0.03660000  0.24130000  1
  H  H22  1  0.19560000  0.11740000  0.77800000  1
  H  H23  1  0.19780000  0.97880000  0.18980000  1
  H  H24  1  0.23490000  0.28360000  0.00590000  1
  H  H25  1  0.25760000  0.25740000  0.29810000  1
  H  H26  1  0.26080000  0.66680000  0.24770000  1
  H  H27  1  0.26190000  0.30630000  0.35570000  1
  H  H28  1  0.27900000  0.40110000  0.71840000  1
  H  H29  1  0.28270000  0.55510000  0.00720000  1
  H  H30  1  0.29730000  0.60540000  0.06020000  1
  H  H31  1  0.34420000  0.15160000  0.80770000  1
  H  H32  1  0.36730000  0.10490000  0.16640000  1
  H  H33  1  0.37240000  0.47650000  0.16030000  1
  H  H34  1  0.38270000  0.43210000  0.98460000  1
  H  H35  1  0.38970000  0.41940000  0.86330000  1
  H  H36  1  0.40650000  0.55160000  0.01950000  1
  H  H37  1  0.42830000  0.18810000  0.21380000  1
  H  H38  1  0.43540000  0.04570000  0.11320000  1
  H  H39  1  0.46600000  0.03640000  0.70150000  1
  H  H40  1  0.47260000  0.74580000  0.06920000  1
  H  H41  1  0.47640000  0.36620000  0.80940000  1
  H  H42  1  0.47740000  0.60320000  0.13370000  1
  H  H43  1  0.47970000  0.24270000  0.70590000  1
  H  H44  1  0.48050000  0.85690000  0.25150000  1
  H  H45  1  0.51950000  0.14310000  0.74850000  1
  H  H46  1  0.52030000  0.75730000  0.29410000  1
  H  H47  1  0.52260000  0.39680000  0.86630000  1
  H  H48  1  0.52360000  0.63380000  0.19060000  1
  H  H49  1  0.52740000  0.25420000  0.93080000  1
  H  H50  1  0.53400000  0.96360000  0.29850000  1
  H  H51  1  0.56460000  0.95430000  0.88680000  1
  H  H52  1  0.57170000  0.81190000  0.78620000  1
  H  H53  1  0.59350000  0.44840000  0.98050000  1
  H  H54  1  0.61030000  0.58060000  0.13670000  1
  H  H55  1  0.61730000  0.56790000  0.01540000  1
  H  H56  1  0.62760000  0.52350000  0.83970000  1
  H  H57  1  0.63270000  0.89510000  0.83360000  1
  H  H58  1  0.65580000  0.84840000  0.19230000  1
  H  H59  1  0.70270000  0.39460000  0.93980000  1
  H  H60  1  0.71730000  0.44490000  0.99280000  1
  H  H61  1  0.72100000  0.59890000  0.28160000  1
  H  H62  1  0.73810000  0.69370000  0.64430000  1
  H  H63  1  0.73920000  0.33320000  0.75230000  1
  H  H64  1  0.74240000  0.74260000  0.70190000  1
  H  H65  1  0.76510000  0.71640000  0.99410000  1
  H  H66  1  0.80220000  0.02120000  0.81020000  1
  H  H67  1  0.80440000  0.88260000  0.22200000  1
  H  H68  1  0.80790000  0.96340000  0.75870000  1
  H  H69  1  0.81170000  0.46980000  0.09330000  1
  H  H70  1  0.82560000  0.54190000  0.12040000  1
  H  H71  1  0.83010000  0.63490000  0.23790000  1
  H  H72  1  0.84420000  0.78300000  0.24390000  1
  H  H73  1  0.85100000  0.58170000  0.87650000  1
  H  H74  1  0.86720000  0.41480000  0.22680000  1
  H  H75  1  0.86730000  0.33170000  0.75170000  1
  H  H76  1  0.89350000  0.29870000  0.96860000  1
  H  H77  1  0.90710000  0.85990000  0.72770000  1
  H  H78  1  0.91380000  0.81010000  0.60870000  1
  H  H79  1  0.92190000  0.50600000  0.05720000  1
  H  H80  1  0.96330000  0.82360000  0.98900000  1
  H  H81  1  0.97120000  0.17410000  0.38260000  1
  H  H82  1  0.97300000  0.42680000  0.69860000  1
  H  H83  1  0.97320000  0.37080000  0.04440000  1
  H  H84  1  0.98170000  0.28690000  0.89050000  1
  H  H85  1  0.98460000  0.35400000  0.92890000  1
  C  C86  1  0.00420000  0.67600000  0.90920000  1
  C  C87  1  0.00630000  0.21690000  0.38240000  1
  C  C88  1  0.01110000  0.45820000  0.19780000  1
  C  C89  1  0.01720000  0.26750000  0.23290000  1
  C  C90  1  0.01940000  0.66190000  0.83450000  1
  C  C91  1  0.02230000  0.16340000  0.77380000  1
  C  C92  1  0.02340000  0.49500000  0.74860000  1
  C  C93  1  0.02890000  0.70110000  0.05870000  1
  C  C94  1  0.04270000  0.24470000  0.08050000  1
  C  C95  1  0.04700000  0.99680000  0.26460000  1
  C  C96  1  0.05170000  0.54160000  0.26520000  1
  C  C97  1  0.05540000  0.23110000  0.99820000  1
  C  C98  1  0.05850000  0.74540000  0.54860000  1
  C  C99  1  0.06730000  0.18620000  0.22630000  1
  C  C100  1  0.07340000  0.57610000  0.82210000  1
  C  C101  1  0.07810000  0.17530000  0.15100000  1
  C  C102  1  0.12400000  0.45000000  0.15960000  1
  C  C103  1  0.13420000  0.50830000  0.89450000  1
  C  C104  1  0.13590000  0.16370000  0.79150000  1
  C  C105  1  0.14850000  0.02540000  0.20890000  1
  C  C106  1  0.16340000  0.53100000  0.22500000  1
  C  C107  1  0.17740000  0.22350000  0.95200000  1
  C  C108  1  0.18610000  0.60370000  0.36310000  1
  C  C109  1  0.20080000  0.40530000  0.71220000  1
  C  C110  1  0.20180000  0.48500000  0.17080000  1
  C  C111  1  0.20490000  0.63220000  0.26840000  1
  C  C112  1  0.20550000  0.37900000  0.63840000  1
  C  C113  1  0.21110000  0.18660000  0.89050000  1
  C  C114  1  0.25660000  0.25760000  0.96520000  1
  C  C115  1  0.30910000  0.27360000  0.32010000  1
  C  C116  1  0.32160000  0.17950000  0.84700000  1
  C  C117  1  0.32310000  0.47600000  0.12410000  1
  C  C118  1  0.32780000  0.55430000  0.04540000  1
  C  C119  1  0.34660000  0.79950000  0.29270000  1
  C  C120  1  0.36640000  0.25460000  0.92070000  1
  C  C121  1  0.36840000  0.39160000  0.10930000  1
  C  C122  1  0.38370000  0.19480000  0.37140000  1
  C  C123  1  0.38550000  0.31700000  0.17660000  1
  C  C124  1  0.39160000  0.38260000  0.03090000  1
  C  C125  1  0.39700000  0.21310000  0.86180000  1
  C  C126  1  0.41950000  0.23740000  0.16720000  1
  C  C127  1  0.42690000  0.30500000  0.01760000  1
  C  C128  1  0.44060000  0.23140000  0.08740000  1
  C  C129  1  0.44260000  0.08480000  0.13780000  1
  C  C130  1  0.45160000  0.29440000  0.93320000  1
  C  C131  1  0.46090000  0.37680000  0.86140000  1
  C  C132  1  0.46860000  0.80250000  0.25710000  1
  C  C133  1  0.47450000  0.96300000  0.79910000  1
  C  C134  1  0.52550000  0.03700000  0.20090000  1
  C  C135  1  0.53140000  0.19750000  0.74290000  1
  C  C136  1  0.53910000  0.62320000  0.13860000  1
  C  C137  1  0.54840000  0.70560000  0.06680000  1
  C  C138  1  0.55740000  0.91520000  0.86220000  1
  C  C139  1  0.55940000  0.76860000  0.91260000  1
  C  C140  1  0.57310000  0.69500000  0.98240000  1
  C  C141  1  0.58050000  0.76260000  0.83280000  1
  C  C142  1  0.60300000  0.78690000  0.13820000  1
  C  C143  1  0.60840000  0.61740000  0.96910000  1
  C  C144  1  0.61450000  0.68300000  0.82340000  1
  C  C145  1  0.61630000  0.80520000  0.62860000  1
  C  C146  1  0.63160000  0.60840000  0.89070000  1
  C  C147  1  0.63360000  0.74540000  0.07930000  1
  C  C148  1  0.65340000  0.20050000  0.70730000  1
  C  C149  1  0.67220000  0.44570000  0.95460000  1
  C  C150  1  0.67690000  0.52400000  0.87590000  1
  C  C151  1  0.67840000  0.82050000  0.15300000  1
  C  C152  1  0.69090000  0.72640000  0.67990000  1
  C  C153  1  0.74340000  0.74240000  0.03480000  1
  C  C154  1  0.78890000  0.81340000  0.10950000  1
  C  C155  1  0.79450000  0.62100000  0.36160000  1
  C  C156  1  0.79510000  0.36780000  0.73160000  1
  C  C157  1  0.79820000  0.51500000  0.82920000  1
  C  C158  1  0.79920000  0.59470000  0.28780000  1
  C  C159  1  0.81390000  0.39630000  0.63690000  1
  C  C160  1  0.82260000  0.77650000  0.04800000  1
  C  C161  1  0.83660000  0.46900000  0.77500000  1
  C  C162  1  0.85150000  0.97460000  0.79110000  1
  C  C163  1  0.86410000  0.83630000  0.20850000  1
  C  C164  1  0.86580000  0.49170000  0.10550000  1
  C  C165  1  0.87600000  0.55000000  0.84040000  1
  C  C166  1  0.92190000  0.82470000  0.84900000  1
  C  C167  1  0.92660000  0.42390000  0.17790000  1
  C  C168  1  0.93270000  0.81380000  0.77370000  1
  C  C169  1  0.94150000  0.25460000  0.45140000  1
  C  C170  1  0.94460000  0.76890000  0.00180000  1
  C  C171  1  0.94830000  0.45840000  0.73480000  1
  C  C172  1  0.95300000  0.00320000  0.73540000  1
  C  C173  1  0.95730000  0.75530000  0.91950000  1
  C  C174  1  0.97110000  0.29890000  0.94130000  1
  C  C175  1  0.97660000  0.50500000  0.25140000  1
  C  C176  1  0.97770000  0.83660000  0.22620000  1
  C  C177  1  0.98060000  0.33810000  0.16550000  1
  C  C178  1  0.98280000  0.73250000  0.76710000  1
  C  C179  1  0.98890000  0.54180000  0.80220000  1
  C  C180  1  0.99370000  0.78310000  0.61760000  1
  C  C181  1  0.99580000  0.32400000  0.09080000  1
  O  O182  1  0.00030000  0.28430000  0.30600000  1
  O  O183  1  0.00880000  0.19560000  0.69830000  1
  O  O184  1  0.04590000  0.86780000  0.16990000  1
  O  O185  1  0.05200000  0.96590000  0.75400000  1
  O  O186  1  0.05410000  0.79690000  0.47670000  1
  O  O187  1  0.07050000  0.93470000  0.33100000  1
  O  O188  1  0.11210000  0.66940000  0.56890000  1
  O  O189  1  0.12400000  0.09830000  0.13890000  1
  O  O190  1  0.13220000  0.15430000  0.87560000  1
  O  O191  1  0.13490000  0.48750000  0.70690000  1
  O  O192  1  0.15150000  0.43240000  0.57970000  1
  O  O193  1  0.16880000  0.66090000  0.39450000  1
  O  O194  1  0.18750000  0.53040000  0.40620000  1
  O  O195  1  0.24360000  0.56540000  0.23450000  1
  O  O196  1  0.26450000  0.30660000  0.64080000  1
  O  O197  1  0.27530000  0.80640000  0.24890000  1
  O  O198  1  0.31770000  0.79090000  0.36930000  1
  O  O199  1  0.32830000  0.14660000  0.43040000  1
  O  O200  1  0.37150000  0.32650000  0.25290000  1
  O  O201  1  0.37720000  0.95260000  0.81460000  1
  O  O202  1  0.47600000  0.15560000  0.07330000  1
  O  O203  1  0.48510000  0.98770000  0.26670000  1
  O  O204  1  0.48910000  0.18020000  0.35480000  1
  O  O205  1  0.49220000  0.79190000  0.17850000  1
  O  O206  1  0.50780000  0.20810000  0.82150000  1
  O  O207  1  0.51090000  0.81980000  0.64520000  1
  O  O208  1  0.51490000  0.01230000  0.73330000  1
  O  O209  1  0.52400000  0.84440000  0.92670000  1
  O  O210  1  0.62280000  0.04740000  0.18540000  1
  O  O211  1  0.62850000  0.67350000  0.74710000  1
  O  O212  1  0.67170000  0.85340000  0.56960000  1
  O  O213  1  0.68230000  0.20910000  0.63070000  1
  O  O214  1  0.72470000  0.19360000  0.75110000  1
  O  O215  1  0.73550000  0.69340000  0.35920000  1
  O  O216  1  0.75640000  0.43460000  0.76550000  1
  O  O217  1  0.81250000  0.46960000  0.59380000  1
  O  O218  1  0.83120000  0.33910000  0.60550000  1
  O  O219  1  0.84850000  0.56760000  0.42030000  1
  O  O220  1  0.86510000  0.51250000  0.29310000  1
  O  O221  1  0.86780000  0.84570000  0.12440000  1
  O  O222  1  0.87600000  0.90170000  0.86110000  1
  O  O223  1  0.88790000  0.33060000  0.43110000  1
  O  O224  1  0.92950000  0.06530000  0.66900000  1
  O  O225  1  0.94590000  0.20310000  0.52330000  1
  O  O226  1  0.94800000  0.03410000  0.24600000  1
  O  O227  1  0.95410000  0.13220000  0.83010000  1
  O  O228  1  0.99120000  0.80440000  0.30170000  1
  O  O229  1  0.99970000  0.71570000  0.69400000  1
