# generated using pymatgen
data_Mn2W(CN)8
_symmetry_space_group_name_H-M   'P 1'
_cell_length_a   13.13000000
_cell_length_b   13.76190000
_cell_length_c   13.85920000
_cell_angle_alpha   114.00200000
_cell_angle_beta   112.31200000
_cell_angle_gamma   100.91900000
_symmetry_Int_Tables_number   1
_chemical_formula_structural   Mn2W(CN)8
_chemical_formula_sum   'Mn8 W4 C32 N32'
_cell_volume   1933.35624371
_cell_formula_units_Z   4
loop_
 _symmetry_equiv_pos_site_id
 _symmetry_equiv_pos_as_xyz
  1  'x, y, z'
loop_
 _atom_site_type_symbol
 _atom_site_label
 _atom_site_symmetry_multiplicity
 _atom_site_fract_x
 _atom_site_fract_y
 _atom_site_fract_z
 _atom_site_occupancy
  Mn  Mn0  1  0.01462000  0.27027000  0.12954000  1
  Mn  Mn1  1  0.23290000  0.80474000  0.35454000  1
  Mn  Mn2  1  0.37836000  0.45020000  0.64546000  1
  Mn  Mn3  1  0.38508000  0.14073000  0.87046000  1
  Mn  Mn4  1  0.61492000  0.85927000  0.12954000  1
  Mn  Mn5  1  0.62164000  0.54980000  0.35454000  1
  Mn  Mn6  1  0.76710000  0.19526000  0.64546000  1
  Mn  Mn7  1  0.98538000  0.72973000  0.87046000  1
  W  W8  1  0.22896000  0.47896000  0.95792000  1
  W  W9  1  0.37907000  0.12907000  0.25814000  1
  W  W10  1  0.62093000  0.87093000  0.74186000  1
  W  W11  1  0.77104000  0.52104000  0.04208000  1
  C  C12  1  0.04983000  0.35953000  0.80724000  1
  C  C13  1  0.13784000  0.38747000  0.01542000  1
  C  C14  1  0.13787000  0.57357000  0.89334000  1
  C  C15  1  0.22714000  0.97108000  0.10056000  1
  C  C16  1  0.22916000  0.17564000  0.19900000  1
  C  C17  1  0.23064000  0.60962000  0.11328000  1
  C  C18  1  0.25547000  0.31977000  0.89334000  1
  C  C19  1  0.25741000  0.44771000  0.80724000  1
  C  C20  1  0.32647000  0.01289000  0.31356000  1
  C  C21  1  0.37246000  0.24132000  0.41858000  1
  C  C22  1  0.37342000  0.12948000  0.10056000  1
  C  C23  1  0.37758000  0.62795000  0.01542000  1
  C  C24  1  0.38264000  0.50366000  0.11328000  1
  C  C25  1  0.45388000  0.82274000  0.58142000  1
  C  C26  1  0.46984000  0.02336000  0.19900000  1
  C  C27  1  0.48709000  0.30067000  0.31356000  1
  C  C28  1  0.51291000  0.69933000  0.68644000  1
  C  C29  1  0.53016000  0.97664000  0.80100000  1
  C  C30  1  0.54612000  0.17726000  0.41858000  1
  C  C31  1  0.61736000  0.49634000  0.88672000  1
  C  C32  1  0.62242000  0.37205000  0.98458000  1
  C  C33  1  0.62658000  0.87052000  0.89944000  1
  C  C34  1  0.62754000  0.75868000  0.58142000  1
  C  C35  1  0.67353000  0.98711000  0.68644000  1
  C  C36  1  0.74259000  0.55229000  0.19276000  1
  C  C37  1  0.74453000  0.68023000  0.10666000  1
  C  C38  1  0.76936000  0.39038000  0.88672000  1
  C  C39  1  0.77084000  0.82436000  0.80100000  1
  C  C40  1  0.77286000  0.02892000  0.89944000  1
  C  C41  1  0.86213000  0.42643000  0.10666000  1
  C  C42  1  0.86216000  0.61253000  0.98458000  1
  C  C43  1  0.95017000  0.64047000  0.19276000  1
  N  N44  1  0.04757000  0.70362000  0.27002000  1
  N  N45  1  0.08653000  0.33641000  0.04282000  1
  N  N46  1  0.08989000  0.62407000  0.86036000  1
  N  N47  1  0.14399000  0.88846000  0.01782000  1
  N  N48  1  0.15023000  0.20100000  0.16862000  1
  N  N49  1  0.23607000  0.67871000  0.19976000  1
  N  N50  1  0.27047000  0.23629000  0.86036000  1
  N  N51  1  0.27755000  0.43360000  0.72998000  1
  N  N52  1  0.29746000  0.94672000  0.33818000  1
  N  N53  1  0.36928000  0.80173000  0.49772000  1
  N  N54  1  0.37156000  0.30401000  0.50228000  1
  N  N55  1  0.37383000  0.12936000  0.01782000  1
  N  N56  1  0.45629000  0.70641000  0.04282000  1
  N  N57  1  0.45928000  0.60854000  0.66182000  1
  N  N58  1  0.46369000  0.52105000  0.19976000  1
  N  N59  1  0.48161000  0.03238000  0.83138000  1
  N  N60  1  0.51839000  0.96762000  0.16862000  1
  N  N61  1  0.53631000  0.47895000  0.80024000  1
  N  N62  1  0.54072000  0.39146000  0.33818000  1
  N  N63  1  0.54371000  0.29359000  0.95718000  1
  N  N64  1  0.62617000  0.87064000  0.98218000  1
  N  N65  1  0.62844000  0.69599000  0.49772000  1
  N  N66  1  0.63072000  0.19827000  0.50228000  1
  N  N67  1  0.70254000  0.05328000  0.66182000  1
  N  N68  1  0.72245000  0.56640000  0.27002000  1
  N  N69  1  0.72953000  0.76371000  0.13964000  1
  N  N70  1  0.76393000  0.32129000  0.80024000  1
  N  N71  1  0.84977000  0.79900000  0.83138000  1
  N  N72  1  0.85601000  0.11154000  0.98218000  1
  N  N73  1  0.91011000  0.37593000  0.13964000  1
  N  N74  1  0.91347000  0.66359000  0.95718000  1
  N  N75  1  0.95243000  0.29638000  0.72998000  1
