# generated using pymatgen
data_Al4P4O17
_symmetry_space_group_name_H-M   'P 1'
_cell_length_a   8.70100000
_cell_length_b   9.21000000
_cell_length_c   12.38500000
_cell_angle_alpha   111.11000000
_cell_angle_beta   101.42000000
_cell_angle_gamma   102.08000000
_symmetry_Int_Tables_number   1
_chemical_formula_structural   Al4P4O17
_chemical_formula_sum   'Al8 P8 O34'
_cell_volume   863.76964811
_cell_formula_units_Z   2
loop_
 _symmetry_equiv_pos_site_id
 _symmetry_equiv_pos_as_xyz
  1  'x, y, z'
loop_
 _atom_site_type_symbol
 _atom_site_label
 _atom_site_symmetry_multiplicity
 _atom_site_fract_x
 _atom_site_fract_y
 _atom_site_fract_z
 _atom_site_occupancy
  Al  Al0  1  0.01980000  0.33060000  0.05720000  1
  Al  Al1  1  0.30150000  0.79040000  0.37590000  1
  Al  Al2  1  0.35060000  0.21770000  0.85570000  1
  Al  Al3  1  0.49490000  0.79330000  0.85380000  1
  Al  Al4  1  0.50510000  0.20670000  0.14620000  1
  Al  Al5  1  0.64940000  0.78230000  0.14430000  1
  Al  Al6  1  0.69850000  0.20960000  0.62410000  1
  Al  Al7  1  0.98020000  0.66940000  0.94280000  1
  P  P8  1  0.03630000  0.34320000  0.81930000  1
  P  P9  1  0.22060000  0.94830000  0.93220000  1
  P  P10  1  0.40100000  0.51600000  0.19890000  1
  P  P11  1  0.44290000  0.94510000  0.65670000  1
  P  P12  1  0.55710000  0.05490000  0.34330000  1
  P  P13  1  0.59900000  0.48400000  0.80110000  1
  P  P14  1  0.77940000  0.05170000  0.06780000  1
  P  P15  1  0.96370000  0.65680000  0.18070000  1
  O  O16  1  0.04200000  0.71690000  0.09740000  1
  O  O17  1  0.04960000  0.84430000  0.92130000  1
  O  O18  1  0.07150000  0.52840000  0.86780000  1
  O  O19  1  0.09060000  0.74060000  0.30650000  1
  O  O20  1  0.19050000  0.06560000  0.87580000  1
  O  O21  1  0.19450000  0.30430000  0.81300000  1
  O  O22  1  0.23050000  0.40820000  0.10970000  1
  O  O23  1  0.30720000  0.83480000  0.86530000  1
  O  O24  1  0.31640000  0.04180000  0.06710000  1
  O  O25  1  0.32680000  0.84010000  0.52770000  1
  O  O26  1  0.36330000  0.06520000  0.72320000  1
  O  O27  1  0.37660000  0.62880000  0.31600000  1
  O  O28  1  0.39470000  0.96010000  0.35400000  1
  O  O29  1  0.48360000  0.83570000  0.71650000  1
  O  O30  1  0.48790000  0.61380000  0.14220000  1
  O  O31  1  0.48840000  0.25190000  0.00160000  1
  O  O32  1  0.49150000  0.40500000  0.23000000  1
  O  O33  1  0.50850000  0.59500000  0.77000000  1
  O  O34  1  0.51160000  0.74810000  0.99840000  1
  O  O35  1  0.51210000  0.38620000  0.85780000  1
  O  O36  1  0.51640000  0.16430000  0.28350000  1
  O  O37  1  0.60530000  0.03990000  0.64600000  1
  O  O38  1  0.62340000  0.37120000  0.68400000  1
  O  O39  1  0.63670000  0.93480000  0.27680000  1
  O  O40  1  0.67320000  0.15990000  0.47230000  1
  O  O41  1  0.68360000  0.95820000  0.93290000  1
  O  O42  1  0.69280000  0.16520000  0.13470000  1
  O  O43  1  0.76950000  0.59180000  0.89030000  1
  O  O44  1  0.80550000  0.69570000  0.18700000  1
  O  O45  1  0.80950000  0.93440000  0.12420000  1
  O  O46  1  0.90940000  0.25940000  0.69350000  1
  O  O47  1  0.92850000  0.47160000  0.13220000  1
  O  O48  1  0.95040000  0.15570000  0.07870000  1
  O  O49  1  0.95800000  0.28310000  0.90260000  1
