# generated using pymatgen
data_Mn5P2H2(C5O13)2
_symmetry_space_group_name_H-M   'P 1'
_cell_length_a   9.72050000
_cell_length_b   9.74680000
_cell_length_c   10.89260000
_cell_angle_alpha   83.98900000
_cell_angle_beta   75.46700000
_cell_angle_gamma   78.54500000
_symmetry_Int_Tables_number   1
_chemical_formula_structural   Mn5P2H2(C5O13)2
_chemical_formula_sum   'Mn5 P2 H2 C10 O26'
_cell_volume   977.44667254
_cell_formula_units_Z   1
loop_
 _symmetry_equiv_pos_site_id
 _symmetry_equiv_pos_as_xyz
  1  'x, y, z'
loop_
 _atom_site_type_symbol
 _atom_site_label
 _atom_site_symmetry_multiplicity
 _atom_site_fract_x
 _atom_site_fract_y
 _atom_site_fract_z
 _atom_site_occupancy
  Mn  Mn0  1  0.24086000  0.55013000  0.28165000  1
  Mn  Mn1  1  0.36465000  0.25534000  0.52307000  1
  Mn  Mn2  1  0.50000000  0.00000000  0.00000000  1
  Mn  Mn3  1  0.63535000  0.74466000  0.47693000  1
  Mn  Mn4  1  0.75914000  0.44987000  0.71835000  1
  P  P5  1  0.47556000  0.97749000  0.69689000  1
  P  P6  1  0.52444000  0.02251000  0.30311000  1
  H  H7  1  0.40700000  0.95790000  0.33140000  1
  H  H8  1  0.59300000  0.04210000  0.66860000  1
  C  C9  1  0.04720000  0.34890000  0.55480000  1
  C  C10  1  0.07650000  0.38930000  0.67810000  1
  C  C11  1  0.30020000  0.82690000  0.15680000  1
  C  C12  1  0.43920000  0.72080000  0.10630000  1
  C  C13  1  0.45360000  0.54110000  0.45470000  1
  C  C14  1  0.54640000  0.45890000  0.54530000  1
  C  C15  1  0.56080000  0.27920000  0.89370000  1
  C  C16  1  0.69980000  0.17310000  0.84320000  1
  C  C17  1  0.92350000  0.61070000  0.32190000  1
  C  C18  1  0.95280000  0.65110000  0.44520000  1
  O  O19  1  0.02990000  0.55400000  0.24170000  1
  O  O20  1  0.08020000  0.62590000  0.45530000  1
  O  O21  1  0.15450000  0.29110000  0.47530000  1
  O  O22  1  0.19960000  0.77790000  0.23030000  1
  O  O23  1  0.20460000  0.36140000  0.68890000  1
  O  O24  1  0.29790000  0.95390000  0.12180000  1
  O  O25  1  0.36790000  0.06080000  0.62540000  1
  O  O26  1  0.37550000  0.47240000  0.41860000  1
  O  O27  1  0.41740000  0.97630000  0.83980000  1
  O  O28  1  0.43460000  0.59610000  0.14200000  1
  O  O29  1  0.45710000  0.23230000  0.96790000  1
  O  O30  1  0.46430000  0.66510000  0.42370000  1
  O  O31  1  0.47240000  0.17170000  0.34610000  1
  O  O32  1  0.52760000  0.82830000  0.65390000  1
  O  O33  1  0.53570000  0.33490000  0.57630000  1
  O  O34  1  0.54290000  0.76770000  0.03210000  1
  O  O35  1  0.56540000  0.40390000  0.85800000  1
  O  O36  1  0.58260000  0.02370000  0.16020000  1
  O  O37  1  0.62450000  0.52760000  0.58140000  1
  O  O38  1  0.63210000  0.93920000  0.37460000  1
  O  O39  1  0.70210000  0.04610000  0.87820000  1
  O  O40  1  0.79540000  0.63860000  0.31110000  1
  O  O41  1  0.80040000  0.22210000  0.76970000  1
  O  O42  1  0.84550000  0.70890000  0.52470000  1
  O  O43  1  0.91980000  0.37410000  0.54470000  1
  O  O44  1  0.97010000  0.44600000  0.75830000  1
