# generated using pymatgen
data_CuH9C17NO5
_symmetry_space_group_name_H-M   'P 1'
_cell_length_a   37.16340000
_cell_length_b   37.16340000
_cell_length_c   37.16340000
_cell_angle_alpha   60.00000000
_cell_angle_beta   60.00000000
_cell_angle_gamma   60.00000000
_symmetry_Int_Tables_number   1
_chemical_formula_structural   CuH9C17NO5
_chemical_formula_sum   'Cu24 H216 C408 N24 O120'
_cell_volume   36293.70639590
_cell_formula_units_Z   24
loop_
 _symmetry_equiv_pos_site_id
 _symmetry_equiv_pos_as_xyz
  1  'x, y, z'
loop_
 _atom_site_type_symbol
 _atom_site_label
 _atom_site_symmetry_multiplicity
 _atom_site_fract_x
 _atom_site_fract_y
 _atom_site_fract_z
 _atom_site_occupancy
  Cu  Cu0  1  0.21508000  0.78492000  0.00000000  1
  Cu  Cu1  1  0.28620000  0.71380000  0.00000000  1
  Cu  Cu2  1  0.71380000  0.28620000  0.00000000  1
  Cu  Cu3  1  0.78492000  0.21508000  0.00000000  1
  Cu  Cu4  1  0.21508000  0.00000000  0.00000000  1
  Cu  Cu5  1  1.00000000  0.21508000  0.00000000  1
  Cu  Cu6  1  0.28620000  0.00000000  1.00000000  1
  Cu  Cu7  1  0.00000000  0.28620000  1.00000000  1
  Cu  Cu8  1  0.71380000  0.00000000  0.00000000  1
  Cu  Cu9  1  0.00000000  0.71380000  0.00000000  1
  Cu  Cu10  1  0.78492000  1.00000000  0.00000000  1
  Cu  Cu11  1  1.00000000  0.78492000  0.00000000  1
  Cu  Cu12  1  0.21508000  0.00000000  0.78492000  1
  Cu  Cu13  1  1.00000000  0.21508000  0.78492000  1
  Cu  Cu14  1  0.00000000  0.00000000  0.78492000  1
  Cu  Cu15  1  0.28620000  0.00000000  0.71380000  1
  Cu  Cu16  1  0.00000000  0.28620000  0.71380000  1
  Cu  Cu17  1  0.00000000  0.00000000  0.71380000  1
  Cu  Cu18  1  0.71380000  0.00000000  0.28620000  1
  Cu  Cu19  1  0.00000000  0.71380000  0.28620000  1
  Cu  Cu20  1  0.00000000  0.00000000  0.28620000  1
  Cu  Cu21  1  0.78492000  1.00000000  0.21508000  1
  Cu  Cu22  1  0.00000000  0.78492000  0.21508000  1
  Cu  Cu23  1  0.00000000  0.00000000  0.21508000  1
  H  H24  1  0.13630000  0.13630000  0.98370000  1
  H  H25  1  0.13630000  0.74370000  0.98370000  1
  H  H26  1  0.74370000  0.13630000  0.98370000  1
  H  H27  1  0.13900000  0.24580000  0.97560000  1
  H  H28  1  0.24580000  0.13900000  0.97560000  1
  H  H29  1  0.13900000  0.63960000  0.97560000  1
  H  H30  1  0.63960000  0.13900000  0.97560000  1
  H  H31  1  0.24580000  0.63960000  0.97560000  1
  H  H32  1  0.63960000  0.24580000  0.97560000  1
  H  H33  1  0.27400000  0.38180000  0.96240000  1
  H  H34  1  0.38180000  0.27400000  0.96240000  1
  H  H35  1  0.38180000  0.38180000  0.96240000  1
  H  H36  1  0.21290000  0.30970000  0.95650000  1
  H  H37  1  0.30970000  0.21290000  0.95650000  1
  H  H38  1  0.21290000  0.52090000  0.95650000  1
  H  H39  1  0.52090000  0.21290000  0.95650000  1
  H  H40  1  0.30970000  0.52090000  0.95650000  1
  H  H41  1  0.52090000  0.30970000  0.95650000  1
  H  H42  1  0.25320000  0.35160000  0.94180000  1
  H  H43  1  0.35160000  0.25320000  0.94180000  1
  H  H44  1  0.25320000  0.45340000  0.94180000  1
  H  H45  1  0.45340000  0.25320000  0.94180000  1
  H  H46  1  0.35160000  0.45340000  0.94180000  1
  H  H47  1  0.45340000  0.35160000  0.94180000  1
  H  H48  1  0.23610000  0.23610000  0.93990000  1
  H  H49  1  0.23610000  0.58790000  0.93990000  1
  H  H50  1  0.58790000  0.23610000  0.93990000  1
  H  H51  1  0.01630000  0.25630000  0.86370000  1
  H  H52  1  0.25630000  0.01630000  0.86370000  1
  H  H53  1  0.01630000  0.86370000  0.86370000  1
  H  H54  1  0.86370000  0.01630000  0.86370000  1
  H  H55  1  0.25630000  0.86370000  0.86370000  1
  H  H56  1  0.86370000  0.25630000  0.86370000  1
  H  H57  1  0.02440000  0.36040000  0.86100000  1
  H  H58  1  0.36040000  0.02440000  0.86100000  1
  H  H59  1  0.02440000  0.75420000  0.86100000  1
  H  H60  1  0.75420000  0.02440000  0.86100000  1
  H  H61  1  0.36040000  0.75420000  0.86100000  1
  H  H62  1  0.75420000  0.36040000  0.86100000  1
  H  H63  1  0.04350000  0.47910000  0.78710000  1
  H  H64  1  0.47910000  0.04350000  0.78710000  1
  H  H65  1  0.04350000  0.69030000  0.78710000  1
  H  H66  1  0.69030000  0.04350000  0.78710000  1
  H  H67  1  0.47910000  0.69030000  0.78710000  1
  H  H68  1  0.69030000  0.47910000  0.78710000  1
  H  H69  1  0.06010000  0.41210000  0.76390000  1
  H  H70  1  0.41210000  0.06010000  0.76390000  1
  H  H71  1  0.06010000  0.76390000  0.76390000  1
  H  H72  1  0.76390000  0.06010000  0.76390000  1
  H  H73  1  0.41210000  0.76390000  0.76390000  1
  H  H74  1  0.76390000  0.41210000  0.76390000  1
  H  H75  1  0.02440000  0.36040000  0.75420000  1
  H  H76  1  0.36040000  0.02440000  0.75420000  1
  H  H77  1  0.02440000  0.86100000  0.75420000  1
  H  H78  1  0.86100000  0.02440000  0.75420000  1
  H  H79  1  0.36040000  0.86100000  0.75420000  1
  H  H80  1  0.86100000  0.36040000  0.75420000  1
  H  H81  1  0.05820000  0.54660000  0.74680000  1
  H  H82  1  0.54660000  0.05820000  0.74680000  1
  H  H83  1  0.05820000  0.64840000  0.74680000  1
  H  H84  1  0.64840000  0.05820000  0.74680000  1
  H  H85  1  0.54660000  0.64840000  0.74680000  1
  H  H86  1  0.64840000  0.54660000  0.74680000  1
  H  H87  1  0.13630000  0.13630000  0.74370000  1
  H  H88  1  0.13630000  0.98370000  0.74370000  1
  H  H89  1  0.98370000  0.13630000  0.74370000  1
  H  H90  1  0.03760000  0.61820000  0.72600000  1
  H  H91  1  0.61820000  0.03760000  0.72600000  1
  H  H92  1  0.61820000  0.61820000  0.72600000  1
  H  H93  1  0.04350000  0.47910000  0.69030000  1
  H  H94  1  0.47910000  0.04350000  0.69030000  1
  H  H95  1  0.04350000  0.78710000  0.69030000  1
  H  H96  1  0.78710000  0.04350000  0.69030000  1
  H  H97  1  0.47910000  0.78710000  0.69030000  1
  H  H98  1  0.78710000  0.47910000  0.69030000  1
  H  H99  1  0.05820000  0.54660000  0.64840000  1
  H  H100  1  0.54660000  0.05820000  0.64840000  1
  H  H101  1  0.05820000  0.74680000  0.64840000  1
  H  H102  1  0.74680000  0.05820000  0.64840000  1
  H  H103  1  0.54660000  0.74680000  0.64840000  1
  H  H104  1  0.74680000  0.54660000  0.64840000  1
  H  H105  1  0.13900000  0.24580000  0.63960000  1
  H  H106  1  0.24580000  0.13900000  0.63960000  1
  H  H107  1  0.13900000  0.97560000  0.63960000  1
  H  H108  1  0.97560000  0.13900000  0.63960000  1
  H  H109  1  0.24580000  0.97560000  0.63960000  1
  H  H110  1  0.97560000  0.24580000  0.63960000  1
  H  H111  1  0.03760000  0.61820000  0.61820000  1
  H  H112  1  0.61820000  0.03760000  0.61820000  1
  H  H113  1  0.03760000  0.72600000  0.61820000  1
  H  H114  1  0.72600000  0.03760000  0.61820000  1
  H  H115  1  0.61820000  0.72600000  0.61820000  1
  H  H116  1  0.72600000  0.61820000  0.61820000  1
  H  H117  1  0.23610000  0.23610000  0.58790000  1
  H  H118  1  0.23610000  0.93990000  0.58790000  1
  H  H119  1  0.93990000  0.23610000  0.58790000  1
  H  H120  1  0.05820000  0.64840000  0.54660000  1
  H  H121  1  0.64840000  0.05820000  0.54660000  1
  H  H122  1  0.05820000  0.74680000  0.54660000  1
  H  H123  1  0.74680000  0.05820000  0.54660000  1
  H  H124  1  0.64840000  0.74680000  0.54660000  1
  H  H125  1  0.74680000  0.64840000  0.54660000  1
  H  H126  1  0.21290000  0.30970000  0.52090000  1
  H  H127  1  0.30970000  0.21290000  0.52090000  1
  H  H128  1  0.21290000  0.95650000  0.52090000  1
  H  H129  1  0.95650000  0.21290000  0.52090000  1
  H  H130  1  0.30970000  0.95650000  0.52090000  1
  H  H131  1  0.95650000  0.30970000  0.52090000  1
  H  H132  1  0.04350000  0.69030000  0.47910000  1
  H  H133  1  0.69030000  0.04350000  0.47910000  1
  H  H134  1  0.04350000  0.78710000  0.47910000  1
  H  H135  1  0.78710000  0.04350000  0.47910000  1
  H  H136  1  0.69030000  0.78710000  0.47910000  1
  H  H137  1  0.78710000  0.69030000  0.47910000  1
  H  H138  1  0.25320000  0.35160000  0.45340000  1
  H  H139  1  0.35160000  0.25320000  0.45340000  1
  H  H140  1  0.25320000  0.94180000  0.45340000  1
  H  H141  1  0.94180000  0.25320000  0.45340000  1
  H  H142  1  0.35160000  0.94180000  0.45340000  1
  H  H143  1  0.94180000  0.35160000  0.45340000  1
  H  H144  1  0.06010000  0.76390000  0.41210000  1
  H  H145  1  0.76390000  0.06010000  0.41210000  1
  H  H146  1  0.76390000  0.76390000  0.41210000  1
  H  H147  1  0.27400000  0.38180000  0.38180000  1
  H  H148  1  0.38180000  0.27400000  0.38180000  1
  H  H149  1  0.27400000  0.96240000  0.38180000  1
  H  H150  1  0.96240000  0.27400000  0.38180000  1
  H  H151  1  0.38180000  0.96240000  0.38180000  1
  H  H152  1  0.96240000  0.38180000  0.38180000  1
  H  H153  1  0.02440000  0.75420000  0.36040000  1
  H  H154  1  0.75420000  0.02440000  0.36040000  1
  H  H155  1  0.02440000  0.86100000  0.36040000  1
  H  H156  1  0.86100000  0.02440000  0.36040000  1
  H  H157  1  0.75420000  0.86100000  0.36040000  1
  H  H158  1  0.86100000  0.75420000  0.36040000  1
  H  H159  1  0.25320000  0.45340000  0.35160000  1
  H  H160  1  0.45340000  0.25320000  0.35160000  1
  H  H161  1  0.25320000  0.94180000  0.35160000  1
  H  H162  1  0.94180000  0.25320000  0.35160000  1
  H  H163  1  0.45340000  0.94180000  0.35160000  1
  H  H164  1  0.94180000  0.45340000  0.35160000  1
  H  H165  1  0.21290000  0.52090000  0.30970000  1
  H  H166  1  0.52090000  0.21290000  0.30970000  1
  H  H167  1  0.21290000  0.95650000  0.30970000  1
  H  H168  1  0.95650000  0.21290000  0.30970000  1
  H  H169  1  0.52090000  0.95650000  0.30970000  1
  H  H170  1  0.95650000  0.52090000  0.30970000  1
  H  H171  1  0.38180000  0.38180000  0.27400000  1
  H  H172  1  0.38180000  0.96240000  0.27400000  1
  H  H173  1  0.96240000  0.38180000  0.27400000  1
  H  H174  1  0.01630000  0.86370000  0.25630000  1
  H  H175  1  0.86370000  0.01630000  0.25630000  1
  H  H176  1  0.86370000  0.86370000  0.25630000  1
  H  H177  1  0.35160000  0.45340000  0.25320000  1
  H  H178  1  0.45340000  0.35160000  0.25320000  1
  H  H179  1  0.35160000  0.94180000  0.25320000  1
  H  H180  1  0.94180000  0.35160000  0.25320000  1
  H  H181  1  0.45340000  0.94180000  0.25320000  1
  H  H182  1  0.94180000  0.45340000  0.25320000  1
  H  H183  1  0.13900000  0.63960000  0.24580000  1
  H  H184  1  0.63960000  0.13900000  0.24580000  1
  H  H185  1  0.13900000  0.97560000  0.24580000  1
  H  H186  1  0.97560000  0.13900000  0.24580000  1
  H  H187  1  0.63960000  0.97560000  0.24580000  1
  H  H188  1  0.97560000  0.63960000  0.24580000  1
  H  H189  1  0.23610000  0.58790000  0.23610000  1
  H  H190  1  0.58790000  0.23610000  0.23610000  1
  H  H191  1  0.23610000  0.93990000  0.23610000  1
  H  H192  1  0.93990000  0.23610000  0.23610000  1
  H  H193  1  0.58790000  0.93990000  0.23610000  1
  H  H194  1  0.93990000  0.58790000  0.23610000  1
  H  H195  1  0.30970000  0.52090000  0.21290000  1
  H  H196  1  0.52090000  0.30970000  0.21290000  1
  H  H197  1  0.30970000  0.95650000  0.21290000  1
  H  H198  1  0.95650000  0.30970000  0.21290000  1
  H  H199  1  0.52090000  0.95650000  0.21290000  1
  H  H200  1  0.95650000  0.52090000  0.21290000  1
  H  H201  1  0.24580000  0.63960000  0.13900000  1
  H  H202  1  0.63960000  0.24580000  0.13900000  1
  H  H203  1  0.24580000  0.97560000  0.13900000  1
  H  H204  1  0.97560000  0.24580000  0.13900000  1
  H  H205  1  0.63960000  0.97560000  0.13900000  1
  H  H206  1  0.97560000  0.63960000  0.13900000  1
  H  H207  1  0.13630000  0.74370000  0.13630000  1
  H  H208  1  0.74370000  0.13630000  0.13630000  1
  H  H209  1  0.13630000  0.98370000  0.13630000  1
  H  H210  1  0.98370000  0.13630000  0.13630000  1
  H  H211  1  0.74370000  0.98370000  0.13630000  1
  H  H212  1  0.98370000  0.74370000  0.13630000  1
  H  H213  1  0.41210000  0.76390000  0.06010000  1
  H  H214  1  0.76390000  0.41210000  0.06010000  1
  H  H215  1  0.76390000  0.76390000  0.06010000  1
  H  H216  1  0.54660000  0.64840000  0.05820000  1
  H  H217  1  0.64840000  0.54660000  0.05820000  1
  H  H218  1  0.54660000  0.74680000  0.05820000  1
  H  H219  1  0.74680000  0.54660000  0.05820000  1
  H  H220  1  0.64840000  0.74680000  0.05820000  1
  H  H221  1  0.74680000  0.64840000  0.05820000  1
  H  H222  1  0.47910000  0.69030000  0.04350000  1
  H  H223  1  0.69030000  0.47910000  0.04350000  1
  H  H224  1  0.47910000  0.78710000  0.04350000  1
  H  H225  1  0.78710000  0.47910000  0.04350000  1
  H  H226  1  0.69030000  0.78710000  0.04350000  1
  H  H227  1  0.78710000  0.69030000  0.04350000  1
  H  H228  1  0.61820000  0.61820000  0.03760000  1
  H  H229  1  0.61820000  0.72600000  0.03760000  1
  H  H230  1  0.72600000  0.61820000  0.03760000  1
  H  H231  1  0.36040000  0.75420000  0.02440000  1
  H  H232  1  0.75420000  0.36040000  0.02440000  1
  H  H233  1  0.36040000  0.86100000  0.02440000  1
  H  H234  1  0.86100000  0.36040000  0.02440000  1
  H  H235  1  0.75420000  0.86100000  0.02440000  1
  H  H236  1  0.86100000  0.75420000  0.02440000  1
  H  H237  1  0.25630000  0.86370000  0.01630000  1
  H  H238  1  0.86370000  0.25630000  0.01630000  1
  H  H239  1  0.86370000  0.86370000  0.01630000  1
  C  C240  1  0.22390000  0.22390000  0.99994000  1
  C  C241  1  0.22390000  0.55226000  0.99994000  1
  C  C242  1  0.55226000  0.22390000  0.99994000  1
  C  C243  1  0.08113000  0.21641000  0.98781000  1
  C  C244  1  0.21641000  0.08113000  0.98781000  1
  C  C245  1  0.08113000  0.71465000  0.98781000  1
  C  C246  1  0.71465000  0.08113000  0.98781000  1
  C  C247  1  0.21641000  0.71465000  0.98781000  1
  C  C248  1  0.71465000  0.21641000  0.98781000  1
  C  C249  1  0.25063000  0.25063000  0.98721000  1
  C  C250  1  0.25063000  0.51153000  0.98721000  1
  C  C251  1  0.51153000  0.25063000  0.98721000  1
  C  C252  1  0.15091000  0.15091000  0.98329000  1
  C  C253  1  0.15091000  0.71489000  0.98329000  1
  C  C254  1  0.71489000  0.15091000  0.98329000  1
  C  C255  1  0.12918000  0.19416000  0.98298000  1
  C  C256  1  0.19416000  0.12918000  0.98298000  1
  C  C257  1  0.12918000  0.69368000  0.98298000  1
  C  C258  1  0.69368000  0.12918000  0.98298000  1
  C  C259  1  0.19416000  0.69368000  0.98298000  1
  C  C260  1  0.69368000  0.19416000  0.98298000  1
  C  C261  1  0.15314000  0.21636000  0.97730000  1
  C  C262  1  0.21636000  0.15314000  0.97730000  1
  C  C263  1  0.15314000  0.65320000  0.97730000  1
  C  C264  1  0.65320000  0.15314000  0.97730000  1
  C  C265  1  0.21636000  0.65320000  0.97730000  1
  C  C266  1  0.65320000  0.21636000  0.97730000  1
  C  C267  1  0.19711000  0.19711000  0.97413000  1
  C  C268  1  0.19711000  0.63165000  0.97413000  1
  C  C269  1  0.63165000  0.19711000  0.97413000  1
  C  C270  1  0.29832000  0.29832000  0.97172000  1
  C  C271  1  0.29832000  0.43164000  0.97172000  1
  C  C272  1  0.43164000  0.29832000  0.97172000  1
  C  C273  1  0.32322000  0.32322000  0.96722000  1
  C  C274  1  0.32322000  0.38634000  0.96722000  1
  C  C275  1  0.38634000  0.32322000  0.96722000  1
  C  C276  1  0.23824000  0.29506000  0.96562000  1
  C  C277  1  0.29506000  0.23824000  0.96562000  1
  C  C278  1  0.23824000  0.50108000  0.96562000  1
  C  C279  1  0.50108000  0.23824000  0.96562000  1
  C  C280  1  0.29506000  0.50108000  0.96562000  1
  C  C281  1  0.50108000  0.29506000  0.96562000  1
  C  C282  1  0.30191000  0.36649000  0.96511000  1
  C  C283  1  0.36649000  0.30191000  0.96511000  1
  C  C284  1  0.36649000  0.36649000  0.96511000  1
  C  C285  1  0.26171000  0.32035000  0.95689000  1
  C  C286  1  0.32035000  0.26171000  0.95689000  1
  C  C287  1  0.26171000  0.46105000  0.95689000  1
  C  C288  1  0.46105000  0.26171000  0.95689000  1
  C  C289  1  0.32035000  0.46105000  0.95689000  1
  C  C290  1  0.46105000  0.32035000  0.95689000  1
  C  C291  1  0.01219000  0.28535000  0.91887000  1
  C  C292  1  0.28535000  0.01219000  0.91887000  1
  C  C293  1  0.01219000  0.78359000  0.91887000  1
  C  C294  1  0.78359000  0.01219000  0.91887000  1
  C  C295  1  0.28535000  0.78359000  0.91887000  1
  C  C296  1  0.78359000  0.28535000  0.91887000  1
  C  C297  1  0.01702000  0.30632000  0.87082000  1
  C  C298  1  0.30632000  0.01702000  0.87082000  1
  C  C299  1  0.01702000  0.80584000  0.87082000  1
  C  C300  1  0.80584000  0.01702000  0.87082000  1
  C  C301  1  0.30632000  0.80584000  0.87082000  1
  C  C302  1  0.80584000  0.30632000  0.87082000  1
  C  C303  1  0.01671000  0.28511000  0.84909000  1
  C  C304  1  0.28511000  0.01671000  0.84909000  1
  C  C305  1  0.01671000  0.84909000  0.84909000  1
  C  C306  1  0.84909000  0.01671000  0.84909000  1
  C  C307  1  0.28511000  0.84909000  0.84909000  1
  C  C308  1  0.84909000  0.28511000  0.84909000  1
  C  C309  1  0.02270000  0.34680000  0.84686000  1
  C  C310  1  0.34680000  0.02270000  0.84686000  1
  C  C311  1  0.02270000  0.78364000  0.84686000  1
  C  C312  1  0.78364000  0.02270000  0.84686000  1
  C  C313  1  0.34680000  0.78364000  0.84686000  1
  C  C314  1  0.78364000  0.34680000  0.84686000  1
  C  C315  1  0.01702000  0.30632000  0.80584000  1
  C  C316  1  0.30632000  0.01702000  0.80584000  1
  C  C317  1  0.01702000  0.87082000  0.80584000  1
  C  C318  1  0.87082000  0.01702000  0.80584000  1
  C  C319  1  0.30632000  0.87082000  0.80584000  1
  C  C320  1  0.87082000  0.30632000  0.80584000  1
  C  C321  1  0.02587000  0.36835000  0.80289000  1
  C  C322  1  0.36835000  0.02587000  0.80289000  1
  C  C323  1  0.02587000  0.80289000  0.80289000  1
  C  C324  1  0.80289000  0.02587000  0.80289000  1
  C  C325  1  0.36835000  0.80289000  0.80289000  1
  C  C326  1  0.80289000  0.36835000  0.80289000  1
  C  C327  1  0.02270000  0.34680000  0.78364000  1
  C  C328  1  0.34680000  0.02270000  0.78364000  1
  C  C329  1  0.02270000  0.84686000  0.78364000  1
  C  C330  1  0.84686000  0.02270000  0.78364000  1
  C  C331  1  0.34680000  0.84686000  0.78364000  1
  C  C332  1  0.84686000  0.34680000  0.78364000  1
  C  C333  1  0.01219000  0.28535000  0.78359000  1
  C  C334  1  0.28535000  0.01219000  0.78359000  1
  C  C335  1  0.01219000  0.91887000  0.78359000  1
  C  C336  1  0.91887000  0.01219000  0.78359000  1
  C  C337  1  0.28535000  0.91887000  0.78359000  1
  C  C338  1  0.91887000  0.28535000  0.78359000  1
  C  C339  1  0.00006000  0.44774000  0.77610000  1
  C  C340  1  0.44774000  0.00006000  0.77610000  1
  C  C341  1  0.00006000  0.77610000  0.77610000  1
  C  C342  1  0.77610000  0.00006000  0.77610000  1
  C  C343  1  0.44774000  0.77610000  0.77610000  1
  C  C344  1  0.77610000  0.44774000  0.77610000  1
  C  C345  1  0.03438000  0.49892000  0.76176000  1
  C  C346  1  0.49892000  0.03438000  0.76176000  1
  C  C347  1  0.03438000  0.70494000  0.76176000  1
  C  C348  1  0.70494000  0.03438000  0.76176000  1
  C  C349  1  0.49892000  0.70494000  0.76176000  1
  C  C350  1  0.70494000  0.49892000  0.76176000  1
  C  C351  1  0.01279000  0.48847000  0.74937000  1
  C  C352  1  0.48847000  0.01279000  0.74937000  1
  C  C353  1  0.01279000  0.74937000  0.74937000  1
  C  C354  1  0.74937000  0.01279000  0.74937000  1
  C  C355  1  0.48847000  0.74937000  0.74937000  1
  C  C356  1  0.74937000  0.48847000  0.74937000  1
  C  C357  1  0.04311000  0.53895000  0.73829000  1
  C  C358  1  0.53895000  0.04311000  0.73829000  1
  C  C359  1  0.04311000  0.67965000  0.73829000  1
  C  C360  1  0.67965000  0.04311000  0.73829000  1
  C  C361  1  0.53895000  0.67965000  0.73829000  1
  C  C362  1  0.67965000  0.53895000  0.73829000  1
  C  C363  1  0.15091000  0.15091000  0.71489000  1
  C  C364  1  0.15091000  0.98329000  0.71489000  1
  C  C365  1  0.98329000  0.15091000  0.71489000  1
  C  C366  1  0.08113000  0.21641000  0.71465000  1
  C  C367  1  0.21641000  0.08113000  0.71465000  1
  C  C368  1  0.08113000  0.98781000  0.71465000  1
  C  C369  1  0.98781000  0.08113000  0.71465000  1
  C  C370  1  0.21641000  0.98781000  0.71465000  1
  C  C371  1  0.98781000  0.21641000  0.71465000  1
  C  C372  1  0.03438000  0.49892000  0.70494000  1
  C  C373  1  0.49892000  0.03438000  0.70494000  1
  C  C374  1  0.03438000  0.76176000  0.70494000  1
  C  C375  1  0.76176000  0.03438000  0.70494000  1
  C  C376  1  0.49892000  0.76176000  0.70494000  1
  C  C377  1  0.76176000  0.49892000  0.70494000  1
  C  C378  1  0.02828000  0.56836000  0.70168000  1
  C  C379  1  0.56836000  0.02828000  0.70168000  1
  C  C380  1  0.02828000  0.70168000  0.70168000  1
  C  C381  1  0.70168000  0.02828000  0.70168000  1
  C  C382  1  0.56836000  0.70168000  0.70168000  1
  C  C383  1  0.70168000  0.56836000  0.70168000  1
  C  C384  1  0.03489000  0.63351000  0.69809000  1
  C  C385  1  0.63351000  0.03489000  0.69809000  1
  C  C386  1  0.63351000  0.63351000  0.69809000  1
  C  C387  1  0.12918000  0.19416000  0.69368000  1
  C  C388  1  0.19416000  0.12918000  0.69368000  1
  C  C389  1  0.12918000  0.98298000  0.69368000  1
  C  C390  1  0.98298000  0.12918000  0.69368000  1
  C  C391  1  0.19416000  0.98298000  0.69368000  1
  C  C392  1  0.98298000  0.19416000  0.69368000  1
  C  C393  1  0.04311000  0.53895000  0.67965000  1
  C  C394  1  0.53895000  0.04311000  0.67965000  1
  C  C395  1  0.04311000  0.73829000  0.67965000  1
  C  C396  1  0.73829000  0.04311000  0.67965000  1
  C  C397  1  0.53895000  0.73829000  0.67965000  1
  C  C398  1  0.73829000  0.53895000  0.67965000  1
  C  C399  1  0.03278000  0.61366000  0.67678000  1
  C  C400  1  0.61366000  0.03278000  0.67678000  1
  C  C401  1  0.03278000  0.67678000  0.67678000  1
  C  C402  1  0.67678000  0.03278000  0.67678000  1
  C  C403  1  0.61366000  0.67678000  0.67678000  1
  C  C404  1  0.67678000  0.61366000  0.67678000  1
  C  C405  1  0.15314000  0.21636000  0.65320000  1
  C  C406  1  0.21636000  0.15314000  0.65320000  1
  C  C407  1  0.15314000  0.97730000  0.65320000  1
  C  C408  1  0.97730000  0.15314000  0.65320000  1
  C  C409  1  0.21636000  0.97730000  0.65320000  1
  C  C410  1  0.97730000  0.21636000  0.65320000  1
  C  C411  1  0.03489000  0.63351000  0.63351000  1
  C  C412  1  0.63351000  0.03489000  0.63351000  1
  C  C413  1  0.03489000  0.69809000  0.63351000  1
  C  C414  1  0.69809000  0.03489000  0.63351000  1
  C  C415  1  0.63351000  0.69809000  0.63351000  1
  C  C416  1  0.69809000  0.63351000  0.63351000  1
  C  C417  1  0.19711000  0.19711000  0.63165000  1
  C  C418  1  0.19711000  0.97413000  0.63165000  1
  C  C419  1  0.97413000  0.19711000  0.63165000  1
  C  C420  1  0.03278000  0.67678000  0.61366000  1
  C  C421  1  0.67678000  0.03278000  0.61366000  1
  C  C422  1  0.67678000  0.67678000  0.61366000  1
  C  C423  1  0.02828000  0.70168000  0.56836000  1
  C  C424  1  0.70168000  0.02828000  0.56836000  1
  C  C425  1  0.70168000  0.70168000  0.56836000  1
  C  C426  1  0.22390000  0.22390000  0.55226000  1
  C  C427  1  0.22390000  0.99994000  0.55226000  1
  C  C428  1  0.99994000  0.22390000  0.55226000  1
  C  C429  1  0.04311000  0.67965000  0.53895000  1
  C  C430  1  0.67965000  0.04311000  0.53895000  1
  C  C431  1  0.04311000  0.73829000  0.53895000  1
  C  C432  1  0.73829000  0.04311000  0.53895000  1
  C  C433  1  0.67965000  0.73829000  0.53895000  1
  C  C434  1  0.73829000  0.67965000  0.53895000  1
  C  C435  1  0.25063000  0.25063000  0.51153000  1
  C  C436  1  0.25063000  0.98721000  0.51153000  1
  C  C437  1  0.98721000  0.25063000  0.51153000  1
  C  C438  1  0.23824000  0.29506000  0.50108000  1
  C  C439  1  0.29506000  0.23824000  0.50108000  1
  C  C440  1  0.23824000  0.96562000  0.50108000  1
  C  C441  1  0.96562000  0.23824000  0.50108000  1
  C  C442  1  0.29506000  0.96562000  0.50108000  1
  C  C443  1  0.96562000  0.29506000  0.50108000  1
  C  C444  1  0.03438000  0.70494000  0.49892000  1
  C  C445  1  0.70494000  0.03438000  0.49892000  1
  C  C446  1  0.03438000  0.76176000  0.49892000  1
  C  C447  1  0.76176000  0.03438000  0.49892000  1
  C  C448  1  0.70494000  0.76176000  0.49892000  1
  C  C449  1  0.76176000  0.70494000  0.49892000  1
  C  C450  1  0.01279000  0.74937000  0.48847000  1
  C  C451  1  0.74937000  0.01279000  0.48847000  1
  C  C452  1  0.74937000  0.74937000  0.48847000  1
  C  C453  1  0.26171000  0.32035000  0.46105000  1
  C  C454  1  0.32035000  0.26171000  0.46105000  1
  C  C455  1  0.26171000  0.95689000  0.46105000  1
  C  C456  1  0.95689000  0.26171000  0.46105000  1
  C  C457  1  0.32035000  0.95689000  0.46105000  1
  C  C458  1  0.95689000  0.32035000  0.46105000  1
  C  C459  1  0.00006000  0.77610000  0.44774000  1
  C  C460  1  0.77610000  0.00006000  0.44774000  1
  C  C461  1  0.77610000  0.77610000  0.44774000  1
  C  C462  1  0.29832000  0.29832000  0.43164000  1
  C  C463  1  0.29832000  0.97172000  0.43164000  1
  C  C464  1  0.97172000  0.29832000  0.43164000  1
  C  C465  1  0.32322000  0.32322000  0.38634000  1
  C  C466  1  0.32322000  0.96722000  0.38634000  1
  C  C467  1  0.96722000  0.32322000  0.38634000  1
  C  C468  1  0.02587000  0.80289000  0.36835000  1
  C  C469  1  0.80289000  0.02587000  0.36835000  1
  C  C470  1  0.80289000  0.80289000  0.36835000  1
  C  C471  1  0.30191000  0.36649000  0.36649000  1
  C  C472  1  0.36649000  0.30191000  0.36649000  1
  C  C473  1  0.30191000  0.96511000  0.36649000  1
  C  C474  1  0.96511000  0.30191000  0.36649000  1
  C  C475  1  0.36649000  0.96511000  0.36649000  1
  C  C476  1  0.96511000  0.36649000  0.36649000  1
  C  C477  1  0.02270000  0.78364000  0.34680000  1
  C  C478  1  0.78364000  0.02270000  0.34680000  1
  C  C479  1  0.02270000  0.84686000  0.34680000  1
  C  C480  1  0.84686000  0.02270000  0.34680000  1
  C  C481  1  0.78364000  0.84686000  0.34680000  1
  C  C482  1  0.84686000  0.78364000  0.34680000  1
  C  C483  1  0.32322000  0.38634000  0.32322000  1
  C  C484  1  0.38634000  0.32322000  0.32322000  1
  C  C485  1  0.32322000  0.96722000  0.32322000  1
  C  C486  1  0.96722000  0.32322000  0.32322000  1
  C  C487  1  0.38634000  0.96722000  0.32322000  1
  C  C488  1  0.96722000  0.38634000  0.32322000  1
  C  C489  1  0.26171000  0.46105000  0.32035000  1
  C  C490  1  0.46105000  0.26171000  0.32035000  1
  C  C491  1  0.26171000  0.95689000  0.32035000  1
  C  C492  1  0.95689000  0.26171000  0.32035000  1
  C  C493  1  0.46105000  0.95689000  0.32035000  1
  C  C494  1  0.95689000  0.46105000  0.32035000  1
  C  C495  1  0.01702000  0.80584000  0.30632000  1
  C  C496  1  0.80584000  0.01702000  0.30632000  1
  C  C497  1  0.01702000  0.87082000  0.30632000  1
  C  C498  1  0.87082000  0.01702000  0.30632000  1
  C  C499  1  0.80584000  0.87082000  0.30632000  1
  C  C500  1  0.87082000  0.80584000  0.30632000  1
  C  C501  1  0.36649000  0.36649000  0.30191000  1
  C  C502  1  0.36649000  0.96511000  0.30191000  1
  C  C503  1  0.96511000  0.36649000  0.30191000  1
  C  C504  1  0.29832000  0.43164000  0.29832000  1
  C  C505  1  0.43164000  0.29832000  0.29832000  1
  C  C506  1  0.29832000  0.97172000  0.29832000  1
  C  C507  1  0.97172000  0.29832000  0.29832000  1
  C  C508  1  0.43164000  0.97172000  0.29832000  1
  C  C509  1  0.97172000  0.43164000  0.29832000  1
  C  C510  1  0.23824000  0.50108000  0.29506000  1
  C  C511  1  0.50108000  0.23824000  0.29506000  1
  C  C512  1  0.23824000  0.96562000  0.29506000  1
  C  C513  1  0.96562000  0.23824000  0.29506000  1
  C  C514  1  0.50108000  0.96562000  0.29506000  1
  C  C515  1  0.96562000  0.50108000  0.29506000  1
  C  C516  1  0.01219000  0.78359000  0.28535000  1
  C  C517  1  0.78359000  0.01219000  0.28535000  1
  C  C518  1  0.01219000  0.91887000  0.28535000  1
  C  C519  1  0.91887000  0.01219000  0.28535000  1
  C  C520  1  0.78359000  0.91887000  0.28535000  1
  C  C521  1  0.91887000  0.78359000  0.28535000  1
  C  C522  1  0.01671000  0.84909000  0.28511000  1
  C  C523  1  0.84909000  0.01671000  0.28511000  1
  C  C524  1  0.84909000  0.84909000  0.28511000  1
  C  C525  1  0.32035000  0.46105000  0.26171000  1
  C  C526  1  0.46105000  0.32035000  0.26171000  1
  C  C527  1  0.32035000  0.95689000  0.26171000  1
  C  C528  1  0.95689000  0.32035000  0.26171000  1
  C  C529  1  0.46105000  0.95689000  0.26171000  1
  C  C530  1  0.95689000  0.46105000  0.26171000  1
  C  C531  1  0.25063000  0.51153000  0.25063000  1
  C  C532  1  0.51153000  0.25063000  0.25063000  1
  C  C533  1  0.25063000  0.98721000  0.25063000  1
  C  C534  1  0.98721000  0.25063000  0.25063000  1
  C  C535  1  0.51153000  0.98721000  0.25063000  1
  C  C536  1  0.98721000  0.51153000  0.25063000  1
  C  C537  1  0.29506000  0.50108000  0.23824000  1
  C  C538  1  0.50108000  0.29506000  0.23824000  1
  C  C539  1  0.29506000  0.96562000  0.23824000  1
  C  C540  1  0.96562000  0.29506000  0.23824000  1
  C  C541  1  0.50108000  0.96562000  0.23824000  1
  C  C542  1  0.96562000  0.50108000  0.23824000  1
  C  C543  1  0.22390000  0.55226000  0.22390000  1
  C  C544  1  0.55226000  0.22390000  0.22390000  1
  C  C545  1  0.22390000  0.99994000  0.22390000  1
  C  C546  1  0.99994000  0.22390000  0.22390000  1
  C  C547  1  0.55226000  0.99994000  0.22390000  1
  C  C548  1  0.99994000  0.55226000  0.22390000  1
  C  C549  1  0.08113000  0.71465000  0.21641000  1
  C  C550  1  0.71465000  0.08113000  0.21641000  1
  C  C551  1  0.08113000  0.98781000  0.21641000  1
  C  C552  1  0.98781000  0.08113000  0.21641000  1
  C  C553  1  0.71465000  0.98781000  0.21641000  1
  C  C554  1  0.98781000  0.71465000  0.21641000  1
  C  C555  1  0.15314000  0.65320000  0.21636000  1
  C  C556  1  0.65320000  0.15314000  0.21636000  1
  C  C557  1  0.15314000  0.97730000  0.21636000  1
  C  C558  1  0.97730000  0.15314000  0.21636000  1
  C  C559  1  0.65320000  0.97730000  0.21636000  1
  C  C560  1  0.97730000  0.65320000  0.21636000  1
  C  C561  1  0.19711000  0.63165000  0.19711000  1
  C  C562  1  0.63165000  0.19711000  0.19711000  1
  C  C563  1  0.19711000  0.97413000  0.19711000  1
  C  C564  1  0.97413000  0.19711000  0.19711000  1
  C  C565  1  0.63165000  0.97413000  0.19711000  1
  C  C566  1  0.97413000  0.63165000  0.19711000  1
  C  C567  1  0.12918000  0.69368000  0.19416000  1
  C  C568  1  0.69368000  0.12918000  0.19416000  1
  C  C569  1  0.12918000  0.98298000  0.19416000  1
  C  C570  1  0.98298000  0.12918000  0.19416000  1
  C  C571  1  0.69368000  0.98298000  0.19416000  1
  C  C572  1  0.98298000  0.69368000  0.19416000  1
  C  C573  1  0.21636000  0.65320000  0.15314000  1
  C  C574  1  0.65320000  0.21636000  0.15314000  1
  C  C575  1  0.21636000  0.97730000  0.15314000  1
  C  C576  1  0.97730000  0.21636000  0.15314000  1
  C  C577  1  0.65320000  0.97730000  0.15314000  1
  C  C578  1  0.97730000  0.65320000  0.15314000  1
  C  C579  1  0.15091000  0.71489000  0.15091000  1
  C  C580  1  0.71489000  0.15091000  0.15091000  1
  C  C581  1  0.15091000  0.98329000  0.15091000  1
  C  C582  1  0.98329000  0.15091000  0.15091000  1
  C  C583  1  0.71489000  0.98329000  0.15091000  1
  C  C584  1  0.98329000  0.71489000  0.15091000  1
  C  C585  1  0.19416000  0.69368000  0.12918000  1
  C  C586  1  0.69368000  0.19416000  0.12918000  1
  C  C587  1  0.19416000  0.98298000  0.12918000  1
  C  C588  1  0.98298000  0.19416000  0.12918000  1
  C  C589  1  0.69368000  0.98298000  0.12918000  1
  C  C590  1  0.98298000  0.69368000  0.12918000  1
  C  C591  1  0.21641000  0.71465000  0.08113000  1
  C  C592  1  0.71465000  0.21641000  0.08113000  1
  C  C593  1  0.21641000  0.98781000  0.08113000  1
  C  C594  1  0.98781000  0.21641000  0.08113000  1
  C  C595  1  0.71465000  0.98781000  0.08113000  1
  C  C596  1  0.98781000  0.71465000  0.08113000  1
  C  C597  1  0.53895000  0.67965000  0.04311000  1
  C  C598  1  0.67965000  0.53895000  0.04311000  1
  C  C599  1  0.53895000  0.73829000  0.04311000  1
  C  C600  1  0.73829000  0.53895000  0.04311000  1
  C  C601  1  0.67965000  0.73829000  0.04311000  1
  C  C602  1  0.73829000  0.67965000  0.04311000  1
  C  C603  1  0.63351000  0.63351000  0.03489000  1
  C  C604  1  0.63351000  0.69809000  0.03489000  1
  C  C605  1  0.69809000  0.63351000  0.03489000  1
  C  C606  1  0.49892000  0.70494000  0.03438000  1
  C  C607  1  0.70494000  0.49892000  0.03438000  1
  C  C608  1  0.49892000  0.76176000  0.03438000  1
  C  C609  1  0.76176000  0.49892000  0.03438000  1
  C  C610  1  0.70494000  0.76176000  0.03438000  1
  C  C611  1  0.76176000  0.70494000  0.03438000  1
  C  C612  1  0.61366000  0.67678000  0.03278000  1
  C  C613  1  0.67678000  0.61366000  0.03278000  1
  C  C614  1  0.67678000  0.67678000  0.03278000  1
  C  C615  1  0.56836000  0.70168000  0.02828000  1
  C  C616  1  0.70168000  0.56836000  0.02828000  1
  C  C617  1  0.70168000  0.70168000  0.02828000  1
  C  C618  1  0.36835000  0.80289000  0.02587000  1
  C  C619  1  0.80289000  0.36835000  0.02587000  1
  C  C620  1  0.80289000  0.80289000  0.02587000  1
  C  C621  1  0.34680000  0.78364000  0.02270000  1
  C  C622  1  0.78364000  0.34680000  0.02270000  1
  C  C623  1  0.34680000  0.84686000  0.02270000  1
  C  C624  1  0.84686000  0.34680000  0.02270000  1
  C  C625  1  0.78364000  0.84686000  0.02270000  1
  C  C626  1  0.84686000  0.78364000  0.02270000  1
  C  C627  1  0.30632000  0.80584000  0.01702000  1
  C  C628  1  0.80584000  0.30632000  0.01702000  1
  C  C629  1  0.30632000  0.87082000  0.01702000  1
  C  C630  1  0.87082000  0.30632000  0.01702000  1
  C  C631  1  0.80584000  0.87082000  0.01702000  1
  C  C632  1  0.87082000  0.80584000  0.01702000  1
  C  C633  1  0.28511000  0.84909000  0.01671000  1
  C  C634  1  0.84909000  0.28511000  0.01671000  1
  C  C635  1  0.84909000  0.84909000  0.01671000  1
  C  C636  1  0.48847000  0.74937000  0.01279000  1
  C  C637  1  0.74937000  0.48847000  0.01279000  1
  C  C638  1  0.74937000  0.74937000  0.01279000  1
  C  C639  1  0.28535000  0.78359000  0.01219000  1
  C  C640  1  0.78359000  0.28535000  0.01219000  1
  C  C641  1  0.28535000  0.91887000  0.01219000  1
  C  C642  1  0.91887000  0.28535000  0.01219000  1
  C  C643  1  0.78359000  0.91887000  0.01219000  1
  C  C644  1  0.91887000  0.78359000  0.01219000  1
  C  C645  1  0.44774000  0.77610000  0.00006000  1
  C  C646  1  0.77610000  0.44774000  0.00006000  1
  C  C647  1  0.77610000  0.77610000  0.00006000  1
  N  N648  1  0.22243000  0.22243000  0.96637000  1
  N  N649  1  0.22243000  0.58877000  0.96637000  1
  N  N650  1  0.58877000  0.22243000  0.96637000  1
  N  N651  1  0.03363000  0.41123000  0.77757000  1
  N  N652  1  0.41123000  0.03363000  0.77757000  1
  N  N653  1  0.03363000  0.77757000  0.77757000  1
  N  N654  1  0.77757000  0.03363000  0.77757000  1
  N  N655  1  0.41123000  0.77757000  0.77757000  1
  N  N656  1  0.77757000  0.41123000  0.77757000  1
  N  N657  1  0.22243000  0.22243000  0.58877000  1
  N  N658  1  0.22243000  0.96637000  0.58877000  1
  N  N659  1  0.96637000  0.22243000  0.58877000  1
  N  N660  1  0.03363000  0.77757000  0.41123000  1
  N  N661  1  0.77757000  0.03363000  0.41123000  1
  N  N662  1  0.77757000  0.77757000  0.41123000  1
  N  N663  1  0.22243000  0.58877000  0.22243000  1
  N  N664  1  0.58877000  0.22243000  0.22243000  1
  N  N665  1  0.22243000  0.96637000  0.22243000  1
  N  N666  1  0.96637000  0.22243000  0.22243000  1
  N  N667  1  0.58877000  0.96637000  0.22243000  1
  N  N668  1  0.96637000  0.58877000  0.22243000  1
  N  N669  1  0.41123000  0.77757000  0.03363000  1
  N  N670  1  0.77757000  0.41123000  0.03363000  1
  N  N671  1  0.77757000  0.77757000  0.03363000  1
  O  O672  1  0.06253000  0.69309000  0.98992000  1
  O  O673  1  0.69309000  0.06253000  0.98992000  1
  O  O674  1  0.25447000  0.69309000  0.98992000  1
  O  O675  1  0.69309000  0.25447000  0.98992000  1
  O  O676  1  0.06253000  0.25447000  0.98991000  1
  O  O677  1  0.25447000  0.06253000  0.98991000  1
  O  O678  1  0.06291000  0.19387000  0.98951000  1
  O  O679  1  0.19387000  0.06291000  0.98951000  1
  O  O680  1  0.06291000  0.75371000  0.98951000  1
  O  O681  1  0.75371000  0.06291000  0.98951000  1
  O  O682  1  0.19387000  0.75371000  0.98951000  1
  O  O683  1  0.75371000  0.19387000  0.98951000  1
  O  O684  1  0.45203000  0.79449000  0.95899000  1
  O  O685  1  0.79449000  0.45203000  0.95899000  1
  O  O686  1  0.79449000  0.79449000  0.95899000  1
  O  O687  1  0.01008000  0.30691000  0.93748000  1
  O  O688  1  0.30691000  0.01008000  0.93748000  1
  O  O689  1  0.01008000  0.74554000  0.93747000  1
  O  O690  1  0.74554000  0.01008000  0.93747000  1
  O  O691  1  0.30691000  0.74554000  0.93747000  1
  O  O692  1  0.74554000  0.30691000  0.93747000  1
  O  O693  1  0.01048000  0.24629000  0.93710000  1
  O  O694  1  0.24629000  0.01048000  0.93710000  1
  O  O695  1  0.01048000  0.80613000  0.93710000  1
  O  O696  1  0.80613000  0.01048000  0.93710000  1
  O  O697  1  0.24629000  0.80613000  0.93710000  1
  O  O698  1  0.80613000  0.24629000  0.93710000  1
  O  O699  1  0.01048000  0.24629000  0.80614000  1
  O  O700  1  0.24629000  0.01048000  0.80614000  1
  O  O701  1  0.01048000  0.93709000  0.80614000  1
  O  O702  1  0.93709000  0.01048000  0.80614000  1
  O  O703  1  0.24629000  0.93709000  0.80614000  1
  O  O704  1  0.93709000  0.24629000  0.80614000  1
  O  O705  1  0.45203000  0.79449000  0.79449000  1
  O  O706  1  0.79449000  0.45203000  0.79449000  1
  O  O707  1  0.45203000  0.95899000  0.79449000  1
  O  O708  1  0.95899000  0.45203000  0.79449000  1
  O  O709  1  0.79449000  0.95899000  0.79449000  1
  O  O710  1  0.95899000  0.79449000  0.79449000  1
  O  O711  1  0.06291000  0.19387000  0.75370000  1
  O  O712  1  0.19387000  0.06291000  0.75370000  1
  O  O713  1  0.06291000  0.98952000  0.75370000  1
  O  O714  1  0.98952000  0.06291000  0.75370000  1
  O  O715  1  0.19387000  0.98952000  0.75370000  1
  O  O716  1  0.98952000  0.19387000  0.75370000  1
  O  O717  1  0.01008000  0.30691000  0.74554000  1
  O  O718  1  0.30691000  0.01008000  0.74554000  1
  O  O719  1  0.01008000  0.93747000  0.74554000  1
  O  O720  1  0.93747000  0.01008000  0.74554000  1
  O  O721  1  0.93747000  0.30691000  0.74554000  1
  O  O722  1  0.30691000  0.93748000  0.74553000  1
  O  O723  1  0.06253000  0.98992000  0.69309000  1
  O  O724  1  0.98992000  0.06253000  0.69309000  1
  O  O725  1  0.98992000  0.25447000  0.69309000  1
  O  O726  1  0.06253000  0.25447000  0.69308000  1
  O  O727  1  0.25447000  0.06253000  0.69308000  1
  O  O728  1  0.25447000  0.98992000  0.69308000  1
  O  O729  1  0.04101000  0.20551000  0.54797000  1
  O  O730  1  0.20551000  0.04101000  0.54797000  1
  O  O731  1  0.20551000  0.20551000  0.54797000  1
  O  O732  1  0.79449000  0.79449000  0.45203000  1
  O  O733  1  0.79449000  0.95899000  0.45203000  1
  O  O734  1  0.95899000  0.79449000  0.45203000  1
  O  O735  1  0.01008000  0.93747000  0.30692000  1
  O  O736  1  0.93747000  0.01008000  0.30692000  1
  O  O737  1  0.74553000  0.93747000  0.30692000  1
  O  O738  1  0.01008000  0.74554000  0.30691000  1
  O  O739  1  0.74554000  0.01008000  0.30691000  1
  O  O740  1  0.93747000  0.74554000  0.30691000  1
  O  O741  1  0.06253000  0.69309000  0.25446000  1
  O  O742  1  0.69309000  0.06253000  0.25446000  1
  O  O743  1  0.06253000  0.98992000  0.25446000  1
  O  O744  1  0.98992000  0.06253000  0.25446000  1
  O  O745  1  0.69309000  0.98992000  0.25446000  1
  O  O746  1  0.98992000  0.69309000  0.25446000  1
  O  O747  1  0.01048000  0.80613000  0.24630000  1
  O  O748  1  0.80613000  0.01048000  0.24630000  1
  O  O749  1  0.01048000  0.93709000  0.24630000  1
  O  O750  1  0.93709000  0.01048000  0.24630000  1
  O  O751  1  0.80613000  0.93709000  0.24630000  1
  O  O752  1  0.93709000  0.80613000  0.24630000  1
  O  O753  1  0.04101000  0.20551000  0.20551000  1
  O  O754  1  0.20551000  0.04101000  0.20551000  1
  O  O755  1  0.04101000  0.54797000  0.20551000  1
  O  O756  1  0.54797000  0.04101000  0.20551000  1
  O  O757  1  0.20551000  0.54797000  0.20551000  1
  O  O758  1  0.54797000  0.20551000  0.20551000  1
  O  O759  1  0.06291000  0.75371000  0.19386000  1
  O  O760  1  0.75371000  0.06291000  0.19386000  1
  O  O761  1  0.06291000  0.98952000  0.19386000  1
  O  O762  1  0.98952000  0.06291000  0.19386000  1
  O  O763  1  0.75371000  0.98952000  0.19386000  1
  O  O764  1  0.98952000  0.75371000  0.19386000  1
  O  O765  1  0.19387000  0.75371000  0.06290000  1
  O  O766  1  0.75371000  0.19387000  0.06290000  1
  O  O767  1  0.19387000  0.98952000  0.06290000  1
  O  O768  1  0.98952000  0.19387000  0.06290000  1
  O  O769  1  0.75371000  0.98952000  0.06290000  1
  O  O770  1  0.98952000  0.75371000  0.06290000  1
  O  O771  1  0.25446000  0.98992000  0.06253000  1
  O  O772  1  0.69309000  0.98992000  0.06253000  1
  O  O773  1  0.98992000  0.69309000  0.06253000  1
  O  O774  1  0.25447000  0.69309000  0.06252000  1
  O  O775  1  0.69309000  0.25447000  0.06252000  1
  O  O776  1  0.98992000  0.25447000  0.06252000  1
  O  O777  1  0.20551000  0.20551000  0.04101000  1
  O  O778  1  0.20551000  0.54797000  0.04101000  1
  O  O779  1  0.54797000  0.20551000  0.04101000  1
  O  O780  1  0.24629000  0.80613000  0.01049000  1
  O  O781  1  0.80613000  0.24629000  0.01049000  1
  O  O782  1  0.24629000  0.93709000  0.01049000  1
  O  O783  1  0.93709000  0.24629000  0.01049000  1
  O  O784  1  0.80613000  0.93709000  0.01049000  1
  O  O785  1  0.93709000  0.80613000  0.01049000  1
  O  O786  1  0.74553000  0.30691000  0.01009000  1
  O  O787  1  0.30691000  0.93747000  0.01009000  1
  O  O788  1  0.93747000  0.30691000  0.01009000  1
  O  O789  1  0.74553000  0.93747000  0.01009000  1
  O  O790  1  0.93747000  0.74553000  0.01009000  1
  O  O791  1  0.30691000  0.74554000  0.01008000  1
