# generated using pymatgen
data_Li2Cd3H48(C3O)16
_symmetry_space_group_name_H-M   'P 1'
_cell_length_a   9.68920000
_cell_length_b   17.68100000
_cell_length_c   21.15800000
_cell_angle_alpha   90.00000000
_cell_angle_beta   90.00000000
_cell_angle_gamma   105.42600000
_symmetry_Int_Tables_number   1
_chemical_formula_structural   Li2Cd3H48(C3O)16
_chemical_formula_sum   'Li4 Cd6 H96 C96 O32'
_cell_volume   3494.09764937
_cell_formula_units_Z   2
loop_
 _symmetry_equiv_pos_site_id
 _symmetry_equiv_pos_as_xyz
  1  'x, y, z'
loop_
 _atom_site_type_symbol
 _atom_site_label
 _atom_site_symmetry_multiplicity
 _atom_site_fract_x
 _atom_site_fract_y
 _atom_site_fract_z
 _atom_site_occupancy
  Li  Li0  1  0.02310000  0.50790000  0.71460000  1
  Li  Li1  1  0.47690000  0.99210000  0.21460000  1
  Li  Li2  1  0.52310000  0.00790000  0.78540000  1
  Li  Li3  1  0.97690000  0.49210000  0.28540000  1
  Cd  Cd4  1  0.00000000  0.50000000  0.00000000  1
  Cd  Cd5  1  0.07562000  0.57429000  0.14738000  1
  Cd  Cd6  1  0.42438000  0.92571000  0.64738000  1
  Cd  Cd7  1  0.50000000  0.00000000  0.50000000  1
  Cd  Cd8  1  0.57562000  0.07429000  0.35262000  1
  Cd  Cd9  1  0.92438000  0.42571000  0.85262000  1
  H  H10  1  0.00100000  0.23210000  0.61730000  1
  H  H11  1  0.02940000  0.77680000  0.01010000  1
  H  H12  1  0.04700000  0.89800000  0.34750000  1
  H  H13  1  0.05270000  0.85920000  0.97800000  1
  H  H14  1  0.05430000  0.12980000  0.71060000  1
  H  H15  1  0.06400000  0.07400000  0.39270000  1
  H  H16  1  0.06640000  0.59230000  0.47870000  1
  H  H17  1  0.07550000  0.06180000  0.66720000  1
  H  H18  1  0.09200000  0.87500000  0.44410000  1
  H  H19  1  0.09220000  0.85350000  0.04940000  1
  H  H20  1  0.10220000  0.25930000  0.67550000  1
  H  H21  1  0.11680000  0.72520000  0.53010000  1
  H  H22  1  0.12100000  0.68100000  0.95600000  1
  H  H23  1  0.14280000  0.27510000  0.12390000  1
  H  H24  1  0.15760000  0.28430000  0.60700000  1
  H  H25  1  0.16100000  0.61300000  0.37200000  1
  H  H26  1  0.16120000  0.57070000  0.53220000  1
  H  H27  1  0.16300000  0.35900000  0.03660000  1
  H  H28  1  0.17360000  0.36320000  0.14420000  1
  H  H29  1  0.19710000  0.55980000  0.46110000  1
  H  H30  1  0.19800000  0.69300000  0.76510000  1
  H  H31  1  0.19920000  0.30070000  0.19220000  1
  H  H32  1  0.21690000  0.69950000  0.57910000  1
  H  H33  1  0.22300000  0.72620000  0.03680000  1
  H  H34  1  0.27700000  0.77380000  0.53680000  1
  H  H35  1  0.28310000  0.80050000  0.07910000  1
  H  H36  1  0.30080000  0.19930000  0.69220000  1
  H  H37  1  0.30200000  0.80700000  0.26510000  1
  H  H38  1  0.30290000  0.94020000  0.96110000  1
  H  H39  1  0.32640000  0.13680000  0.64420000  1
  H  H40  1  0.33700000  0.14100000  0.53660000  1
  H  H41  1  0.33880000  0.92930000  0.03220000  1
  H  H42  1  0.33900000  0.88700000  0.87200000  1
  H  H43  1  0.34240000  0.21570000  0.10700000  1
  H  H44  1  0.35720000  0.22490000  0.62390000  1
  H  H45  1  0.37900000  0.81900000  0.45600000  1
  H  H46  1  0.38320000  0.77480000  0.03010000  1
  H  H47  1  0.39780000  0.24070000  0.17550000  1
  H  H48  1  0.40780000  0.64650000  0.54940000  1
  H  H49  1  0.40800000  0.62500000  0.94410000  1
  H  H50  1  0.42450000  0.43820000  0.16720000  1
  H  H51  1  0.43360000  0.90770000  0.97870000  1
  H  H52  1  0.43600000  0.42600000  0.89270000  1
  H  H53  1  0.44570000  0.37020000  0.21060000  1
  H  H54  1  0.44730000  0.64080000  0.47800000  1
  H  H55  1  0.45300000  0.60200000  0.84750000  1
  H  H56  1  0.47060000  0.72320000  0.51010000  1
  H  H57  1  0.49900000  0.26790000  0.11730000  1
  H  H58  1  0.50100000  0.73210000  0.88270000  1
  H  H59  1  0.52940000  0.27680000  0.48990000  1
  H  H60  1  0.54700000  0.39800000  0.15250000  1
  H  H61  1  0.55270000  0.35920000  0.52200000  1
  H  H62  1  0.55430000  0.62980000  0.78940000  1
  H  H63  1  0.56400000  0.57400000  0.10730000  1
  H  H64  1  0.56640000  0.09230000  0.02130000  1
  H  H65  1  0.57550000  0.56180000  0.83280000  1
  H  H66  1  0.59200000  0.37500000  0.05590000  1
  H  H67  1  0.59220000  0.35350000  0.45060000  1
  H  H68  1  0.60220000  0.75930000  0.82450000  1
  H  H69  1  0.61680000  0.22520000  0.96990000  1
  H  H70  1  0.62100000  0.18100000  0.54400000  1
  H  H71  1  0.64280000  0.77510000  0.37610000  1
  H  H72  1  0.65760000  0.78430000  0.89300000  1
  H  H73  1  0.66100000  0.11300000  0.12800000  1
  H  H74  1  0.66120000  0.07070000  0.96780000  1
  H  H75  1  0.66300000  0.85900000  0.46340000  1
  H  H76  1  0.67360000  0.86320000  0.35580000  1
  H  H77  1  0.69710000  0.05980000  0.03890000  1
  H  H78  1  0.69800000  0.19300000  0.73490000  1
  H  H79  1  0.69920000  0.80070000  0.30780000  1
  H  H80  1  0.71690000  0.19950000  0.92090000  1
  H  H81  1  0.72300000  0.22620000  0.46320000  1
  H  H82  1  0.77700000  0.27380000  0.96320000  1
  H  H83  1  0.78310000  0.30050000  0.42090000  1
  H  H84  1  0.80080000  0.69930000  0.80780000  1
  H  H85  1  0.80200000  0.30700000  0.23490000  1
  H  H86  1  0.80290000  0.44020000  0.53890000  1
  H  H87  1  0.82640000  0.63680000  0.85580000  1
  H  H88  1  0.83700000  0.64100000  0.96340000  1
  H  H89  1  0.83880000  0.42930000  0.46780000  1
  H  H90  1  0.83900000  0.38700000  0.62800000  1
  H  H91  1  0.84240000  0.71570000  0.39300000  1
  H  H92  1  0.85720000  0.72490000  0.87610000  1
  H  H93  1  0.87900000  0.31900000  0.04400000  1
  H  H94  1  0.88320000  0.27480000  0.46990000  1
  H  H95  1  0.89780000  0.74070000  0.32450000  1
  H  H96  1  0.90780000  0.14650000  0.95060000  1
  H  H97  1  0.90800000  0.12500000  0.55590000  1
  H  H98  1  0.92450000  0.93820000  0.33280000  1
  H  H99  1  0.93360000  0.40770000  0.52130000  1
  H  H100  1  0.93600000  0.92600000  0.60730000  1
  H  H101  1  0.94570000  0.87020000  0.28940000  1
  H  H102  1  0.94730000  0.14080000  0.02200000  1
  H  H103  1  0.95300000  0.10200000  0.65250000  1
  H  H104  1  0.97060000  0.22320000  0.98990000  1
  H  H105  1  0.99900000  0.76790000  0.38270000  1
  C  C106  1  0.00680000  0.87970000  0.46837000  1
  C  C107  1  0.03090000  0.90413000  0.53088000  1
  C  C108  1  0.04900000  0.11040000  0.66800000  1
  C  C109  1  0.07310000  0.58661000  0.85149000  1
  C  C110  1  0.08360000  0.09089000  0.43147000  1
  C  C111  1  0.08980000  0.82950000  0.00850000  1
  C  C112  1  0.09800000  0.24310000  0.63210000  1
  C  C113  1  0.12960000  0.14100000  0.55800000  1
  C  C114  1  0.15050000  0.17000000  0.62644000  1
  C  C115  1  0.15190000  0.67277000  0.85828000  1
  C  C116  1  0.15610000  0.39769000  0.91682000  1
  C  C117  1  0.16190000  0.59180000  0.49040000  1
  C  C118  1  0.16470000  0.70958000  0.91726000  1
  C  C119  1  0.16590000  0.65900000  0.25232000  1
  C  C120  1  0.18220000  0.92501000  0.55510000  1
  C  C121  1  0.20420000  0.31610000  0.14850000  1
  C  C122  1  0.20830000  0.71553000  0.80487000  1
  C  C123  1  0.21260000  0.72210000  0.53810000  1
  C  C124  1  0.21300000  0.66906000  0.36906000  1
  C  C125  1  0.22030000  0.10903000  0.45702000  1
  C  C126  1  0.22520000  0.70519000  0.31035000  1
  C  C127  1  0.23270000  0.78901000  0.92379000  1
  C  C128  1  0.24280000  0.13353000  0.51978000  1
  C  C129  1  0.24500000  0.82800000  0.98906000  1
  C  C130  1  0.25500000  0.67200000  0.48906000  1
  C  C131  1  0.25720000  0.36647000  0.01978000  1
  C  C132  1  0.26730000  0.71099000  0.42379000  1
  C  C133  1  0.27480000  0.79481000  0.81035000  1
  C  C134  1  0.27970000  0.39097000  0.95702000  1
  C  C135  1  0.28700000  0.83094000  0.86906000  1
  C  C136  1  0.28740000  0.77790000  0.03810000  1
  C  C137  1  0.29170000  0.78447000  0.30487000  1
  C  C138  1  0.29580000  0.18390000  0.64850000  1
  C  C139  1  0.31780000  0.57499000  0.05510000  1
  C  C140  1  0.33410000  0.84100000  0.75232000  1
  C  C141  1  0.33530000  0.79042000  0.41726000  1
  C  C142  1  0.33810000  0.90820000  0.99040000  1
  C  C143  1  0.34390000  0.10231000  0.41682000  1
  C  C144  1  0.34810000  0.82723000  0.35828000  1
  C  C145  1  0.34950000  0.33000000  0.12644000  1
  C  C146  1  0.37040000  0.35900000  0.05800000  1
  C  C147  1  0.40200000  0.25690000  0.13210000  1
  C  C148  1  0.41020000  0.67050000  0.50850000  1
  C  C149  1  0.41640000  0.40911000  0.93147000  1
  C  C150  1  0.42690000  0.91339000  0.35149000  1
  C  C151  1  0.45100000  0.38960000  0.16800000  1
  C  C152  1  0.46910000  0.59587000  0.03088000  1
  C  C153  1  0.49320000  0.62030000  0.96837000  1
  C  C154  1  0.50680000  0.37970000  0.03163000  1
  C  C155  1  0.53090000  0.40413000  0.96912000  1
  C  C156  1  0.54900000  0.61040000  0.83200000  1
  C  C157  1  0.57310000  0.08661000  0.64851000  1
  C  C158  1  0.58360000  0.59089000  0.06853000  1
  C  C159  1  0.58980000  0.32950000  0.49150000  1
  C  C160  1  0.59800000  0.74310000  0.86790000  1
  C  C161  1  0.62960000  0.64100000  0.94200000  1
  C  C162  1  0.65050000  0.67000000  0.87356000  1
  C  C163  1  0.65190000  0.17277000  0.64172000  1
  C  C164  1  0.65610000  0.89769000  0.58318000  1
  C  C165  1  0.66190000  0.09180000  0.00960000  1
  C  C166  1  0.66470000  0.20958000  0.58274000  1
  C  C167  1  0.66590000  0.15900000  0.24768000  1
  C  C168  1  0.68220000  0.42501000  0.94490000  1
  C  C169  1  0.70420000  0.81610000  0.35150000  1
  C  C170  1  0.70830000  0.21553000  0.69513000  1
  C  C171  1  0.71260000  0.22210000  0.96190000  1
  C  C172  1  0.71300000  0.16906000  0.13094000  1
  C  C173  1  0.72030000  0.60903000  0.04298000  1
  C  C174  1  0.72520000  0.20519000  0.18965000  1
  C  C175  1  0.73270000  0.28901000  0.57621000  1
  C  C176  1  0.74280000  0.63353000  0.98022000  1
  C  C177  1  0.74500000  0.32800000  0.51094000  1
  C  C178  1  0.75500000  0.17200000  0.01094000  1
  C  C179  1  0.75720000  0.86647000  0.48022000  1
  C  C180  1  0.76730000  0.21099000  0.07621000  1
  C  C181  1  0.77480000  0.29481000  0.68965000  1
  C  C182  1  0.77970000  0.89097000  0.54298000  1
  C  C183  1  0.78700000  0.33094000  0.63094000  1
  C  C184  1  0.78740000  0.27790000  0.46190000  1
  C  C185  1  0.79170000  0.28447000  0.19513000  1
  C  C186  1  0.79580000  0.68390000  0.85150000  1
  C  C187  1  0.81780000  0.07499000  0.44490000  1
  C  C188  1  0.83410000  0.34100000  0.74768000  1
  C  C189  1  0.83530000  0.29042000  0.08274000  1
  C  C190  1  0.83810000  0.40820000  0.50960000  1
  C  C191  1  0.84390000  0.60231000  0.08318000  1
  C  C192  1  0.84810000  0.32723000  0.14172000  1
  C  C193  1  0.84950000  0.83000000  0.37356000  1
  C  C194  1  0.87040000  0.85900000  0.44200000  1
  C  C195  1  0.90200000  0.75690000  0.36790000  1
  C  C196  1  0.91020000  0.17050000  0.99150000  1
  C  C197  1  0.91640000  0.90911000  0.56853000  1
  C  C198  1  0.92690000  0.41339000  0.14851000  1
  C  C199  1  0.95100000  0.88960000  0.33200000  1
  C  C200  1  0.96910000  0.09587000  0.46912000  1
  C  C201  1  0.99320000  0.12030000  0.53163000  1
  O  O202  1  0.01130000  0.55067000  0.89899000  1
  O  O203  1  0.03610000  0.39494000  0.94431000  1
  O  O204  1  0.06590000  0.55586000  0.79904000  1
  O  O205  1  0.11380000  0.58580000  0.25711000  1
  O  O206  1  0.16890000  0.40585000  0.85875000  1
  O  O207  1  0.17140000  0.69279000  0.20026000  1
  O  O208  1  0.20350000  0.92428000  0.61290000  1
  O  O209  1  0.22340000  0.55975000  0.01274000  1
  O  O210  1  0.27660000  0.94025000  0.51274000  1
  O  O211  1  0.29650000  0.57572000  0.11290000  1
  O  O212  1  0.32860000  0.80721000  0.70026000  1
  O  O213  1  0.33110000  0.09415000  0.35875000  1
  O  O214  1  0.38620000  0.91420000  0.75711000  1
  O  O215  1  0.43410000  0.94414000  0.29904000  1
  O  O216  1  0.46390000  0.10506000  0.44431000  1
  O  O217  1  0.48870000  0.94933000  0.39899000  1
  O  O218  1  0.51130000  0.05067000  0.60101000  1
  O  O219  1  0.53610000  0.89494000  0.55569000  1
  O  O220  1  0.56590000  0.05586000  0.70096000  1
  O  O221  1  0.61380000  0.08580000  0.24289000  1
  O  O222  1  0.66890000  0.90585000  0.64125000  1
  O  O223  1  0.67140000  0.19279000  0.29974000  1
  O  O224  1  0.70350000  0.42428000  0.88710000  1
  O  O225  1  0.72340000  0.05975000  0.48726000  1
  O  O226  1  0.77660000  0.44025000  0.98726000  1
  O  O227  1  0.79650000  0.07572000  0.38710000  1
  O  O228  1  0.82860000  0.30721000  0.79974000  1
  O  O229  1  0.83110000  0.59415000  0.14125000  1
  O  O230  1  0.88620000  0.41420000  0.74289000  1
  O  O231  1  0.93410000  0.44414000  0.20096000  1
  O  O232  1  0.96390000  0.60506000  0.05569000  1
  O  O233  1  0.98870000  0.44933000  0.10101000  1
