# generated using pymatgen
data_Hf12H72Ir3C144N12(Cl3O20)2
_symmetry_space_group_name_H-M   'P 1'
_cell_length_a   33.18669969
_cell_length_b   33.18669969
_cell_length_c   33.18669969
_cell_angle_alpha   109.47122063
_cell_angle_beta   109.47122063
_cell_angle_gamma   109.47122063
_symmetry_Int_Tables_number   1
_chemical_formula_structural   Hf12H72Ir3C144N12(Cl3O20)2
_chemical_formula_sum   'Hf24 H144 Ir6 C288 N24 Cl12 O80'
_cell_volume   28136.51505569
_cell_formula_units_Z   2
loop_
 _symmetry_equiv_pos_site_id
 _symmetry_equiv_pos_as_xyz
  1  'x, y, z'
loop_
 _atom_site_type_symbol
 _atom_site_label
 _atom_site_symmetry_multiplicity
 _atom_site_fract_x
 _atom_site_fract_y
 _atom_site_fract_z
 _atom_site_occupancy
  C  C0  1  0.27430000  0.62730000  0.86440000  1
  C  C1  1  0.27430000  0.40990000  0.64700000  1
  C  C2  1  0.40990000  0.76290000  0.13560000  1
  C  C3  1  0.40990000  0.27430000  0.64700000  1
  C  C4  1  0.62730000  0.76290000  0.35300000  1
  C  C5  1  0.62730000  0.27430000  0.86440000  1
  C  C6  1  0.76290000  0.62730000  0.35300000  1
  C  C7  1  0.76290000  0.40990000  0.13560000  1
  C  C8  1  0.28200000  0.60120000  0.82560000  1
  C  C9  1  0.28200000  0.45640000  0.68080000  1
  C  C10  1  0.45640000  0.77560000  0.17440000  1
  C  C11  1  0.45640000  0.28200000  0.68080000  1
  C  C12  1  0.60120000  0.77560000  0.31920000  1
  C  C13  1  0.60120000  0.28200000  0.82560000  1
  C  C14  1  0.77560000  0.60120000  0.31920000  1
  C  C15  1  0.77560000  0.45640000  0.17440000  1
  C  C16  1  0.31270000  0.62540000  0.81270000  1
  C  C17  1  0.31270000  0.50000000  0.68730000  1
  C  C18  1  0.50000000  0.81270000  0.18730000  1
  C  C19  1  0.50000000  0.31270000  0.68730000  1
  C  C20  1  0.62540000  0.81270000  0.31270000  1
  C  C21  1  0.62540000  0.31270000  0.81270000  1
  C  C22  1  0.81270000  0.62540000  0.31270000  1
  C  C23  1  0.81270000  0.50000000  0.18730000  1
  C  C24  1  0.31920000  0.60120000  0.77560000  1
  C  C25  1  0.31920000  0.54360000  0.71800000  1
  C  C26  1  0.54360000  0.82560000  0.22440000  1
  C  C27  1  0.54360000  0.31920000  0.71800000  1
  C  C28  1  0.60120000  0.82560000  0.28200000  1
  C  C29  1  0.60120000  0.31920000  0.77560000  1
  C  C30  1  0.82560000  0.60120000  0.28200000  1
  C  C31  1  0.82560000  0.54360000  0.22440000  1
  C  C32  1  0.34070000  0.68140000  0.84070000  1
  C  C33  1  0.34070000  0.50000000  0.65930000  1
  C  C34  1  0.50000000  0.84070000  0.15930000  1
  C  C35  1  0.50000000  0.34070000  0.65930000  1
  C  C36  1  0.68140000  0.84070000  0.34070000  1
  C  C37  1  0.68140000  0.34070000  0.84070000  1
  C  C38  1  0.84070000  0.68140000  0.34070000  1
  C  C39  1  0.84070000  0.50000000  0.15930000  1
  C  C40  1  0.31810000  0.70600000  0.82970000  1
  C  C41  1  0.31810000  0.48840000  0.61210000  1
  C  C42  1  0.48840000  0.87630000  0.17030000  1
  C  C43  1  0.48840000  0.31810000  0.61210000  1
  C  C44  1  0.70600000  0.87630000  0.38790000  1
  C  C45  1  0.70600000  0.31810000  0.82970000  1
  C  C46  1  0.87630000  0.70600000  0.38790000  1
  C  C47  1  0.87630000  0.48840000  0.17030000  1
  C  C48  1  0.35300000  0.62730000  0.76290000  1
  C  C49  1  0.35300000  0.59010000  0.72570000  1
  C  C50  1  0.59010000  0.86440000  0.23710000  1
  C  C51  1  0.59010000  0.35300000  0.72570000  1
  C  C52  1  0.62730000  0.86440000  0.27430000  1
  C  C53  1  0.62730000  0.35300000  0.76290000  1
  C  C54  1  0.86440000  0.62730000  0.27430000  1
  C  C55  1  0.86440000  0.59010000  0.23710000  1
  C  C56  1  0.38790000  0.70600000  0.87630000  1
  C  C57  1  0.38790000  0.51160000  0.68190000  1
  C  C58  1  0.51160000  0.82970000  0.12370000  1
  C  C59  1  0.51160000  0.38790000  0.68190000  1
  C  C60  1  0.70600000  0.82970000  0.31810000  1
  C  C61  1  0.70600000  0.38790000  0.87630000  1
  C  C62  1  0.82970000  0.70600000  0.31810000  1
  C  C63  1  0.82970000  0.51160000  0.12370000  1
  C  C64  1  0.34380000  0.75750000  0.85410000  1
  C  C65  1  0.34380000  0.48970000  0.58630000  1
  C  C66  1  0.48970000  0.90340000  0.14590000  1
  C  C67  1  0.48970000  0.34380000  0.58630000  1
  C  C68  1  0.75750000  0.90340000  0.41370000  1
  C  C69  1  0.75750000  0.34380000  0.85410000  1
  C  C70  1  0.90340000  0.75750000  0.41370000  1
  C  C71  1  0.90340000  0.48970000  0.14590000  1
  C  C72  1  0.41370000  0.75750000  0.90340000  1
  C  C73  1  0.41370000  0.51030000  0.65620000  1
  C  C74  1  0.51030000  0.85410000  0.09660000  1
  C  C75  1  0.51030000  0.41370000  0.65620000  1
  C  C76  1  0.75750000  0.85410000  0.34380000  1
  C  C77  1  0.75750000  0.41370000  0.90340000  1
  C  C78  1  0.85410000  0.75750000  0.34380000  1
  C  C79  1  0.85410000  0.51030000  0.09660000  1
  C  C80  1  0.39130000  0.78260000  0.89130000  1
  C  C81  1  0.39130000  0.50000000  0.60870000  1
  C  C82  1  0.50000000  0.89130000  0.10870000  1
  C  C83  1  0.50000000  0.39130000  0.60870000  1
  C  C84  1  0.78260000  0.89130000  0.39130000  1
  C  C85  1  0.78260000  0.39130000  0.89130000  1
  C  C86  1  0.89130000  0.78260000  0.39130000  1
  C  C87  1  0.89130000  0.50000000  0.10870000  1
  C  C88  1  0.41970000  0.83940000  0.91970000  1
  C  C89  1  0.41970000  0.50000000  0.58030000  1
  C  C90  1  0.50000000  0.91970000  0.08030000  1
  C  C91  1  0.50000000  0.41970000  0.58030000  1
  C  C92  1  0.83940000  0.91970000  0.41970000  1
  C  C93  1  0.83940000  0.41970000  0.91970000  1
  C  C94  1  0.91970000  0.83940000  0.41970000  1
  C  C95  1  0.91970000  0.50000000  0.08030000  1
  C  C96  1  0.34380000  0.85410000  0.75750000  1
  C  C97  1  0.34380000  0.58630000  0.48970000  1
  C  C98  1  0.58630000  0.09660000  0.24250000  1
  C  C99  1  0.58630000  0.34380000  0.48970000  1
  C  C100  1  0.85410000  0.09660000  0.51030000  1
  C  C101  1  0.85410000  0.34380000  0.75750000  1
  C  C102  1  0.09660000  0.85410000  0.51030000  1
  C  C103  1  0.09660000  0.58630000  0.24250000  1
  C  C104  1  0.31810000  0.82970000  0.70600000  1
  C  C105  1  0.31810000  0.61210000  0.48840000  1
  C  C106  1  0.61210000  0.12370000  0.29400000  1
  C  C107  1  0.61210000  0.31810000  0.48840000  1
  C  C108  1  0.82970000  0.12370000  0.51160000  1
  C  C109  1  0.82970000  0.31810000  0.70600000  1
  C  C110  1  0.12370000  0.82970000  0.51160000  1
  C  C111  1  0.12370000  0.61210000  0.29400000  1
  C  C112  1  0.35300000  0.76290000  0.62730000  1
  C  C113  1  0.35300000  0.72570000  0.59010000  1
  C  C114  1  0.72570000  0.13560000  0.37270000  1
  C  C115  1  0.72570000  0.35300000  0.59010000  1
  C  C116  1  0.76290000  0.13560000  0.40990000  1
  C  C117  1  0.76290000  0.35300000  0.62730000  1
  C  C118  1  0.13560000  0.76290000  0.40990000  1
  C  C119  1  0.13560000  0.72570000  0.37270000  1
  C  C120  1  0.31920000  0.77560000  0.60120000  1
  C  C121  1  0.31920000  0.71800000  0.54360000  1
  C  C122  1  0.71800000  0.17440000  0.39880000  1
  C  C123  1  0.71800000  0.31920000  0.54360000  1
  C  C124  1  0.77560000  0.17440000  0.45640000  1
  C  C125  1  0.77560000  0.31920000  0.60120000  1
  C  C126  1  0.17440000  0.77560000  0.45640000  1
  C  C127  1  0.17440000  0.71800000  0.39880000  1
  C  C128  1  0.31270000  0.81270000  0.62540000  1
  C  C129  1  0.31270000  0.68730000  0.50000000  1
  C  C130  1  0.34070000  0.84070000  0.68140000  1
  C  C131  1  0.34070000  0.65930000  0.50000000  1
  C  C132  1  0.39130000  0.89130000  0.78260000  1
  C  C133  1  0.39130000  0.60870000  0.50000000  1
  C  C134  1  0.41970000  0.91970000  0.83940000  1
  C  C135  1  0.41970000  0.58030000  0.50000000  1
  C  C136  1  0.58030000  0.08030000  0.16060000  1
  C  C137  1  0.58030000  0.41970000  0.50000000  1
  C  C138  1  0.60870000  0.10870000  0.21740000  1
  C  C139  1  0.60870000  0.39130000  0.50000000  1
  C  C140  1  0.65930000  0.15930000  0.31860000  1
  C  C141  1  0.65930000  0.34070000  0.50000000  1
  C  C142  1  0.68730000  0.18730000  0.37460000  1
  C  C143  1  0.68730000  0.31270000  0.50000000  1
  C  C144  1  0.81270000  0.18730000  0.50000000  1
  C  C145  1  0.81270000  0.31270000  0.62540000  1
  C  C146  1  0.84070000  0.15930000  0.50000000  1
  C  C147  1  0.84070000  0.34070000  0.68140000  1
  C  C148  1  0.89130000  0.10870000  0.50000000  1
  C  C149  1  0.89130000  0.39130000  0.78260000  1
  C  C150  1  0.91970000  0.08030000  0.50000000  1
  C  C151  1  0.91970000  0.41970000  0.83940000  1
  C  C152  1  0.08030000  0.91970000  0.50000000  1
  C  C153  1  0.08030000  0.58030000  0.16060000  1
  C  C154  1  0.10870000  0.89130000  0.50000000  1
  C  C155  1  0.10870000  0.60870000  0.21740000  1
  C  C156  1  0.15930000  0.84070000  0.50000000  1
  C  C157  1  0.15930000  0.65930000  0.31860000  1
  C  C158  1  0.18730000  0.81270000  0.50000000  1
  C  C159  1  0.18730000  0.68730000  0.37460000  1
  C  C160  1  0.28200000  0.82560000  0.60120000  1
  C  C161  1  0.28200000  0.68080000  0.45640000  1
  C  C162  1  0.68080000  0.22440000  0.39880000  1
  C  C163  1  0.68080000  0.28200000  0.45640000  1
  C  C164  1  0.82560000  0.22440000  0.54360000  1
  C  C165  1  0.82560000  0.28200000  0.60120000  1
  C  C166  1  0.22440000  0.82560000  0.54360000  1
  C  C167  1  0.22440000  0.68080000  0.39880000  1
  C  C168  1  0.27430000  0.86440000  0.62730000  1
  C  C169  1  0.27430000  0.64700000  0.40990000  1
  C  C170  1  0.64700000  0.23710000  0.37270000  1
  C  C171  1  0.64700000  0.27430000  0.40990000  1
  C  C172  1  0.86440000  0.23710000  0.59010000  1
  C  C173  1  0.86440000  0.27430000  0.62730000  1
  C  C174  1  0.23710000  0.86440000  0.59010000  1
  C  C175  1  0.23710000  0.64700000  0.37270000  1
  C  C176  1  0.38790000  0.87630000  0.70600000  1
  C  C177  1  0.38790000  0.68190000  0.51160000  1
  C  C178  1  0.68190000  0.17030000  0.29400000  1
  C  C179  1  0.68190000  0.38790000  0.51160000  1
  C  C180  1  0.87630000  0.17030000  0.48840000  1
  C  C181  1  0.87630000  0.38790000  0.70600000  1
  C  C182  1  0.17030000  0.87630000  0.48840000  1
  C  C183  1  0.17030000  0.68190000  0.29400000  1
  C  C184  1  0.41370000  0.90340000  0.75750000  1
  C  C185  1  0.41370000  0.65620000  0.51030000  1
  C  C186  1  0.65620000  0.14590000  0.24250000  1
  C  C187  1  0.65620000  0.41370000  0.51030000  1
  C  C188  1  0.90340000  0.14590000  0.48970000  1
  C  C189  1  0.90340000  0.41370000  0.75750000  1
  C  C190  1  0.14590000  0.90340000  0.48970000  1
  C  C191  1  0.14590000  0.65620000  0.24250000  1
  C  C192  1  0.50000000  0.08030000  0.91970000  1
  C  C193  1  0.50000000  0.58030000  0.41970000  1
  C  C194  1  0.58030000  0.16060000  0.08030000  1
  C  C195  1  0.58030000  0.50000000  0.41970000  1
  C  C196  1  0.08030000  0.16060000  0.58030000  1
  C  C197  1  0.08030000  0.50000000  0.91970000  1
  C  C198  1  0.16060000  0.08030000  0.58030000  1
  C  C199  1  0.16060000  0.58030000  0.08030000  1
  C  C200  1  0.50000000  0.10870000  0.89130000  1
  C  C201  1  0.50000000  0.60870000  0.39130000  1
  C  C202  1  0.60870000  0.21740000  0.10870000  1
  C  C203  1  0.60870000  0.50000000  0.39130000  1
  C  C204  1  0.10870000  0.21740000  0.60870000  1
  C  C205  1  0.10870000  0.50000000  0.89130000  1
  C  C206  1  0.21740000  0.10870000  0.60870000  1
  C  C207  1  0.21740000  0.60870000  0.10870000  1
  C  C208  1  0.48970000  0.14590000  0.90340000  1
  C  C209  1  0.48970000  0.58630000  0.34380000  1
  C  C210  1  0.58630000  0.24250000  0.09660000  1
  C  C211  1  0.58630000  0.48970000  0.34380000  1
  C  C212  1  0.14590000  0.24250000  0.65620000  1
  C  C213  1  0.14590000  0.48970000  0.90340000  1
  C  C214  1  0.24250000  0.14590000  0.65620000  1
  C  C215  1  0.24250000  0.58630000  0.09660000  1
  C  C216  1  0.51030000  0.09660000  0.85410000  1
  C  C217  1  0.51030000  0.65620000  0.41370000  1
  C  C218  1  0.65620000  0.24250000  0.14590000  1
  C  C219  1  0.65620000  0.51030000  0.41370000  1
  C  C220  1  0.09660000  0.24250000  0.58630000  1
  C  C221  1  0.09660000  0.51030000  0.85410000  1
  C  C222  1  0.24250000  0.09660000  0.58630000  1
  C  C223  1  0.24250000  0.65620000  0.14590000  1
  C  C224  1  0.48840000  0.17030000  0.87630000  1
  C  C225  1  0.48840000  0.61210000  0.31810000  1
  C  C226  1  0.61210000  0.29400000  0.12370000  1
  C  C227  1  0.61210000  0.48840000  0.31810000  1
  C  C228  1  0.17030000  0.29400000  0.68190000  1
  C  C229  1  0.17030000  0.48840000  0.87630000  1
  C  C230  1  0.29400000  0.17030000  0.68190000  1
  C  C231  1  0.29400000  0.61210000  0.12370000  1
  C  C232  1  0.40990000  0.13560000  0.76290000  1
  C  C233  1  0.40990000  0.64700000  0.27430000  1
  C  C234  1  0.64700000  0.37270000  0.23710000  1
  C  C235  1  0.64700000  0.40990000  0.27430000  1
  C  C236  1  0.13560000  0.37270000  0.72570000  1
  C  C237  1  0.13560000  0.40990000  0.76290000  1
  C  C238  1  0.37270000  0.13560000  0.72570000  1
  C  C239  1  0.37270000  0.64700000  0.23710000  1
  C  C240  1  0.51160000  0.12370000  0.82970000  1
  C  C241  1  0.51160000  0.68190000  0.38790000  1
  C  C242  1  0.68190000  0.29400000  0.17030000  1
  C  C243  1  0.68190000  0.51160000  0.38790000  1
  C  C244  1  0.12370000  0.29400000  0.61210000  1
  C  C245  1  0.12370000  0.51160000  0.82970000  1
  C  C246  1  0.29400000  0.12370000  0.61210000  1
  C  C247  1  0.29400000  0.68190000  0.17030000  1
  C  C248  1  0.50000000  0.15930000  0.84070000  1
  C  C249  1  0.50000000  0.65930000  0.34070000  1
  C  C250  1  0.65930000  0.31860000  0.15930000  1
  C  C251  1  0.65930000  0.50000000  0.34070000  1
  C  C252  1  0.15930000  0.31860000  0.65930000  1
  C  C253  1  0.15930000  0.50000000  0.84070000  1
  C  C254  1  0.31860000  0.15930000  0.65930000  1
  C  C255  1  0.31860000  0.65930000  0.15930000  1
  C  C256  1  0.45640000  0.17440000  0.77560000  1
  C  C257  1  0.45640000  0.68080000  0.28200000  1
  C  C258  1  0.68080000  0.39880000  0.22440000  1
  C  C259  1  0.68080000  0.45640000  0.28200000  1
  C  C260  1  0.17440000  0.39880000  0.71800000  1
  C  C261  1  0.17440000  0.45640000  0.77560000  1
  C  C262  1  0.39880000  0.17440000  0.71800000  1
  C  C263  1  0.39880000  0.68080000  0.22440000  1
  C  C264  1  0.50000000  0.18730000  0.81270000  1
  C  C265  1  0.50000000  0.68730000  0.31270000  1
  C  C266  1  0.68730000  0.37460000  0.18730000  1
  C  C267  1  0.68730000  0.50000000  0.31270000  1
  C  C268  1  0.18730000  0.37460000  0.68730000  1
  C  C269  1  0.18730000  0.50000000  0.81270000  1
  C  C270  1  0.37460000  0.18730000  0.68730000  1
  C  C271  1  0.37460000  0.68730000  0.18730000  1
  C  C272  1  0.54360000  0.22440000  0.82560000  1
  C  C273  1  0.54360000  0.71800000  0.31920000  1
  C  C274  1  0.71800000  0.39880000  0.17440000  1
  C  C275  1  0.71800000  0.54360000  0.31920000  1
  C  C276  1  0.22440000  0.39880000  0.68080000  1
  C  C277  1  0.22440000  0.54360000  0.82560000  1
  C  C278  1  0.39880000  0.22440000  0.68080000  1
  C  C279  1  0.39880000  0.71800000  0.17440000  1
  C  C280  1  0.59010000  0.23710000  0.86440000  1
  C  C281  1  0.59010000  0.72570000  0.35300000  1
  C  C282  1  0.72570000  0.37270000  0.13560000  1
  C  C283  1  0.72570000  0.59010000  0.35300000  1
  C  C284  1  0.23710000  0.37270000  0.64700000  1
  C  C285  1  0.23710000  0.59010000  0.86440000  1
  C  C286  1  0.37270000  0.23710000  0.64700000  1
  C  C287  1  0.37270000  0.72570000  0.13560000  1
  Cl  Cl288  1  0.18570000  0.50000000  0.68570000  1
  Cl  Cl289  1  0.31430000  0.50000000  0.81430000  1
  Cl  Cl290  1  0.50000000  0.81430000  0.31430000  1
  Cl  Cl291  1  0.50000000  0.68570000  0.18570000  1
  Cl  Cl292  1  0.50000000  0.31430000  0.81430000  1
  Cl  Cl293  1  0.50000000  0.18570000  0.68570000  1
  Cl  Cl294  1  0.68570000  0.50000000  0.18570000  1
  Cl  Cl295  1  0.81430000  0.50000000  0.31430000  1
  Cl  Cl296  1  0.18570000  0.68570000  0.50000000  1
  Cl  Cl297  1  0.68570000  0.18570000  0.50000000  1
  Cl  Cl298  1  0.31430000  0.81430000  0.50000000  1
  Cl  Cl299  1  0.81430000  0.31430000  0.50000000  1
  H  H300  1  0.29060000  0.66190000  0.88550000  1
  H  H301  1  0.29060000  0.40510000  0.62870000  1
  H  H302  1  0.40510000  0.77640000  0.11450000  1
  H  H303  1  0.40510000  0.29060000  0.62870000  1
  H  H304  1  0.66190000  0.77640000  0.37130000  1
  H  H305  1  0.66190000  0.29060000  0.88550000  1
  H  H306  1  0.77640000  0.66190000  0.37130000  1
  H  H307  1  0.77640000  0.40510000  0.11450000  1
  H  H308  1  0.28430000  0.68820000  0.80510000  1
  H  H309  1  0.28430000  0.47920000  0.59610000  1
  H  H310  1  0.47920000  0.88310000  0.19490000  1
  H  H311  1  0.47920000  0.28430000  0.59610000  1
  H  H312  1  0.68820000  0.88310000  0.40390000  1
  H  H313  1  0.68820000  0.28430000  0.80510000  1
  H  H314  1  0.88310000  0.68820000  0.40390000  1
  H  H315  1  0.88310000  0.47920000  0.19490000  1
  H  H316  1  0.40390000  0.68820000  0.88310000  1
  H  H317  1  0.40390000  0.52080000  0.71570000  1
  H  H318  1  0.52080000  0.80510000  0.11690000  1
  H  H319  1  0.52080000  0.40390000  0.71570000  1
  H  H320  1  0.68820000  0.80510000  0.28430000  1
  H  H321  1  0.68820000  0.40390000  0.88310000  1
  H  H322  1  0.80510000  0.68820000  0.28430000  1
  H  H323  1  0.80510000  0.52080000  0.11690000  1
  H  H324  1  0.37130000  0.66190000  0.77640000  1
  H  H325  1  0.37130000  0.59490000  0.70940000  1
  H  H326  1  0.59490000  0.88550000  0.22360000  1
  H  H327  1  0.59490000  0.37130000  0.70940000  1
  H  H328  1  0.66190000  0.88550000  0.29060000  1
  H  H329  1  0.66190000  0.37130000  0.77640000  1
  H  H330  1  0.88550000  0.66190000  0.29060000  1
  H  H331  1  0.88550000  0.59490000  0.22360000  1
  H  H332  1  0.32820000  0.77480000  0.84480000  1
  H  H333  1  0.32820000  0.48340000  0.55340000  1
  H  H334  1  0.48340000  0.93000000  0.15520000  1
  H  H335  1  0.48340000  0.32820000  0.55340000  1
  H  H336  1  0.77480000  0.93000000  0.44660000  1
  H  H337  1  0.77480000  0.32820000  0.84480000  1
  H  H338  1  0.93000000  0.77480000  0.44660000  1
  H  H339  1  0.93000000  0.48340000  0.15520000  1
  H  H340  1  0.44660000  0.77480000  0.93000000  1
  H  H341  1  0.44660000  0.51660000  0.67180000  1
  H  H342  1  0.51660000  0.84480000  0.07000000  1
  H  H343  1  0.51660000  0.44660000  0.67180000  1
  H  H344  1  0.77480000  0.84480000  0.32820000  1
  H  H345  1  0.77480000  0.44660000  0.93000000  1
  H  H346  1  0.84480000  0.77480000  0.32820000  1
  H  H347  1  0.84480000  0.51660000  0.07000000  1
  H  H348  1  0.32820000  0.84480000  0.77480000  1
  H  H349  1  0.32820000  0.55340000  0.48340000  1
  H  H350  1  0.55340000  0.07000000  0.22520000  1
  H  H351  1  0.55340000  0.32820000  0.48340000  1
  H  H352  1  0.84480000  0.07000000  0.51660000  1
  H  H353  1  0.84480000  0.32820000  0.77480000  1
  H  H354  1  0.07000000  0.84480000  0.51660000  1
  H  H355  1  0.07000000  0.55340000  0.22520000  1
  H  H356  1  0.28430000  0.80510000  0.68820000  1
  H  H357  1  0.28430000  0.59610000  0.47920000  1
  H  H358  1  0.59610000  0.11690000  0.31180000  1
  H  H359  1  0.59610000  0.28430000  0.47920000  1
  H  H360  1  0.80510000  0.11690000  0.52080000  1
  H  H361  1  0.80510000  0.28430000  0.68820000  1
  H  H362  1  0.11690000  0.80510000  0.52080000  1
  H  H363  1  0.11690000  0.59610000  0.31180000  1
  H  H364  1  0.37130000  0.77640000  0.66190000  1
  H  H365  1  0.37130000  0.70940000  0.59490000  1
  H  H366  1  0.70940000  0.11450000  0.33810000  1
  H  H367  1  0.70940000  0.37130000  0.59490000  1
  H  H368  1  0.77640000  0.11450000  0.40510000  1
  H  H369  1  0.77640000  0.37130000  0.66190000  1
  H  H370  1  0.11450000  0.77640000  0.40510000  1
  H  H371  1  0.11450000  0.70940000  0.33810000  1
  H  H372  1  0.29060000  0.88550000  0.66190000  1
  H  H373  1  0.29060000  0.62870000  0.40510000  1
  H  H374  1  0.62870000  0.22360000  0.33810000  1
  H  H375  1  0.62870000  0.29060000  0.40510000  1
  H  H376  1  0.88550000  0.22360000  0.59490000  1
  H  H377  1  0.88550000  0.29060000  0.66190000  1
  H  H378  1  0.22360000  0.88550000  0.59490000  1
  H  H379  1  0.22360000  0.62870000  0.33810000  1
  H  H380  1  0.40390000  0.88310000  0.68820000  1
  H  H381  1  0.40390000  0.71570000  0.52080000  1
  H  H382  1  0.71570000  0.19490000  0.31180000  1
  H  H383  1  0.71570000  0.40390000  0.52080000  1
  H  H384  1  0.88310000  0.19490000  0.47920000  1
  H  H385  1  0.88310000  0.40390000  0.68820000  1
  H  H386  1  0.19490000  0.88310000  0.47920000  1
  H  H387  1  0.19490000  0.71570000  0.31180000  1
  H  H388  1  0.44660000  0.93000000  0.77480000  1
  H  H389  1  0.44660000  0.67180000  0.51660000  1
  H  H390  1  0.67180000  0.15520000  0.22520000  1
  H  H391  1  0.67180000  0.44660000  0.51660000  1
  H  H392  1  0.93000000  0.15520000  0.48340000  1
  H  H393  1  0.93000000  0.44660000  0.77480000  1
  H  H394  1  0.15520000  0.93000000  0.48340000  1
  H  H395  1  0.15520000  0.67180000  0.22520000  1
  H  H396  1  0.48340000  0.15520000  0.93000000  1
  H  H397  1  0.48340000  0.55340000  0.32820000  1
  H  H398  1  0.55340000  0.22520000  0.07000000  1
  H  H399  1  0.55340000  0.48340000  0.32820000  1
  H  H400  1  0.15520000  0.22520000  0.67180000  1
  H  H401  1  0.15520000  0.48340000  0.93000000  1
  H  H402  1  0.22520000  0.15520000  0.67180000  1
  H  H403  1  0.22520000  0.55340000  0.07000000  1
  H  H404  1  0.51660000  0.07000000  0.84480000  1
  H  H405  1  0.51660000  0.67180000  0.44660000  1
  H  H406  1  0.67180000  0.22520000  0.15520000  1
  H  H407  1  0.67180000  0.51660000  0.44660000  1
  H  H408  1  0.07000000  0.22520000  0.55340000  1
  H  H409  1  0.07000000  0.51660000  0.84480000  1
  H  H410  1  0.22520000  0.07000000  0.55340000  1
  H  H411  1  0.22520000  0.67180000  0.15520000  1
  H  H412  1  0.40510000  0.11450000  0.77640000  1
  H  H413  1  0.40510000  0.62870000  0.29060000  1
  H  H414  1  0.62870000  0.33810000  0.22360000  1
  H  H415  1  0.62870000  0.40510000  0.29060000  1
  H  H416  1  0.11450000  0.33810000  0.70940000  1
  H  H417  1  0.11450000  0.40510000  0.77640000  1
  H  H418  1  0.33810000  0.11450000  0.70940000  1
  H  H419  1  0.33810000  0.62870000  0.22360000  1
  H  H420  1  0.47920000  0.19490000  0.88310000  1
  H  H421  1  0.47920000  0.59610000  0.28430000  1
  H  H422  1  0.59610000  0.31180000  0.11690000  1
  H  H423  1  0.59610000  0.47920000  0.28430000  1
  H  H424  1  0.19490000  0.31180000  0.71570000  1
  H  H425  1  0.19490000  0.47920000  0.88310000  1
  H  H426  1  0.31180000  0.19490000  0.71570000  1
  H  H427  1  0.31180000  0.59610000  0.11690000  1
  H  H428  1  0.52080000  0.11690000  0.80510000  1
  H  H429  1  0.52080000  0.71570000  0.40390000  1
  H  H430  1  0.71570000  0.31180000  0.19490000  1
  H  H431  1  0.71570000  0.52080000  0.40390000  1
  H  H432  1  0.11690000  0.31180000  0.59610000  1
  H  H433  1  0.11690000  0.52080000  0.80510000  1
  H  H434  1  0.31180000  0.11690000  0.59610000  1
  H  H435  1  0.31180000  0.71570000  0.19490000  1
  H  H436  1  0.59490000  0.22360000  0.88550000  1
  H  H437  1  0.59490000  0.70940000  0.37130000  1
  H  H438  1  0.70940000  0.33810000  0.11450000  1
  H  H439  1  0.70940000  0.59490000  0.37130000  1
  H  H440  1  0.22360000  0.33810000  0.62870000  1
  H  H441  1  0.22360000  0.59490000  0.88550000  1
  H  H442  1  0.33810000  0.22360000  0.62870000  1
  H  H443  1  0.33810000  0.70940000  0.11450000  1
  Hf  Hf444  1  0.41442000  0.93577000  0.93577000  1
  Hf  Hf445  1  0.41442000  0.47865000  0.47865000  1
  Hf  Hf446  1  0.47865000  0.00000000  0.06423000  1
  Hf  Hf447  1  0.47865000  0.41442000  0.47865000  1
  Hf  Hf448  1  0.93577000  0.00000000  0.52135000  1
  Hf  Hf449  1  0.93577000  0.41442000  0.93577000  1
  Hf  Hf450  1  1.00000000  0.93577000  0.52135000  1
  Hf  Hf451  1  1.00000000  0.47865000  0.06423000  1
  Hf  Hf452  1  0.52135000  0.93577000  1.00000000  1
  Hf  Hf453  1  0.52135000  0.52135000  0.58558000  1
  Hf  Hf454  1  0.93577000  0.93577000  0.41442000  1
  Hf  Hf455  1  0.93577000  0.52135000  1.00000000  1
  Hf  Hf456  1  0.47865000  0.06423000  1.00000000  1
  Hf  Hf457  1  0.47865000  0.47865000  0.41442000  1
  Hf  Hf458  1  0.06423000  0.06423000  0.58558000  1
  Hf  Hf459  1  0.06423000  0.47865000  0.00000000  1
  Hf  Hf460  1  0.52135000  1.00000000  0.93577000  1
  Hf  Hf461  1  0.52135000  0.58558000  0.52135000  1
  Hf  Hf462  1  0.58558000  0.06423000  0.06423000  1
  Hf  Hf463  1  0.58558000  0.52135000  0.52135000  1
  Hf  Hf464  1  1.00000000  0.06423000  0.47865000  1
  Hf  Hf465  1  1.00000000  0.52135000  0.93577000  1
  Hf  Hf466  1  0.06423000  0.00000000  0.47865000  1
  Hf  Hf467  1  0.06423000  0.58558000  0.06423000  1
  Ir  Ir468  1  0.25000000  0.50000000  0.75000000  1
  Ir  Ir469  1  0.50000000  0.75000000  0.25000000  1
  Ir  Ir470  1  0.50000000  0.25000000  0.75000000  1
  Ir  Ir471  1  0.75000000  0.50000000  0.25000000  1
  Ir  Ir472  1  0.25000000  0.75000000  0.50000000  1
  Ir  Ir473  1  0.75000000  0.25000000  0.50000000  1
  N  N474  1  0.25210000  0.55220000  0.80430000  1
  N  N475  1  0.25210000  0.44780000  0.69990000  1
  N  N476  1  0.44780000  0.74790000  0.19570000  1
  N  N477  1  0.44780000  0.25210000  0.69990000  1
  N  N478  1  0.55220000  0.74790000  0.30010000  1
  N  N479  1  0.55220000  0.25210000  0.80430000  1
  N  N480  1  0.74790000  0.55220000  0.30010000  1
  N  N481  1  0.74790000  0.44780000  0.19570000  1
  N  N482  1  0.30010000  0.55220000  0.74790000  1
  N  N483  1  0.55220000  0.80430000  0.25210000  1
  N  N484  1  0.55220000  0.30010000  0.74790000  1
  N  N485  1  0.80430000  0.55220000  0.25210000  1
  N  N486  1  0.30010000  0.74790000  0.55220000  1
  N  N487  1  0.74790000  0.19570000  0.44780000  1
  N  N488  1  0.74790000  0.30010000  0.55220000  1
  N  N489  1  0.19570000  0.74790000  0.44780000  1
  N  N490  1  0.25210000  0.80430000  0.55220000  1
  N  N491  1  0.25210000  0.69990000  0.44780000  1
  N  N492  1  0.69990000  0.25210000  0.44780000  1
  N  N493  1  0.80430000  0.25210000  0.55220000  1
  N  N494  1  0.44780000  0.19570000  0.74790000  1
  N  N495  1  0.44780000  0.69990000  0.25210000  1
  N  N496  1  0.69990000  0.44780000  0.25210000  1
  N  N497  1  0.19570000  0.44780000  0.74790000  1
  O  O498  1  0.39450000  0.85660000  0.90690000  1
  O  O499  1  0.39450000  0.48760000  0.53790000  1
  O  O500  1  0.48760000  0.94970000  0.09310000  1
  O  O501  1  0.48760000  0.39450000  0.53790000  1
  O  O502  1  0.85660000  0.94970000  0.46210000  1
  O  O503  1  0.85660000  0.39450000  0.90690000  1
  O  O504  1  0.94970000  0.85660000  0.46210000  1
  O  O505  1  0.94970000  0.48760000  0.09310000  1
  O  O506  1  0.46210000  0.85660000  0.94970000  1
  O  O507  1  0.46210000  0.51240000  0.60550000  1
  O  O508  1  0.51240000  0.90690000  0.05030000  1
  O  O509  1  0.51240000  0.46210000  0.60550000  1
  O  O510  1  0.85660000  0.90690000  0.39450000  1
  O  O511  1  0.85660000  0.46210000  0.94970000  1
  O  O512  1  0.90690000  0.85660000  0.39450000  1
  O  O513  1  0.90690000  0.51240000  0.05030000  1
  O  O514  1  0.45220000  0.93660000  0.00000000  1
  O  O515  1  0.45220000  0.45220000  0.51560000  1
  O  O516  1  0.93660000  0.93660000  0.48440000  1
  O  O517  1  0.93660000  0.45220000  0.00000000  1
  O  O518  1  0.42880000  1.00000000  1.00000000  1
  O  O519  1  0.42880000  0.42880000  0.42880000  1
  O  O520  1  1.00000000  0.00000000  0.57120000  1
  O  O521  1  1.00000000  0.42880000  0.00000000  1
  O  O522  1  0.39450000  0.90690000  0.85660000  1
  O  O523  1  0.39450000  0.53790000  0.48760000  1
  O  O524  1  0.53790000  0.05030000  0.14340000  1
  O  O525  1  0.53790000  0.39450000  0.48760000  1
  O  O526  1  0.90690000  0.05030000  0.51240000  1
  O  O527  1  0.90690000  0.39450000  0.85660000  1
  O  O528  1  0.05030000  0.90690000  0.51240000  1
  O  O529  1  0.05030000  0.53790000  0.14340000  1
  O  O530  1  0.48440000  0.93660000  0.93660000  1
  O  O531  1  0.48440000  0.54780000  0.54780000  1
  O  O532  1  0.54780000  0.00000000  0.06340000  1
  O  O533  1  0.54780000  0.48440000  0.54780000  1
  O  O534  1  0.93660000  0.00000000  0.45220000  1
  O  O535  1  0.93660000  0.48440000  0.93660000  1
  O  O536  1  1.00000000  0.93660000  0.45220000  1
  O  O537  1  1.00000000  0.54780000  0.06340000  1
  O  O538  1  0.45220000  1.00000000  0.93660000  1
  O  O539  1  0.45220000  0.51560000  0.45220000  1
  O  O540  1  0.51560000  0.06340000  0.06340000  1
  O  O541  1  0.51560000  0.45220000  0.45220000  1
  O  O542  1  1.00000000  0.06340000  0.54780000  1
  O  O543  1  1.00000000  0.45220000  0.93660000  1
  O  O544  1  0.06340000  0.00000000  0.54780000  1
  O  O545  1  0.06340000  0.51560000  0.06340000  1
  O  O546  1  0.46210000  0.94970000  0.85660000  1
  O  O547  1  0.46210000  0.60550000  0.51240000  1
  O  O548  1  0.60550000  0.09310000  0.14340000  1
  O  O549  1  0.60550000  0.46210000  0.51240000  1
  O  O550  1  0.94970000  0.09310000  0.48760000  1
  O  O551  1  0.94970000  0.46210000  0.85660000  1
  O  O552  1  0.09310000  0.94970000  0.48760000  1
  O  O553  1  0.09310000  0.60550000  0.14340000  1
  O  O554  1  0.57120000  0.00000000  1.00000000  1
  O  O555  1  0.57120000  0.57120000  0.57120000  1
  O  O556  1  1.00000000  0.00000000  0.42880000  1
  O  O557  1  1.00000000  0.57120000  0.00000000  1
  O  O558  1  0.54780000  0.06340000  1.00000000  1
  O  O559  1  0.54780000  0.54780000  0.48440000  1
  O  O560  1  0.06340000  0.06340000  0.51560000  1
  O  O561  1  0.06340000  0.54780000  0.00000000  1
  O  O562  1  0.48760000  0.09310000  0.94970000  1
  O  O563  1  0.48760000  0.53790000  0.39450000  1
  O  O564  1  0.53790000  0.14340000  0.05030000  1
  O  O565  1  0.53790000  0.48760000  0.39450000  1
  O  O566  1  0.09310000  0.14340000  0.60550000  1
  O  O567  1  0.09310000  0.48760000  0.94970000  1
  O  O568  1  0.14340000  0.09310000  0.60550000  1
  O  O569  1  0.14340000  0.53790000  0.05030000  1
  O  O570  1  0.51240000  0.05030000  0.90690000  1
  O  O571  1  0.51240000  0.60550000  0.46210000  1
  O  O572  1  0.60550000  0.14340000  0.09310000  1
  O  O573  1  0.60550000  0.51240000  0.46210000  1
  O  O574  1  0.05030000  0.14340000  0.53790000  1
  O  O575  1  0.05030000  0.51240000  0.90690000  1
  O  O576  1  0.14340000  0.05030000  0.53790000  1
  O  O577  1  0.14340000  0.60550000  0.09310000  1
