# generated using pymatgen
data_K2Ca3H4(CO)14
_symmetry_space_group_name_H-M   'P 1'
_cell_length_a   7.89490000
_cell_length_b   17.30880000
_cell_length_c   17.42770000
_cell_angle_alpha   90.00000000
_cell_angle_beta   90.00000000
_cell_angle_gamma   90.00000000
_symmetry_Int_Tables_number   1
_chemical_formula_structural   K2Ca3H4(CO)14
_chemical_formula_sum   'K8 Ca12 H16 C56 O56'
_cell_volume   2381.51690458
_cell_formula_units_Z   4
loop_
 _symmetry_equiv_pos_site_id
 _symmetry_equiv_pos_as_xyz
  1  'x, y, z'
loop_
 _atom_site_type_symbol
 _atom_site_label
 _atom_site_symmetry_multiplicity
 _atom_site_fract_x
 _atom_site_fract_y
 _atom_site_fract_z
 _atom_site_occupancy
  K  K0  1  0.81749000  0.21606000  0.51793000  1
  K  K1  1  0.31749000  0.21606000  0.98207000  1
  K  K2  1  0.31749000  0.28394000  0.51793000  1
  K  K3  1  0.81749000  0.28394000  0.98207000  1
  K  K4  1  0.18251000  0.71606000  0.01793000  1
  K  K5  1  0.68251000  0.71606000  0.48207000  1
  K  K6  1  0.68251000  0.78394000  0.01793000  1
  K  K7  1  0.18251000  0.78394000  0.48207000  1
  Ca  Ca8  1  0.82041000  0.08049000  0.69618000  1
  Ca  Ca9  1  0.32041000  0.08049000  0.80382000  1
  Ca  Ca10  1  0.06622000  0.25000000  0.75000000  1
  Ca  Ca11  1  0.56622000  0.25000000  0.75000000  1
  Ca  Ca12  1  0.32041000  0.41951000  0.69618000  1
  Ca  Ca13  1  0.82041000  0.41951000  0.80382000  1
  Ca  Ca14  1  0.17959000  0.58049000  0.19618000  1
  Ca  Ca15  1  0.67959000  0.58049000  0.30382000  1
  Ca  Ca16  1  0.43378000  0.75000000  0.25000000  1
  Ca  Ca17  1  0.93378000  0.75000000  0.25000000  1
  Ca  Ca18  1  0.67959000  0.91951000  0.19618000  1
  Ca  Ca19  1  0.17959000  0.91951000  0.30382000  1
  H  H20  1  0.06350000  0.09240000  0.50530000  1
  H  H21  1  0.56350000  0.09240000  0.99470000  1
  H  H22  1  0.57410000  0.09560000  0.50630000  1
  H  H23  1  0.07410000  0.09560000  0.99370000  1
  H  H24  1  0.07410000  0.40440000  0.50630000  1
  H  H25  1  0.57410000  0.40440000  0.99370000  1
  H  H26  1  0.56350000  0.40760000  0.50530000  1
  H  H27  1  0.06350000  0.40760000  0.99470000  1
  H  H28  1  0.93650000  0.59240000  0.00530000  1
  H  H29  1  0.43650000  0.59240000  0.49470000  1
  H  H30  1  0.42590000  0.59560000  0.00630000  1
  H  H31  1  0.92590000  0.59560000  0.49370000  1
  H  H32  1  0.92590000  0.90440000  0.00630000  1
  H  H33  1  0.42590000  0.90440000  0.49370000  1
  H  H34  1  0.43650000  0.90760000  0.00530000  1
  H  H35  1  0.93650000  0.90760000  0.49470000  1
  C  C36  1  0.82200000  0.05880000  0.08570000  1
  C  C37  1  0.32200000  0.05880000  0.41430000  1
  C  C38  1  0.82000000  0.08980000  0.00630000  1
  C  C39  1  0.32000000  0.08980000  0.49370000  1
  C  C40  1  0.16440000  0.10440000  0.53010000  1
  C  C41  1  0.66440000  0.10440000  0.96990000  1
  C  C42  1  0.47210000  0.10570000  0.53100000  1
  C  C43  1  0.97210000  0.10570000  0.96900000  1
  C  C44  1  0.47320000  0.13670000  0.60530000  1
  C  C45  1  0.97320000  0.13670000  0.89470000  1
  C  C46  1  0.16130000  0.13700000  0.60370000  1
  C  C47  1  0.66130000  0.13700000  0.89630000  1
  C  C48  1  0.31780000  0.15080000  0.64160000  1
  C  C49  1  0.81780000  0.15080000  0.85840000  1
  C  C50  1  0.81780000  0.34920000  0.64160000  1
  C  C51  1  0.31780000  0.34920000  0.85840000  1
  C  C52  1  0.66130000  0.36300000  0.60370000  1
  C  C53  1  0.16130000  0.36300000  0.89630000  1
  C  C54  1  0.97320000  0.36330000  0.60530000  1
  C  C55  1  0.47320000  0.36330000  0.89470000  1
  C  C56  1  0.97210000  0.39430000  0.53100000  1
  C  C57  1  0.47210000  0.39430000  0.96900000  1
  C  C58  1  0.66440000  0.39560000  0.53010000  1
  C  C59  1  0.16440000  0.39560000  0.96990000  1
  C  C60  1  0.32000000  0.41020000  0.00630000  1
  C  C61  1  0.82000000  0.41020000  0.49370000  1
  C  C62  1  0.32200000  0.44120000  0.08570000  1
  C  C63  1  0.82200000  0.44120000  0.41430000  1
  C  C64  1  0.17800000  0.55880000  0.58570000  1
  C  C65  1  0.67800000  0.55880000  0.91430000  1
  C  C66  1  0.18000000  0.58980000  0.50630000  1
  C  C67  1  0.68000000  0.58980000  0.99370000  1
  C  C68  1  0.83560000  0.60440000  0.03010000  1
  C  C69  1  0.33560000  0.60440000  0.46990000  1
  C  C70  1  0.52790000  0.60570000  0.03100000  1
  C  C71  1  0.02790000  0.60570000  0.46900000  1
  C  C72  1  0.52680000  0.63670000  0.10530000  1
  C  C73  1  0.02680000  0.63670000  0.39470000  1
  C  C74  1  0.83870000  0.63700000  0.10370000  1
  C  C75  1  0.33870000  0.63700000  0.39630000  1
  C  C76  1  0.68220000  0.65080000  0.14160000  1
  C  C77  1  0.18220000  0.65080000  0.35840000  1
  C  C78  1  0.18220000  0.84920000  0.14160000  1
  C  C79  1  0.68220000  0.84920000  0.35840000  1
  C  C80  1  0.33870000  0.86300000  0.10370000  1
  C  C81  1  0.83870000  0.86300000  0.39630000  1
  C  C82  1  0.02680000  0.86330000  0.10530000  1
  C  C83  1  0.52680000  0.86330000  0.39470000  1
  C  C84  1  0.02790000  0.89430000  0.03100000  1
  C  C85  1  0.52790000  0.89430000  0.46900000  1
  C  C86  1  0.33560000  0.89560000  0.03010000  1
  C  C87  1  0.83560000  0.89560000  0.46990000  1
  C  C88  1  0.68000000  0.91020000  0.50630000  1
  C  C89  1  0.18000000  0.91020000  0.99370000  1
  C  C90  1  0.67800000  0.94120000  0.58570000  1
  C  C91  1  0.17800000  0.94120000  0.91430000  1
  O  O92  1  0.07340000  0.00760000  0.74490000  1
  O  O93  1  0.57340000  0.00760000  0.75510000  1
  O  O94  1  0.69590000  0.02180000  0.11030000  1
  O  O95  1  0.19590000  0.02180000  0.38970000  1
  O  O96  1  0.95230000  0.07250000  0.12770000  1
  O  O97  1  0.45230000  0.07250000  0.37230000  1
  O  O98  1  0.61690000  0.15519000  0.64198000  1
  O  O99  1  0.11690000  0.15519000  0.85802000  1
  O  O100  1  0.01660000  0.15673000  0.63871000  1
  O  O101  1  0.51660000  0.15673000  0.86129000  1
  O  O102  1  0.31540000  0.17886000  0.71392000  1
  O  O103  1  0.81540000  0.17886000  0.78608000  1
  O  O104  1  0.05840000  0.23240000  0.09180000  1
  O  O105  1  0.55840000  0.23240000  0.40820000  1
  O  O106  1  0.55840000  0.26760000  0.09180000  1
  O  O107  1  0.05840000  0.26760000  0.40820000  1
  O  O108  1  0.81540000  0.32114000  0.71392000  1
  O  O109  1  0.31540000  0.32114000  0.78608000  1
  O  O110  1  0.51660000  0.34327000  0.63871000  1
  O  O111  1  0.01660000  0.34327000  0.86129000  1
  O  O112  1  0.11690000  0.34481000  0.64198000  1
  O  O113  1  0.61690000  0.34481000  0.85802000  1
  O  O114  1  0.45230000  0.42750000  0.12770000  1
  O  O115  1  0.95230000  0.42750000  0.37230000  1
  O  O116  1  0.19590000  0.47820000  0.11030000  1
  O  O117  1  0.69590000  0.47820000  0.38970000  1
  O  O118  1  0.57340000  0.49240000  0.74490000  1
  O  O119  1  0.07340000  0.49240000  0.75510000  1
  O  O120  1  0.92660000  0.50760000  0.24490000  1
  O  O121  1  0.42660000  0.50760000  0.25510000  1
  O  O122  1  0.30410000  0.52180000  0.61030000  1
  O  O123  1  0.80410000  0.52180000  0.88970000  1
  O  O124  1  0.04770000  0.57250000  0.62770000  1
  O  O125  1  0.54770000  0.57250000  0.87230000  1
  O  O126  1  0.38310000  0.65519000  0.14198000  1
  O  O127  1  0.88310000  0.65519000  0.35802000  1
  O  O128  1  0.98340000  0.65673000  0.13871000  1
  O  O129  1  0.48340000  0.65673000  0.36129000  1
  O  O130  1  0.68460000  0.67886000  0.21392000  1
  O  O131  1  0.18460000  0.67886000  0.28608000  1
  O  O132  1  0.94160000  0.73240000  0.59180000  1
  O  O133  1  0.44160000  0.73240000  0.90820000  1
  O  O134  1  0.44160000  0.76760000  0.59180000  1
  O  O135  1  0.94160000  0.76760000  0.90820000  1
  O  O136  1  0.18460000  0.82114000  0.21392000  1
  O  O137  1  0.68460000  0.82114000  0.28608000  1
  O  O138  1  0.48340000  0.84327000  0.13871000  1
  O  O139  1  0.98340000  0.84327000  0.36129000  1
  O  O140  1  0.88310000  0.84481000  0.14198000  1
  O  O141  1  0.38310000  0.84481000  0.35802000  1
  O  O142  1  0.54770000  0.92750000  0.62770000  1
  O  O143  1  0.04770000  0.92750000  0.87230000  1
  O  O144  1  0.80410000  0.97820000  0.61030000  1
  O  O145  1  0.30410000  0.97820000  0.88970000  1
  O  O146  1  0.42660000  0.99240000  0.24490000  1
  O  O147  1  0.92660000  0.99240000  0.25510000  1
