# generated using pymatgen
data_In3H4(C10O9)2
_symmetry_space_group_name_H-M   'P 1'
_cell_length_a   7.20300000
_cell_length_b   13.43000000
_cell_length_c   17.54000000
_cell_angle_alpha   90.00000000
_cell_angle_beta   100.76000000
_cell_angle_gamma   90.00000000
_symmetry_Int_Tables_number   1
_chemical_formula_structural   In3H4(C10O9)2
_chemical_formula_sum   'In6 H8 C40 O36'
_cell_volume   1666.92189697
_cell_formula_units_Z   2
loop_
 _symmetry_equiv_pos_site_id
 _symmetry_equiv_pos_as_xyz
  1  'x, y, z'
loop_
 _atom_site_type_symbol
 _atom_site_label
 _atom_site_symmetry_multiplicity
 _atom_site_fract_x
 _atom_site_fract_y
 _atom_site_fract_z
 _atom_site_occupancy
  In  In0  1  0.00000000  0.00000000  0.50000000  1
  In  In1  1  0.00000000  0.50000000  0.00000000  1
  In  In2  1  0.46828000  0.10183000  0.44818000  1
  In  In3  1  0.46828000  0.39817000  0.94818000  1
  In  In4  1  0.53172000  0.60183000  0.05182000  1
  In  In5  1  0.53172000  0.89817000  0.55182000  1
  H  H6  1  0.20480000  0.22440000  0.77870000  1
  H  H7  1  0.20480000  0.27560000  0.27870000  1
  H  H8  1  0.45630000  0.70720000  0.77400000  1
  H  H9  1  0.45630000  0.79280000  0.27400000  1
  H  H10  1  0.54370000  0.20720000  0.72600000  1
  H  H11  1  0.54370000  0.29280000  0.22600000  1
  H  H12  1  0.79520000  0.72440000  0.72130000  1
  H  H13  1  0.79520000  0.77560000  0.22130000  1
  C  C14  1  0.02270000  0.67480000  0.80020000  1
  C  C15  1  0.02270000  0.82520000  0.30020000  1
  C  C16  1  0.03280000  0.73520000  0.18200000  1
  C  C17  1  0.03280000  0.76480000  0.68200000  1
  C  C18  1  0.06480000  0.17290000  0.38420000  1
  C  C19  1  0.06480000  0.32710000  0.88420000  1
  C  C20  1  0.07070000  0.22190000  0.76740000  1
  C  C21  1  0.07070000  0.27810000  0.26740000  1
  C  C22  1  0.08600000  0.13150000  0.64200000  1
  C  C23  1  0.08600000  0.36850000  0.14200000  1
  C  C24  1  0.21870000  0.66920000  0.81520000  1
  C  C25  1  0.21870000  0.83080000  0.31520000  1
  C  C26  1  0.23070000  0.74040000  0.19750000  1
  C  C27  1  0.23070000  0.75960000  0.69750000  1
  C  C28  1  0.32230000  0.71150000  0.76360000  1
  C  C29  1  0.32230000  0.78850000  0.26360000  1
  C  C30  1  0.32680000  0.61120000  0.88240000  1
  C  C31  1  0.32680000  0.88880000  0.38240000  1
  C  C32  1  0.34810000  0.69580000  0.14540000  1
  C  C33  1  0.34810000  0.80420000  0.64540000  1
  C  C34  1  0.65190000  0.19580000  0.35460000  1
  C  C35  1  0.65190000  0.30420000  0.85460000  1
  C  C36  1  0.67320000  0.11120000  0.61760000  1
  C  C37  1  0.67320000  0.38880000  0.11760000  1
  C  C38  1  0.67770000  0.21150000  0.73640000  1
  C  C39  1  0.67770000  0.28850000  0.23640000  1
  C  C40  1  0.76930000  0.24040000  0.30250000  1
  C  C41  1  0.76930000  0.25960000  0.80250000  1
  C  C42  1  0.78130000  0.16920000  0.68480000  1
  C  C43  1  0.78130000  0.33080000  0.18480000  1
  C  C44  1  0.91400000  0.63150000  0.85800000  1
  C  C45  1  0.91400000  0.86850000  0.35800000  1
  C  C46  1  0.92930000  0.72190000  0.73260000  1
  C  C47  1  0.92930000  0.77810000  0.23260000  1
  C  C48  1  0.93520000  0.67290000  0.11580000  1
  C  C49  1  0.93520000  0.82710000  0.61580000  1
  C  C50  1  0.96720000  0.23520000  0.31800000  1
  C  C51  1  0.96720000  0.26480000  0.81800000  1
  C  C52  1  0.97730000  0.17480000  0.69980000  1
  C  C53  1  0.97730000  0.32520000  0.19980000  1
  O  O54  1  0.01310000  0.62140000  0.92630000  1
  O  O55  1  0.01310000  0.87860000  0.42630000  1
  O  O56  1  0.02250000  0.59820000  0.09860000  1
  O  O57  1  0.02250000  0.90180000  0.59860000  1
  O  O58  1  0.23280000  0.19870000  0.41560000  1
  O  O59  1  0.23280000  0.30130000  0.91560000  1
  O  O60  1  0.25660000  0.11030000  0.66220000  1
  O  O61  1  0.25660000  0.38970000  0.16220000  1
  O  O62  1  0.30940000  0.01280000  0.52900000  1
  O  O63  1  0.30940000  0.48720000  0.02900000  1
  O  O64  1  0.31930000  0.51860000  0.87570000  1
  O  O65  1  0.31930000  0.98140000  0.37570000  1
  O  O66  1  0.33400000  0.72390000  0.07590000  1
  O  O67  1  0.33400000  0.77610000  0.57590000  1
  O  O68  1  0.42290000  0.66150000  0.93690000  1
  O  O69  1  0.42290000  0.83850000  0.43690000  1
  O  O70  1  0.46590000  0.62800000  0.17210000  1
  O  O71  1  0.46590000  0.87200000  0.67210000  1
  O  O72  1  0.53410000  0.12800000  0.32790000  1
  O  O73  1  0.53410000  0.37200000  0.82790000  1
  O  O74  1  0.57710000  0.16150000  0.56310000  1
  O  O75  1  0.57710000  0.33850000  0.06310000  1
  O  O76  1  0.66600000  0.22390000  0.42410000  1
  O  O77  1  0.66600000  0.27610000  0.92410000  1
  O  O78  1  0.68070000  0.01860000  0.62430000  1
  O  O79  1  0.68070000  0.48140000  0.12430000  1
  O  O80  1  0.69060000  0.51280000  0.97100000  1
  O  O81  1  0.69060000  0.98720000  0.47100000  1
  O  O82  1  0.74340000  0.61030000  0.83780000  1
  O  O83  1  0.74340000  0.88970000  0.33780000  1
  O  O84  1  0.76720000  0.69870000  0.08440000  1
  O  O85  1  0.76720000  0.80130000  0.58440000  1
  O  O86  1  0.97750000  0.09820000  0.40140000  1
  O  O87  1  0.97750000  0.40180000  0.90140000  1
  O  O88  1  0.98690000  0.12140000  0.57370000  1
  O  O89  1  0.98690000  0.37860000  0.07370000  1
