# generated using pymatgen
data_MnCu8H20C52(N2O9)2
_symmetry_space_group_name_H-M   'P 1'
_cell_length_a   22.50530000
_cell_length_b   22.50530000
_cell_length_c   36.44400000
_cell_angle_alpha   90.00000000
_cell_angle_beta   90.00000000
_cell_angle_gamma   120.00000000
_symmetry_Int_Tables_number   1
_chemical_formula_structural   MnCu8H20C52(N2O9)2
_chemical_formula_sum   'Mn6 Cu48 H120 C312 N24 O108'
_cell_volume   15985.50213168
_cell_formula_units_Z   6
loop_
 _symmetry_equiv_pos_site_id
 _symmetry_equiv_pos_as_xyz
  1  'x, y, z'
loop_
 _atom_site_type_symbol
 _atom_site_label
 _atom_site_symmetry_multiplicity
 _atom_site_fract_x
 _atom_site_fract_y
 _atom_site_fract_z
 _atom_site_occupancy
  Mn  Mn0  1  1.00000000  0.50000000  0.00000000  1
  Mn  Mn1  1  1.00000000  0.50000000  0.50000000  1
  Mn  Mn2  1  0.50000000  0.50000000  1.00000000  1
  Mn  Mn3  1  0.50000000  0.50000000  0.50000000  1
  Mn  Mn4  1  0.50000000  1.00000000  0.00000000  1
  Mn  Mn5  1  0.50000000  1.00000000  0.50000000  1
  Cu  Cu6  1  1.00000000  0.42039000  0.41549000  1
  Cu  Cu7  1  1.00000000  0.42039000  0.08451000  1
  Cu  Cu8  1  1.00000000  0.57961000  0.91549000  1
  Cu  Cu9  1  1.00000000  0.57961000  0.58451000  1
  Cu  Cu10  1  0.95245000  0.31675000  0.48655000  1
  Cu  Cu11  1  0.95245000  0.31675000  0.01345000  1
  Cu  Cu12  1  0.95245000  0.63570000  0.98655000  1
  Cu  Cu13  1  0.95245000  0.63570000  0.51345000  1
  Cu  Cu14  1  0.75581000  0.27032000  0.25000000  1
  Cu  Cu15  1  0.75581000  0.48549000  0.75000000  1
  Cu  Cu16  1  0.72968000  0.24419000  0.75000000  1
  Cu  Cu17  1  0.72968000  0.48549000  0.25000000  1
  Cu  Cu18  1  0.68325000  0.04755000  0.98655000  1
  Cu  Cu19  1  0.68325000  0.04755000  0.51345000  1
  Cu  Cu20  1  0.68325000  0.63570000  0.48655000  1
  Cu  Cu21  1  0.68325000  0.63570000  0.01345000  1
  Cu  Cu22  1  0.63570000  0.68325000  0.48655000  1
  Cu  Cu23  1  0.63570000  0.68325000  0.01345000  1
  Cu  Cu24  1  0.63570000  0.95245000  0.98655000  1
  Cu  Cu25  1  0.63570000  0.95245000  0.51345000  1
  Cu  Cu26  1  0.57961000  0.57961000  0.41549000  1
  Cu  Cu27  1  0.57961000  0.57961000  0.08451000  1
  Cu  Cu28  1  0.57961000  0.00000000  0.91549000  1
  Cu  Cu29  1  0.57961000  0.00000000  0.58451000  1
  Cu  Cu30  1  0.51451000  0.24419000  0.25000000  1
  Cu  Cu31  1  0.51451000  0.27032000  0.75000000  1
  Cu  Cu32  1  0.48549000  0.72968000  0.25000000  1
  Cu  Cu33  1  0.48549000  0.75581000  0.75000000  1
  Cu  Cu34  1  0.42039000  0.42039000  0.91549000  1
  Cu  Cu35  1  0.42039000  0.42039000  0.58451000  1
  Cu  Cu36  1  0.42039000  0.00000000  0.41549000  1
  Cu  Cu37  1  0.42039000  0.00000000  0.08451000  1
  Cu  Cu38  1  0.36430000  0.04755000  0.48655000  1
  Cu  Cu39  1  0.36430000  0.04755000  0.01345000  1
  Cu  Cu40  1  0.36430000  0.31675000  0.98655000  1
  Cu  Cu41  1  0.36430000  0.31675000  0.51345000  1
  Cu  Cu42  1  0.31675000  0.36430000  0.98655000  1
  Cu  Cu43  1  0.31675000  0.36430000  0.51345000  1
  Cu  Cu44  1  0.31675000  0.95245000  0.48655000  1
  Cu  Cu45  1  0.31675000  0.95245000  0.01345000  1
  Cu  Cu46  1  0.27032000  0.51451000  0.75000000  1
  Cu  Cu47  1  0.27032000  0.75581000  0.25000000  1
  Cu  Cu48  1  0.24419000  0.51451000  0.25000000  1
  Cu  Cu49  1  0.24419000  0.72968000  0.75000000  1
  Cu  Cu50  1  0.04755000  0.36430000  0.48655000  1
  Cu  Cu51  1  0.04755000  0.36430000  0.01345000  1
  Cu  Cu52  1  0.04755000  0.68325000  0.98655000  1
  Cu  Cu53  1  0.04755000  0.68325000  0.51345000  1
  H  H54  1  0.93710000  0.34620000  0.88720000  1
  H  H55  1  0.93710000  0.34620000  0.61280000  1
  H  H56  1  0.93710000  0.59090000  0.38720000  1
  H  H57  1  0.93710000  0.59090000  0.11280000  1
  H  H58  1  0.83920000  0.38010000  0.87390000  1
  H  H59  1  0.83920000  0.38010000  0.62610000  1
  H  H60  1  0.83920000  0.45910000  0.37390000  1
  H  H61  1  0.83920000  0.45910000  0.12610000  1
  H  H62  1  0.81340000  0.31460000  0.36380000  1
  H  H63  1  0.81340000  0.31460000  0.13620000  1
  H  H64  1  0.81340000  0.49880000  0.86380000  1
  H  H65  1  0.81340000  0.49880000  0.63620000  1
  H  H66  1  0.78230000  0.25250000  0.95980000  1
  H  H67  1  0.78230000  0.25250000  0.54020000  1
  H  H68  1  0.78230000  0.52980000  0.45980000  1
  H  H69  1  0.78230000  0.52980000  0.04020000  1
  H  H70  1  0.74750000  0.21770000  0.45980000  1
  H  H71  1  0.74750000  0.21770000  0.04020000  1
  H  H72  1  0.74750000  0.52980000  0.95980000  1
  H  H73  1  0.74750000  0.52980000  0.54020000  1
  H  H74  1  0.74620000  0.34570000  0.97120000  1
  H  H75  1  0.74620000  0.34570000  0.52880000  1
  H  H76  1  0.74620000  0.40050000  0.47120000  1
  H  H77  1  0.74620000  0.40050000  0.02880000  1
  H  H78  1  0.68540000  0.18660000  0.86380000  1
  H  H79  1  0.68540000  0.18660000  0.63620000  1
  H  H80  1  0.68540000  0.49880000  0.36380000  1
  H  H81  1  0.68540000  0.49880000  0.13620000  1
  H  H82  1  0.65430000  0.25380000  0.47120000  1
  H  H83  1  0.65430000  0.25380000  0.02880000  1
  H  H84  1  0.65430000  0.40050000  0.97120000  1
  H  H85  1  0.65430000  0.40050000  0.52880000  1
  H  H86  1  0.65380000  0.06290000  0.38720000  1
  H  H87  1  0.65380000  0.06290000  0.11280000  1
  H  H88  1  0.65380000  0.59090000  0.88720000  1
  H  H89  1  0.65380000  0.59090000  0.61280000  1
  H  H90  1  0.61990000  0.16080000  0.37390000  1
  H  H91  1  0.61990000  0.16080000  0.12610000  1
  H  H92  1  0.61990000  0.45910000  0.87390000  1
  H  H93  1  0.61990000  0.45910000  0.62610000  1
  H  H94  1  0.59950000  0.25380000  0.97120000  1
  H  H95  1  0.59950000  0.25380000  0.52880000  1
  H  H96  1  0.59950000  0.34570000  0.47120000  1
  H  H97  1  0.59950000  0.34570000  0.02880000  1
  H  H98  1  0.59090000  0.65380000  0.88720000  1
  H  H99  1  0.59090000  0.65380000  0.61280000  1
  H  H100  1  0.59090000  0.93710000  0.38720000  1
  H  H101  1  0.59090000  0.93710000  0.11280000  1
  H  H102  1  0.54090000  0.16080000  0.87390000  1
  H  H103  1  0.54090000  0.16080000  0.62610000  1
  H  H104  1  0.54090000  0.38010000  0.37390000  1
  H  H105  1  0.54090000  0.38010000  0.12610000  1
  H  H106  1  0.52980000  0.74750000  0.95980000  1
  H  H107  1  0.52980000  0.74750000  0.54020000  1
  H  H108  1  0.52980000  0.78230000  0.45980000  1
  H  H109  1  0.52980000  0.78230000  0.04020000  1
  H  H110  1  0.50120000  0.18660000  0.36380000  1
  H  H111  1  0.50120000  0.18660000  0.13620000  1
  H  H112  1  0.50120000  0.31460000  0.86380000  1
  H  H113  1  0.50120000  0.31460000  0.63620000  1
  H  H114  1  0.49880000  0.68540000  0.36380000  1
  H  H115  1  0.49880000  0.68540000  0.13620000  1
  H  H116  1  0.49880000  0.81340000  0.86380000  1
  H  H117  1  0.49880000  0.81340000  0.63620000  1
  H  H118  1  0.47020000  0.21770000  0.95980000  1
  H  H119  1  0.47020000  0.21770000  0.54020000  1
  H  H120  1  0.47020000  0.25250000  0.45980000  1
  H  H121  1  0.47020000  0.25250000  0.04020000  1
  H  H122  1  0.45910000  0.61990000  0.87390000  1
  H  H123  1  0.45910000  0.61990000  0.62610000  1
  H  H124  1  0.45910000  0.83920000  0.37390000  1
  H  H125  1  0.45910000  0.83920000  0.12610000  1
  H  H126  1  0.40910000  0.06290000  0.88720000  1
  H  H127  1  0.40910000  0.06290000  0.61280000  1
  H  H128  1  0.40910000  0.34620000  0.38720000  1
  H  H129  1  0.40910000  0.34620000  0.11280000  1
  H  H130  1  0.40050000  0.65430000  0.97120000  1
  H  H131  1  0.40050000  0.65430000  0.52880000  1
  H  H132  1  0.40050000  0.74620000  0.47120000  1
  H  H133  1  0.40050000  0.74620000  0.02880000  1
  H  H134  1  0.38010000  0.54090000  0.37390000  1
  H  H135  1  0.38010000  0.54090000  0.12610000  1
  H  H136  1  0.38010000  0.83920000  0.87390000  1
  H  H137  1  0.38010000  0.83920000  0.62610000  1
  H  H138  1  0.34620000  0.40910000  0.38720000  1
  H  H139  1  0.34620000  0.40910000  0.11280000  1
  H  H140  1  0.34620000  0.93710000  0.88720000  1
  H  H141  1  0.34620000  0.93710000  0.61280000  1
  H  H142  1  0.34570000  0.59950000  0.47120000  1
  H  H143  1  0.34570000  0.59950000  0.02880000  1
  H  H144  1  0.34570000  0.74620000  0.97120000  1
  H  H145  1  0.34570000  0.74620000  0.52880000  1
  H  H146  1  0.31460000  0.50120000  0.86380000  1
  H  H147  1  0.31460000  0.50120000  0.63620000  1
  H  H148  1  0.31460000  0.81340000  0.36380000  1
  H  H149  1  0.31460000  0.81340000  0.13620000  1
  H  H150  1  0.25380000  0.59950000  0.97120000  1
  H  H151  1  0.25380000  0.59950000  0.52880000  1
  H  H152  1  0.25380000  0.65430000  0.47120000  1
  H  H153  1  0.25380000  0.65430000  0.02880000  1
  H  H154  1  0.25250000  0.47020000  0.45980000  1
  H  H155  1  0.25250000  0.47020000  0.04020000  1
  H  H156  1  0.25250000  0.78230000  0.95980000  1
  H  H157  1  0.25250000  0.78230000  0.54020000  1
  H  H158  1  0.21770000  0.47020000  0.95980000  1
  H  H159  1  0.21770000  0.47020000  0.54020000  1
  H  H160  1  0.21770000  0.74750000  0.45980000  1
  H  H161  1  0.21770000  0.74750000  0.04020000  1
  H  H162  1  0.18660000  0.50120000  0.36380000  1
  H  H163  1  0.18660000  0.50120000  0.13620000  1
  H  H164  1  0.18660000  0.68540000  0.86380000  1
  H  H165  1  0.18660000  0.68540000  0.63620000  1
  H  H166  1  0.16080000  0.54090000  0.87390000  1
  H  H167  1  0.16080000  0.54090000  0.62610000  1
  H  H168  1  0.16080000  0.61990000  0.37390000  1
  H  H169  1  0.16080000  0.61990000  0.12610000  1
  H  H170  1  0.06290000  0.40910000  0.88720000  1
  H  H171  1  0.06290000  0.40910000  0.61280000  1
  H  H172  1  0.06290000  0.65380000  0.38720000  1
  H  H173  1  0.06290000  0.65380000  0.11280000  1
  C  C174  1  0.96520000  0.38010000  0.90377000  1
  C  C175  1  0.96520000  0.38010000  0.59623000  1
  C  C176  1  0.96520000  0.58510000  0.40377000  1
  C  C177  1  0.96520000  0.58510000  0.09623000  1
  C  C178  1  0.94320000  0.40480000  0.93356000  1
  C  C179  1  0.94320000  0.40480000  0.56644000  1
  C  C180  1  0.94320000  0.53840000  0.43356000  1
  C  C181  1  0.94320000  0.53840000  0.06644000  1
  C  C182  1  0.87530000  0.38000000  0.94360000  1
  C  C183  1  0.87530000  0.38000000  0.55640000  1
  C  C184  1  0.87530000  0.49530000  0.44360000  1
  C  C185  1  0.87530000  0.49530000  0.05640000  1
  C  C186  1  0.86060000  0.31990000  0.43123000  1
  C  C187  1  0.86060000  0.31990000  0.06877000  1
  C  C188  1  0.86060000  0.54070000  0.93123000  1
  C  C189  1  0.86060000  0.54070000  0.56877000  1
  C  C190  1  0.85480000  0.40180000  0.97442000  1
  C  C191  1  0.85480000  0.40180000  0.52558000  1
  C  C192  1  0.85480000  0.45300000  0.47442000  1
  C  C193  1  0.85480000  0.45300000  0.02558000  1
  C  C194  1  0.82060000  0.32510000  0.92031000  1
  C  C195  1  0.82060000  0.32510000  0.57969000  1
  C  C196  1  0.82060000  0.49550000  0.42031000  1
  C  C197  1  0.82060000  0.49550000  0.07969000  1
  C  C198  1  0.81180000  0.33680000  0.88402000  1
  C  C199  1  0.81180000  0.33680000  0.61598000  1
  C  C200  1  0.81180000  0.47500000  0.38402000  1
  C  C201  1  0.81180000  0.47500000  0.11598000  1
  C  C202  1  0.79090000  0.27440000  0.41464000  1
  C  C203  1  0.79090000  0.27440000  0.08536000  1
  C  C204  1  0.79090000  0.51650000  0.91464000  1
  C  C205  1  0.79090000  0.51650000  0.58536000  1
  C  C206  1  0.78470000  0.37710000  0.98431000  1
  C  C207  1  0.78470000  0.37710000  0.51569000  1
  C  C208  1  0.78470000  0.40760000  0.48431000  1
  C  C209  1  0.78470000  0.40760000  0.01569000  1
  C  C210  1  0.77870000  0.28090000  0.37809000  1
  C  C211  1  0.77870000  0.28090000  0.12191000  1
  C  C212  1  0.77870000  0.49780000  0.87809000  1
  C  C213  1  0.77870000  0.49780000  0.62191000  1
  C  C214  1  0.77690000  0.26080000  0.93542000  1
  C  C215  1  0.77690000  0.26080000  0.56458000  1
  C  C216  1  0.77690000  0.51610000  0.43542000  1
  C  C217  1  0.77690000  0.51610000  0.06458000  1
  C  C218  1  0.76250000  0.28480000  0.86255000  1
  C  C219  1  0.76250000  0.28480000  0.63745000  1
  C  C220  1  0.76250000  0.47770000  0.36255000  1
  C  C221  1  0.76250000  0.47770000  0.13745000  1
  C  C222  1  0.75800000  0.29560000  0.82223000  1
  C  C223  1  0.75800000  0.29560000  0.67777000  1
  C  C224  1  0.75800000  0.46240000  0.32223000  1
  C  C225  1  0.75800000  0.46240000  0.17777000  1
  C  C226  1  0.73920000  0.22310000  0.43542000  1
  C  C227  1  0.73920000  0.22310000  0.06458000  1
  C  C228  1  0.73920000  0.51610000  0.93542000  1
  C  C229  1  0.73920000  0.51610000  0.56458000  1
  C  C230  1  0.72560000  0.20910000  0.91464000  1
  C  C231  1  0.72560000  0.20910000  0.58536000  1
  C  C232  1  0.72560000  0.51650000  0.41464000  1
  C  C233  1  0.72560000  0.51650000  0.08536000  1
  C  C234  1  0.71910000  0.22130000  0.87809000  1
  C  C235  1  0.71910000  0.22130000  0.62191000  1
  C  C236  1  0.71910000  0.49780000  0.37809000  1
  C  C237  1  0.71910000  0.49780000  0.12191000  1
  C  C238  1  0.71520000  0.23750000  0.36255000  1
  C  C239  1  0.71520000  0.23750000  0.13745000  1
  C  C240  1  0.71520000  0.47770000  0.86255000  1
  C  C241  1  0.71520000  0.47770000  0.63745000  1
  C  C242  1  0.70440000  0.24200000  0.32223000  1
  C  C243  1  0.70440000  0.24200000  0.17777000  1
  C  C244  1  0.70440000  0.46240000  0.82223000  1
  C  C245  1  0.70440000  0.46240000  0.67777000  1
  C  C246  1  0.68010000  0.13940000  0.93123000  1
  C  C247  1  0.68010000  0.13940000  0.56877000  1
  C  C248  1  0.68010000  0.54070000  0.43123000  1
  C  C249  1  0.68010000  0.54070000  0.06877000  1
  C  C250  1  0.67490000  0.17940000  0.42031000  1
  C  C251  1  0.67490000  0.17940000  0.07969000  1
  C  C252  1  0.67490000  0.49550000  0.92031000  1
  C  C253  1  0.67490000  0.49550000  0.57969000  1
  C  C254  1  0.66320000  0.18820000  0.38402000  1
  C  C255  1  0.66320000  0.18820000  0.11598000  1
  C  C256  1  0.66320000  0.47500000  0.88402000  1
  C  C257  1  0.66320000  0.47500000  0.61598000  1
  C  C258  1  0.62290000  0.21530000  0.48431000  1
  C  C259  1  0.62290000  0.21530000  0.01569000  1
  C  C260  1  0.62290000  0.40760000  0.98431000  1
  C  C261  1  0.62290000  0.40760000  0.51569000  1
  C  C262  1  0.62000000  0.12470000  0.44360000  1
  C  C263  1  0.62000000  0.12470000  0.05640000  1
  C  C264  1  0.62000000  0.49530000  0.94360000  1
  C  C265  1  0.62000000  0.49530000  0.55640000  1
  C  C266  1  0.61990000  0.03480000  0.40377000  1
  C  C267  1  0.61990000  0.03480000  0.09623000  1
  C  C268  1  0.61990000  0.58510000  0.90377000  1
  C  C269  1  0.61990000  0.58510000  0.59623000  1
  C  C270  1  0.59820000  0.14520000  0.47442000  1
  C  C271  1  0.59820000  0.14520000  0.02558000  1
  C  C272  1  0.59820000  0.45300000  0.97442000  1
  C  C273  1  0.59820000  0.45300000  0.52558000  1
  C  C274  1  0.59520000  0.05680000  0.43356000  1
  C  C275  1  0.59520000  0.05680000  0.06644000  1
  C  C276  1  0.59520000  0.53840000  0.93356000  1
  C  C277  1  0.59520000  0.53840000  0.56644000  1
  C  C278  1  0.59240000  0.21530000  0.98431000  1
  C  C279  1  0.59240000  0.21530000  0.51569000  1
  C  C280  1  0.59240000  0.37710000  0.48431000  1
  C  C281  1  0.59240000  0.37710000  0.01569000  1
  C  C282  1  0.58510000  0.61990000  0.90377000  1
  C  C283  1  0.58510000  0.61990000  0.59623000  1
  C  C284  1  0.58510000  0.96520000  0.40377000  1
  C  C285  1  0.58510000  0.96520000  0.09623000  1
  C  C286  1  0.54700000  0.14520000  0.97442000  1
  C  C287  1  0.54700000  0.14520000  0.52558000  1
  C  C288  1  0.54700000  0.40180000  0.47442000  1
  C  C289  1  0.54700000  0.40180000  0.02558000  1
  C  C290  1  0.54070000  0.68010000  0.43123000  1
  C  C291  1  0.54070000  0.68010000  0.06877000  1
  C  C292  1  0.54070000  0.86060000  0.93123000  1
  C  C293  1  0.54070000  0.86060000  0.56877000  1
  C  C294  1  0.53840000  0.59520000  0.93356000  1
  C  C295  1  0.53840000  0.59520000  0.56644000  1
  C  C296  1  0.53840000  0.94320000  0.43356000  1
  C  C297  1  0.53840000  0.94320000  0.06644000  1
  C  C298  1  0.53760000  0.24200000  0.82223000  1
  C  C299  1  0.53760000  0.24200000  0.67777000  1
  C  C300  1  0.53760000  0.29560000  0.32223000  1
  C  C301  1  0.53760000  0.29560000  0.17777000  1
  C  C302  1  0.52500000  0.18820000  0.88402000  1
  C  C303  1  0.52500000  0.18820000  0.61598000  1
  C  C304  1  0.52500000  0.33680000  0.38402000  1
  C  C305  1  0.52500000  0.33680000  0.11598000  1
  C  C306  1  0.52230000  0.23750000  0.86255000  1
  C  C307  1  0.52230000  0.23750000  0.63745000  1
  C  C308  1  0.52230000  0.28480000  0.36255000  1
  C  C309  1  0.52230000  0.28480000  0.13745000  1
  C  C310  1  0.51650000  0.72560000  0.41464000  1
  C  C311  1  0.51650000  0.72560000  0.08536000  1
  C  C312  1  0.51650000  0.79090000  0.91464000  1
  C  C313  1  0.51650000  0.79090000  0.58536000  1
  C  C314  1  0.51610000  0.73920000  0.93542000  1
  C  C315  1  0.51610000  0.73920000  0.56458000  1
  C  C316  1  0.51610000  0.77690000  0.43542000  1
  C  C317  1  0.51610000  0.77690000  0.06458000  1
  C  C318  1  0.50470000  0.12470000  0.94360000  1
  C  C319  1  0.50470000  0.12470000  0.55640000  1
  C  C320  1  0.50470000  0.38000000  0.44360000  1
  C  C321  1  0.50470000  0.38000000  0.05640000  1
  C  C322  1  0.50450000  0.17940000  0.92031000  1
  C  C323  1  0.50450000  0.17940000  0.57969000  1
  C  C324  1  0.50450000  0.32510000  0.42031000  1
  C  C325  1  0.50450000  0.32510000  0.07969000  1
  C  C326  1  0.50220000  0.22130000  0.37809000  1
  C  C327  1  0.50220000  0.22130000  0.12191000  1
  C  C328  1  0.50220000  0.28090000  0.87809000  1
  C  C329  1  0.50220000  0.28090000  0.62191000  1
  C  C330  1  0.49780000  0.71910000  0.37809000  1
  C  C331  1  0.49780000  0.71910000  0.12191000  1
  C  C332  1  0.49780000  0.77870000  0.87809000  1
  C  C333  1  0.49780000  0.77870000  0.62191000  1
  C  C334  1  0.49550000  0.67490000  0.92031000  1
  C  C335  1  0.49550000  0.67490000  0.57969000  1
  C  C336  1  0.49550000  0.82060000  0.42031000  1
  C  C337  1  0.49550000  0.82060000  0.07969000  1
  C  C338  1  0.49530000  0.62000000  0.94360000  1
  C  C339  1  0.49530000  0.62000000  0.55640000  1
  C  C340  1  0.49530000  0.87530000  0.44360000  1
  C  C341  1  0.49530000  0.87530000  0.05640000  1
  C  C342  1  0.48390000  0.22310000  0.93542000  1
  C  C343  1  0.48390000  0.22310000  0.56458000  1
  C  C344  1  0.48390000  0.26080000  0.43542000  1
  C  C345  1  0.48390000  0.26080000  0.06458000  1
  C  C346  1  0.48350000  0.20910000  0.41464000  1
  C  C347  1  0.48350000  0.20910000  0.08536000  1
  C  C348  1  0.48350000  0.27440000  0.91464000  1
  C  C349  1  0.48350000  0.27440000  0.58536000  1
  C  C350  1  0.47770000  0.71520000  0.86255000  1
  C  C351  1  0.47770000  0.71520000  0.63745000  1
  C  C352  1  0.47770000  0.76250000  0.36255000  1
  C  C353  1  0.47770000  0.76250000  0.13745000  1
  C  C354  1  0.47500000  0.66320000  0.88402000  1
  C  C355  1  0.47500000  0.66320000  0.61598000  1
  C  C356  1  0.47500000  0.81180000  0.38402000  1
  C  C357  1  0.47500000  0.81180000  0.11598000  1
  C  C358  1  0.46240000  0.70440000  0.82223000  1
  C  C359  1  0.46240000  0.70440000  0.67777000  1
  C  C360  1  0.46240000  0.75800000  0.32223000  1
  C  C361  1  0.46240000  0.75800000  0.17777000  1
  C  C362  1  0.46160000  0.05680000  0.93356000  1
  C  C363  1  0.46160000  0.05680000  0.56644000  1
  C  C364  1  0.46160000  0.40480000  0.43356000  1
  C  C365  1  0.46160000  0.40480000  0.06644000  1
  C  C366  1  0.45930000  0.13940000  0.43123000  1
  C  C367  1  0.45930000  0.13940000  0.06877000  1
  C  C368  1  0.45930000  0.31990000  0.93123000  1
  C  C369  1  0.45930000  0.31990000  0.56877000  1
  C  C370  1  0.45300000  0.59820000  0.97442000  1
  C  C371  1  0.45300000  0.59820000  0.52558000  1
  C  C372  1  0.45300000  0.85480000  0.47442000  1
  C  C373  1  0.45300000  0.85480000  0.02558000  1
  C  C374  1  0.41490000  0.03480000  0.90377000  1
  C  C375  1  0.41490000  0.03480000  0.59623000  1
  C  C376  1  0.41490000  0.38010000  0.40377000  1
  C  C377  1  0.41490000  0.38010000  0.09623000  1
  C  C378  1  0.40760000  0.62290000  0.98431000  1
  C  C379  1  0.40760000  0.62290000  0.51569000  1
  C  C380  1  0.40760000  0.78470000  0.48431000  1
  C  C381  1  0.40760000  0.78470000  0.01569000  1
  C  C382  1  0.40480000  0.46160000  0.43356000  1
  C  C383  1  0.40480000  0.46160000  0.06644000  1
  C  C384  1  0.40480000  0.94320000  0.93356000  1
  C  C385  1  0.40480000  0.94320000  0.56644000  1
  C  C386  1  0.40180000  0.54700000  0.47442000  1
  C  C387  1  0.40180000  0.54700000  0.02558000  1
  C  C388  1  0.40180000  0.85480000  0.97442000  1
  C  C389  1  0.40180000  0.85480000  0.52558000  1
  C  C390  1  0.38010000  0.41490000  0.40377000  1
  C  C391  1  0.38010000  0.41490000  0.09623000  1
  C  C392  1  0.38010000  0.96520000  0.90377000  1
  C  C393  1  0.38010000  0.96520000  0.59623000  1
  C  C394  1  0.38000000  0.50470000  0.44360000  1
  C  C395  1  0.38000000  0.50470000  0.05640000  1
  C  C396  1  0.38000000  0.87530000  0.94360000  1
  C  C397  1  0.38000000  0.87530000  0.55640000  1
  C  C398  1  0.37710000  0.59240000  0.48431000  1
  C  C399  1  0.37710000  0.59240000  0.01569000  1
  C  C400  1  0.37710000  0.78470000  0.98431000  1
  C  C401  1  0.37710000  0.78470000  0.51569000  1
  C  C402  1  0.33680000  0.52500000  0.38402000  1
  C  C403  1  0.33680000  0.52500000  0.11598000  1
  C  C404  1  0.33680000  0.81180000  0.88402000  1
  C  C405  1  0.33680000  0.81180000  0.61598000  1
  C  C406  1  0.32510000  0.50450000  0.42031000  1
  C  C407  1  0.32510000  0.50450000  0.07969000  1
  C  C408  1  0.32510000  0.82060000  0.92031000  1
  C  C409  1  0.32510000  0.82060000  0.57969000  1
  C  C410  1  0.31990000  0.45930000  0.93123000  1
  C  C411  1  0.31990000  0.45930000  0.56877000  1
  C  C412  1  0.31990000  0.86060000  0.43123000  1
  C  C413  1  0.31990000  0.86060000  0.06877000  1
  C  C414  1  0.29560000  0.53760000  0.32223000  1
  C  C415  1  0.29560000  0.53760000  0.17777000  1
  C  C416  1  0.29560000  0.75800000  0.82223000  1
  C  C417  1  0.29560000  0.75800000  0.67777000  1
  C  C418  1  0.28480000  0.52230000  0.36255000  1
  C  C419  1  0.28480000  0.52230000  0.13745000  1
  C  C420  1  0.28480000  0.76250000  0.86255000  1
  C  C421  1  0.28480000  0.76250000  0.63745000  1
  C  C422  1  0.28090000  0.50220000  0.87809000  1
  C  C423  1  0.28090000  0.50220000  0.62191000  1
  C  C424  1  0.28090000  0.77870000  0.37809000  1
  C  C425  1  0.28090000  0.77870000  0.12191000  1
  C  C426  1  0.27440000  0.48350000  0.91464000  1
  C  C427  1  0.27440000  0.48350000  0.58536000  1
  C  C428  1  0.27440000  0.79090000  0.41464000  1
  C  C429  1  0.27440000  0.79090000  0.08536000  1
  C  C430  1  0.26080000  0.48390000  0.43542000  1
  C  C431  1  0.26080000  0.48390000  0.06458000  1
  C  C432  1  0.26080000  0.77690000  0.93542000  1
  C  C433  1  0.26080000  0.77690000  0.56458000  1
  C  C434  1  0.24200000  0.53760000  0.82223000  1
  C  C435  1  0.24200000  0.53760000  0.67777000  1
  C  C436  1  0.24200000  0.70440000  0.32223000  1
  C  C437  1  0.24200000  0.70440000  0.17777000  1
  C  C438  1  0.23750000  0.52230000  0.86255000  1
  C  C439  1  0.23750000  0.52230000  0.63745000  1
  C  C440  1  0.23750000  0.71520000  0.36255000  1
  C  C441  1  0.23750000  0.71520000  0.13745000  1
  C  C442  1  0.22310000  0.48390000  0.93542000  1
  C  C443  1  0.22310000  0.48390000  0.56458000  1
  C  C444  1  0.22310000  0.73920000  0.43542000  1
  C  C445  1  0.22310000  0.73920000  0.06458000  1
  C  C446  1  0.22130000  0.50220000  0.37809000  1
  C  C447  1  0.22130000  0.50220000  0.12191000  1
  C  C448  1  0.22130000  0.71910000  0.87809000  1
  C  C449  1  0.22130000  0.71910000  0.62191000  1
  C  C450  1  0.21530000  0.59240000  0.98431000  1
  C  C451  1  0.21530000  0.59240000  0.51569000  1
  C  C452  1  0.21530000  0.62290000  0.48431000  1
  C  C453  1  0.21530000  0.62290000  0.01569000  1
  C  C454  1  0.20910000  0.48350000  0.41464000  1
  C  C455  1  0.20910000  0.48350000  0.08536000  1
  C  C456  1  0.20910000  0.72560000  0.91464000  1
  C  C457  1  0.20910000  0.72560000  0.58536000  1
  C  C458  1  0.18820000  0.52500000  0.88402000  1
  C  C459  1  0.18820000  0.52500000  0.61598000  1
  C  C460  1  0.18820000  0.66320000  0.38402000  1
  C  C461  1  0.18820000  0.66320000  0.11598000  1
  C  C462  1  0.17940000  0.50450000  0.92031000  1
  C  C463  1  0.17940000  0.50450000  0.57969000  1
  C  C464  1  0.17940000  0.67490000  0.42031000  1
  C  C465  1  0.17940000  0.67490000  0.07969000  1
  C  C466  1  0.14520000  0.54700000  0.97442000  1
  C  C467  1  0.14520000  0.54700000  0.52558000  1
  C  C468  1  0.14520000  0.59820000  0.47442000  1
  C  C469  1  0.14520000  0.59820000  0.02558000  1
  C  C470  1  0.13940000  0.45930000  0.43123000  1
  C  C471  1  0.13940000  0.45930000  0.06877000  1
  C  C472  1  0.13940000  0.68010000  0.93123000  1
  C  C473  1  0.13940000  0.68010000  0.56877000  1
  C  C474  1  0.12470000  0.50470000  0.94360000  1
  C  C475  1  0.12470000  0.50470000  0.55640000  1
  C  C476  1  0.12470000  0.62000000  0.44360000  1
  C  C477  1  0.12470000  0.62000000  0.05640000  1
  C  C478  1  0.05680000  0.46160000  0.93356000  1
  C  C479  1  0.05680000  0.46160000  0.56644000  1
  C  C480  1  0.05680000  0.59520000  0.43356000  1
  C  C481  1  0.05680000  0.59520000  0.06644000  1
  C  C482  1  0.03480000  0.41490000  0.90377000  1
  C  C483  1  0.03480000  0.41490000  0.59623000  1
  C  C484  1  0.03480000  0.61990000  0.40377000  1
  C  C485  1  0.03480000  0.61990000  0.09623000  1
  N  N486  1  1.00000000  0.45520000  0.95193000  1
  N  N487  1  1.00000000  0.45520000  0.54807000  1
  N  N488  1  1.00000000  0.54480000  0.45193000  1
  N  N489  1  1.00000000  0.54480000  0.04807000  1
  N  N490  1  0.89660000  0.44830000  0.00000000  1
  N  N491  1  0.89660000  0.44830000  0.50000000  1
  N  N492  1  0.55170000  0.10340000  0.00000000  1
  N  N493  1  0.55170000  0.10340000  0.50000000  1
  N  N494  1  0.55170000  0.44830000  0.00000000  1
  N  N495  1  0.55170000  0.44830000  0.50000000  1
  N  N496  1  0.54480000  0.54480000  0.95193000  1
  N  N497  1  0.54480000  0.54480000  0.54807000  1
  N  N498  1  0.54480000  1.00000000  0.45193000  1
  N  N499  1  0.54480000  1.00000000  0.04807000  1
  N  N500  1  0.45520000  0.45520000  0.45193000  1
  N  N501  1  0.45520000  0.45520000  0.04807000  1
  N  N502  1  0.45520000  0.00000000  0.95193000  1
  N  N503  1  0.45520000  0.00000000  0.54807000  1
  N  N504  1  0.44830000  0.55170000  1.00000000  1
  N  N505  1  0.44830000  0.55170000  0.50000000  1
  N  N506  1  0.44830000  0.89660000  0.00000000  1
  N  N507  1  0.44830000  0.89660000  0.50000000  1
  N  N508  1  0.10340000  0.55170000  1.00000000  1
  N  N509  1  0.10340000  0.55170000  0.50000000  1
  O  O510  1  1.00000000  0.41081000  0.46906000  1
  O  O511  1  1.00000000  0.41081000  0.03094000  1
  O  O512  1  1.00000000  0.58919000  0.96906000  1
  O  O513  1  1.00000000  0.58919000  0.53094000  1
  O  O514  1  0.90223000  0.36965000  0.41123000  1
  O  O515  1  0.90223000  0.36965000  0.08877000  1
  O  O516  1  0.90223000  0.53258000  0.91123000  1
  O  O517  1  0.90223000  0.53258000  0.58877000  1
  O  O518  1  0.87291000  0.30594000  0.46206000  1
  O  O519  1  0.87291000  0.30594000  0.03794000  1
  O  O520  1  0.87291000  0.56697000  0.96206000  1
  O  O521  1  0.87291000  0.56697000  0.53794000  1
  O  O522  1  0.78620000  0.35480000  0.81009000  1
  O  O523  1  0.78620000  0.35480000  0.68991000  1
  O  O524  1  0.78620000  0.43140000  0.31009000  1
  O  O525  1  0.78620000  0.43140000  0.18991000  1
  O  O526  1  0.75754000  0.27246000  0.30304000  1
  O  O527  1  0.75754000  0.27246000  0.19696000  1
  O  O528  1  0.75754000  0.48508000  0.80304000  1
  O  O529  1  0.75754000  0.48508000  0.69696000  1
  O  O530  1  0.72754000  0.24246000  0.80304000  1
  O  O531  1  0.72754000  0.24246000  0.69696000  1
  O  O532  1  0.72754000  0.48508000  0.30304000  1
  O  O533  1  0.72754000  0.48508000  0.19696000  1
  O  O534  1  0.69406000  0.12709000  0.96206000  1
  O  O535  1  0.69406000  0.12709000  0.53794000  1
  O  O536  1  0.69406000  0.56697000  0.46206000  1
  O  O537  1  0.69406000  0.56697000  0.03794000  1
  O  O538  1  0.64520000  0.21380000  0.31009000  1
  O  O539  1  0.64520000  0.21380000  0.18991000  1
  O  O540  1  0.64520000  0.43140000  0.81009000  1
  O  O541  1  0.64520000  0.43140000  0.68991000  1
  O  O542  1  0.63035000  0.09777000  0.91123000  1
  O  O543  1  0.63035000  0.09777000  0.58877000  1
  O  O544  1  0.63035000  0.53258000  0.41123000  1
  O  O545  1  0.63035000  0.53258000  0.08877000  1
  O  O546  1  0.58919000  0.58919000  0.46906000  1
  O  O547  1  0.58919000  0.58919000  0.03094000  1
  O  O548  1  0.58919000  1.00000000  0.96906000  1
  O  O549  1  0.58919000  1.00000000  0.53094000  1
  O  O550  1  0.56860000  0.21380000  0.81009000  1
  O  O551  1  0.56860000  0.21380000  0.68991000  1
  O  O552  1  0.56860000  0.35480000  0.31009000  1
  O  O553  1  0.56860000  0.35480000  0.18991000  1
  O  O554  1  0.56697000  0.69406000  0.46206000  1
  O  O555  1  0.56697000  0.69406000  0.03794000  1
  O  O556  1  0.56697000  0.87291000  0.96206000  1
  O  O557  1  0.56697000  0.87291000  0.53794000  1
  O  O558  1  0.53258000  0.63035000  0.41123000  1
  O  O559  1  0.53258000  0.63035000  0.08877000  1
  O  O560  1  0.53258000  0.90223000  0.91123000  1
  O  O561  1  0.53258000  0.90223000  0.58877000  1
  O  O562  1  0.51492000  0.24246000  0.30304000  1
  O  O563  1  0.51492000  0.24246000  0.19696000  1
  O  O564  1  0.51492000  0.27246000  0.80304000  1
  O  O565  1  0.51492000  0.27246000  0.69696000  1
  O  O566  1  0.48508000  0.72754000  0.30304000  1
  O  O567  1  0.48508000  0.72754000  0.19696000  1
  O  O568  1  0.48508000  0.75754000  0.80304000  1
  O  O569  1  0.48508000  0.75754000  0.69696000  1
  O  O570  1  0.46742000  0.09777000  0.41123000  1
  O  O571  1  0.46742000  0.09777000  0.08877000  1
  O  O572  1  0.46742000  0.36965000  0.91123000  1
  O  O573  1  0.46742000  0.36965000  0.58877000  1
  O  O574  1  0.43303000  0.12709000  0.46206000  1
  O  O575  1  0.43303000  0.12709000  0.03794000  1
  O  O576  1  0.43303000  0.30594000  0.96206000  1
  O  O577  1  0.43303000  0.30594000  0.53794000  1
  O  O578  1  0.43140000  0.64520000  0.81009000  1
  O  O579  1  0.43140000  0.64520000  0.68991000  1
  O  O580  1  0.43140000  0.78620000  0.31009000  1
  O  O581  1  0.43140000  0.78620000  0.18991000  1
  O  O582  1  0.41081000  0.41081000  0.96906000  1
  O  O583  1  0.41081000  0.41081000  0.53094000  1
  O  O584  1  0.41081000  0.00000000  0.46906000  1
  O  O585  1  0.41081000  0.00000000  0.03094000  1
  O  O586  1  0.36965000  0.46742000  0.91123000  1
  O  O587  1  0.36965000  0.46742000  0.58877000  1
  O  O588  1  0.36965000  0.90223000  0.41123000  1
  O  O589  1  0.36965000  0.90223000  0.08877000  1
  O  O590  1  0.35480000  0.56860000  0.31009000  1
  O  O591  1  0.35480000  0.56860000  0.18991000  1
  O  O592  1  0.35480000  0.78620000  0.81009000  1
  O  O593  1  0.35480000  0.78620000  0.68991000  1
  O  O594  1  0.30594000  0.43303000  0.96206000  1
  O  O595  1  0.30594000  0.43303000  0.53794000  1
  O  O596  1  0.30594000  0.87291000  0.46206000  1
  O  O597  1  0.30594000  0.87291000  0.03794000  1
  O  O598  1  0.27246000  0.51492000  0.80304000  1
  O  O599  1  0.27246000  0.51492000  0.69696000  1
  O  O600  1  0.27246000  0.75754000  0.30304000  1
  O  O601  1  0.27246000  0.75754000  0.19696000  1
  O  O602  1  0.24246000  0.51492000  0.30304000  1
  O  O603  1  0.24246000  0.51492000  0.19696000  1
  O  O604  1  0.24246000  0.72754000  0.80304000  1
  O  O605  1  0.24246000  0.72754000  0.69696000  1
  O  O606  1  0.21380000  0.56860000  0.81009000  1
  O  O607  1  0.21380000  0.56860000  0.68991000  1
  O  O608  1  0.21380000  0.64520000  0.31009000  1
  O  O609  1  0.21380000  0.64520000  0.18991000  1
  O  O610  1  0.12709000  0.43303000  0.46206000  1
  O  O611  1  0.12709000  0.43303000  0.03794000  1
  O  O612  1  0.12709000  0.69406000  0.96206000  1
  O  O613  1  0.12709000  0.69406000  0.53794000  1
  O  O614  1  0.09777000  0.46742000  0.41123000  1
  O  O615  1  0.09777000  0.46742000  0.08877000  1
  O  O616  1  0.09777000  0.63035000  0.91123000  1
  O  O617  1  0.09777000  0.63035000  0.58877000  1
