# generated using pymatgen
data_CdH17C20N3O4
_symmetry_space_group_name_H-M   'P 1'
_cell_length_a   10.42970000
_cell_length_b   11.21900000
_cell_length_c   11.21900000
_cell_angle_alpha   98.50860000
_cell_angle_beta   109.59200000
_cell_angle_gamma   109.59200000
_symmetry_Int_Tables_number   1
_chemical_formula_structural   CdH17C20N3O4
_chemical_formula_sum   'Cd2 H34 C40 N6 O8'
_cell_volume   1113.86698805
_cell_formula_units_Z   2
loop_
 _symmetry_equiv_pos_site_id
 _symmetry_equiv_pos_as_xyz
  1  'x, y, z'
loop_
 _atom_site_type_symbol
 _atom_site_label
 _atom_site_symmetry_multiplicity
 _atom_site_fract_x
 _atom_site_fract_y
 _atom_site_fract_z
 _atom_site_occupancy
  Cd  Cd0  1  0.25094000  0.97483000  0.06675000  1
  Cd  Cd1  1  0.75094000  0.06675000  0.97483000  1
  H  H2  1  0.00300000  0.12650000  0.63790000  1
  H  H3  1  0.09080000  0.51170000  0.67950000  1
  H  H4  1  0.11160000  0.54260000  0.47840000  1
  H  H5  1  0.12930000  0.20970000  0.04010000  1
  H  H6  1  0.14800000  0.87410000  0.74090000  1
  H  H7  1  0.17800000  0.40610000  0.98430000  1
  H  H8  1  0.18180000  0.42140000  0.68560000  1
  H  H9  1  0.20960000  0.45760000  0.49120000  1
  H  H10  1  0.23450000  0.82290000  0.28050000  1
  H  H11  1  0.24790000  0.77680000  0.56760000  1
  H  H12  1  0.29920000  0.66880000  0.37060000  1
  H  H13  1  0.35980000  0.47440000  0.90080000  1
  H  H14  1  0.38830000  0.48800000  0.35200000  1
  H  H15  1  0.41890000  0.78350000  0.03250000  1
  H  H16  1  0.44920000  0.55010000  0.72470000  1
  H  H17  1  0.45640000  0.96160000  0.71660000  1
  H  H18  1  0.48040000  0.48470000  0.26310000  1
  H  H19  1  0.50300000  0.63790000  0.12650000  1
  H  H20  1  0.59080000  0.67950000  0.51170000  1
  H  H21  1  0.61160000  0.47840000  0.54260000  1
  H  H22  1  0.62930000  0.04010000  0.20970000  1
  H  H23  1  0.64800000  0.74090000  0.87410000  1
  H  H24  1  0.67800000  0.98430000  0.40610000  1
  H  H25  1  0.68180000  0.68560000  0.42140000  1
  H  H26  1  0.70960000  0.49120000  0.45760000  1
  H  H27  1  0.73450000  0.28050000  0.82290000  1
  H  H28  1  0.74790000  0.56760000  0.77680000  1
  H  H29  1  0.79920000  0.37060000  0.66880000  1
  H  H30  1  0.85980000  0.90080000  0.47440000  1
  H  H31  1  0.88830000  0.35200000  0.48800000  1
  H  H32  1  0.91890000  0.03250000  0.78350000  1
  H  H33  1  0.94920000  0.72470000  0.55010000  1
  H  H34  1  0.95640000  0.71660000  0.96160000  1
  H  H35  1  0.98040000  0.26310000  0.48470000  1
  C  C36  1  0.03420000  0.85507000  0.36813000  1
  C  C37  1  0.06530000  0.81145000  0.74815000  1
  C  C38  1  0.11030000  0.44805000  0.62475000  1
  C  C39  1  0.18310000  0.51816000  0.54204000  1
  C  C40  1  0.20500000  0.23885000  0.00865000  1
  C  C41  1  0.23210000  0.35484000  0.97456000  1
  C  C42  1  0.28810000  0.78340000  0.24740000  1
  C  C43  1  0.32170000  0.64076000  0.63084000  1
  C  C44  1  0.32800000  0.69239000  0.30261000  1
  C  C45  1  0.32850000  0.76659000  0.63001000  1
  C  C46  1  0.34000000  0.39499000  0.92573000  1
  C  C47  1  0.38910000  0.20577000  0.95439000  1
  C  C48  1  0.39720000  0.76201000  0.10439000  1
  C  C49  1  0.40910000  0.63539000  0.26029000  1
  C  C50  1  0.41990000  0.31942000  0.91286000  1
  C  C51  1  0.44560000  0.67294000  0.15846000  1
  C  C52  1  0.44650000  0.63368000  0.72312000  1
  C  C53  1  0.45300000  0.87654000  0.72026000  1
  C  C54  1  0.46410000  0.54373000  0.32587000  1
  C  C55  1  0.47980000  0.12346000  0.96140000  1
  C  C56  1  0.53420000  0.36813000  0.85507000  1
  C  C57  1  0.56530000  0.74815000  0.81145000  1
  C  C58  1  0.61030000  0.62475000  0.44805000  1
  C  C59  1  0.68310000  0.54204000  0.51816000  1
  C  C60  1  0.70500000  0.00865000  0.23885000  1
  C  C61  1  0.73210000  0.97456000  0.35484000  1
  C  C62  1  0.78810000  0.24740000  0.78340000  1
  C  C63  1  0.82170000  0.63084000  0.64076000  1
  C  C64  1  0.82800000  0.30261000  0.69239000  1
  C  C65  1  0.82850000  0.63001000  0.76659000  1
  C  C66  1  0.84000000  0.92573000  0.39499000  1
  C  C67  1  0.88910000  0.95439000  0.20577000  1
  C  C68  1  0.89720000  0.10439000  0.76201000  1
  C  C69  1  0.90910000  0.26029000  0.63539000  1
  C  C70  1  0.91990000  0.91286000  0.31942000  1
  C  C71  1  0.94560000  0.15846000  0.67294000  1
  C  C72  1  0.94650000  0.72312000  0.63368000  1
  C  C73  1  0.95300000  0.72026000  0.87654000  1
  C  C74  1  0.96410000  0.32587000  0.54373000  1
  C  C75  1  0.97980000  0.96140000  0.12346000  1
  N  N76  1  0.06960000  0.81307000  0.86933000  1
  N  N77  1  0.28120000  0.16534000  0.99922000  1
  N  N78  1  0.32190000  0.81866000  0.14870000  1
  N  N79  1  0.56960000  0.86933000  0.81307000  1
  N  N80  1  0.78120000  0.99922000  0.16534000  1
  N  N81  1  0.82190000  0.14870000  0.81866000  1
  O  O82  1  0.09487000  0.93990000  0.17070000  1
  O  O83  1  0.15521000  0.93152000  0.46324000  1
  O  O84  1  0.43883000  0.01820000  0.99068000  1
  O  O85  1  0.49390000  0.31668000  0.73484000  1
  O  O86  1  0.59487000  0.17070000  0.93990000  1
  O  O87  1  0.65521000  0.46324000  0.93152000  1
  O  O88  1  0.93883000  0.99068000  0.01820000  1
  O  O89  1  0.99390000  0.73484000  0.31668000  1
