# generated using pymatgen
data_CuH24(C4N3)4
_symmetry_space_group_name_H-M   'P 1'
_cell_length_a   11.20150000
_cell_length_b   14.96930000
_cell_length_c   21.45850000
_cell_angle_alpha   90.00000000
_cell_angle_beta   92.09800000
_cell_angle_gamma   90.00000000
_symmetry_Int_Tables_number   1
_chemical_formula_structural   CuH24(C4N3)4
_chemical_formula_sum   'Cu4 H96 C64 N48'
_cell_volume   3595.71961012
_cell_formula_units_Z   4
loop_
 _symmetry_equiv_pos_site_id
 _symmetry_equiv_pos_as_xyz
  1  'x, y, z'
loop_
 _atom_site_type_symbol
 _atom_site_label
 _atom_site_symmetry_multiplicity
 _atom_site_fract_x
 _atom_site_fract_y
 _atom_site_fract_z
 _atom_site_occupancy
  Cu  Cu0  1  0.09755000  0.26222000  0.80033000  1
  Cu  Cu1  1  0.40245000  0.76222000  0.69967000  1
  Cu  Cu2  1  0.59755000  0.23778000  0.30033000  1
  Cu  Cu3  1  0.90245000  0.73778000  0.19967000  1
  H  H4  1  0.00890000  0.01010000  0.39820000  1
  H  H5  1  0.00900000  0.17640000  0.66600000  1
  H  H6  1  0.01680000  0.64420000  0.95580000  1
  H  H7  1  0.01750000  0.10760000  0.42490000  1
  H  H8  1  0.02840000  0.22800000  0.13510000  1
  H  H9  1  0.04950000  0.06860000  0.13270000  1
  H  H10  1  0.04960000  0.49460000  0.94180000  1
  H  H11  1  0.05570000  0.93680000  0.82130000  1
  H  H12  1  0.05610000  0.11700000  0.25930000  1
  H  H13  1  0.07690000  0.82290000  0.89940000  1
  H  H14  1  0.08110000  0.88470000  0.16530000  1
  H  H15  1  0.08150000  0.28410000  0.94840000  1
  H  H16  1  0.08600000  0.93090000  0.48940000  1
  H  H17  1  0.12040000  0.02430000  0.51820000  1
  H  H18  1  0.12290000  0.48810000  0.00480000  1
  H  H19  1  0.12820000  0.46900000  0.81740000  1
  H  H20  1  0.14680000  0.16350000  0.21590000  1
  H  H21  1  0.15340000  0.79020000  0.61610000  1
  H  H22  1  0.15450000  0.62630000  0.96440000  1
  H  H23  1  0.17820000  0.67460000  0.17780000  1
  H  H24  1  0.22060000  0.02110000  0.18970000  1
  H  H25  1  0.22420000  0.86670000  0.78210000  1
  H  H26  1  0.24430000  0.04570000  0.26000000  1
  H  H27  1  0.24610000  0.11040000  0.72780000  1
  H  H28  1  0.25390000  0.61040000  0.77220000  1
  H  H29  1  0.25570000  0.54570000  0.24000000  1
  H  H30  1  0.27580000  0.36670000  0.71790000  1
  H  H31  1  0.27940000  0.52110000  0.31030000  1
  H  H32  1  0.32180000  0.17460000  0.32220000  1
  H  H33  1  0.34550000  0.12630000  0.53560000  1
  H  H34  1  0.34660000  0.29020000  0.88390000  1
  H  H35  1  0.35320000  0.66350000  0.28410000  1
  H  H36  1  0.37180000  0.96900000  0.68260000  1
  H  H37  1  0.37710000  0.98810000  0.49520000  1
  H  H38  1  0.37960000  0.52430000  0.98180000  1
  H  H39  1  0.41400000  0.43090000  0.01060000  1
  H  H40  1  0.41850000  0.78410000  0.55160000  1
  H  H41  1  0.41890000  0.38470000  0.33470000  1
  H  H42  1  0.42310000  0.32290000  0.60060000  1
  H  H43  1  0.44390000  0.61700000  0.24070000  1
  H  H44  1  0.44430000  0.43680000  0.67870000  1
  H  H45  1  0.45040000  0.99460000  0.55820000  1
  H  H46  1  0.45050000  0.56860000  0.36730000  1
  H  H47  1  0.47160000  0.72800000  0.36490000  1
  H  H48  1  0.48250000  0.60760000  0.07510000  1
  H  H49  1  0.48320000  0.14420000  0.54420000  1
  H  H50  1  0.49100000  0.67640000  0.83400000  1
  H  H51  1  0.49110000  0.51010000  0.10180000  1
  H  H52  1  0.50890000  0.48990000  0.89820000  1
  H  H53  1  0.50900000  0.32360000  0.16600000  1
  H  H54  1  0.51680000  0.85580000  0.45580000  1
  H  H55  1  0.51750000  0.39240000  0.92490000  1
  H  H56  1  0.52840000  0.27200000  0.63510000  1
  H  H57  1  0.54950000  0.43140000  0.63270000  1
  H  H58  1  0.54960000  0.00540000  0.44180000  1
  H  H59  1  0.55570000  0.56320000  0.32130000  1
  H  H60  1  0.55610000  0.38300000  0.75930000  1
  H  H61  1  0.57690000  0.67710000  0.39940000  1
  H  H62  1  0.58110000  0.61530000  0.66530000  1
  H  H63  1  0.58150000  0.21590000  0.44840000  1
  H  H64  1  0.58600000  0.56910000  0.98940000  1
  H  H65  1  0.62040000  0.47570000  0.01820000  1
  H  H66  1  0.62290000  0.01190000  0.50480000  1
  H  H67  1  0.62820000  0.03100000  0.31740000  1
  H  H68  1  0.64680000  0.33650000  0.71590000  1
  H  H69  1  0.65340000  0.70980000  0.11610000  1
  H  H70  1  0.65450000  0.87370000  0.46440000  1
  H  H71  1  0.67820000  0.82540000  0.67780000  1
  H  H72  1  0.72060000  0.47890000  0.68970000  1
  H  H73  1  0.72420000  0.63330000  0.28210000  1
  H  H74  1  0.74430000  0.45430000  0.76000000  1
  H  H75  1  0.74610000  0.38960000  0.22780000  1
  H  H76  1  0.75390000  0.88960000  0.27220000  1
  H  H77  1  0.75570000  0.95430000  0.74000000  1
  H  H78  1  0.77580000  0.13330000  0.21790000  1
  H  H79  1  0.77940000  0.97890000  0.81030000  1
  H  H80  1  0.82180000  0.32540000  0.82220000  1
  H  H81  1  0.84550000  0.37370000  0.03560000  1
  H  H82  1  0.84660000  0.20980000  0.38390000  1
  H  H83  1  0.85320000  0.83650000  0.78410000  1
  H  H84  1  0.87180000  0.53100000  0.18260000  1
  H  H85  1  0.87710000  0.51190000  0.99520000  1
  H  H86  1  0.87960000  0.97570000  0.48180000  1
  H  H87  1  0.91400000  0.06910000  0.51060000  1
  H  H88  1  0.91850000  0.71590000  0.05160000  1
  H  H89  1  0.91890000  0.11530000  0.83470000  1
  H  H90  1  0.92310000  0.17710000  0.10060000  1
  H  H91  1  0.94390000  0.88300000  0.74070000  1
  H  H92  1  0.94430000  0.06320000  0.17870000  1
  H  H93  1  0.95040000  0.50540000  0.05820000  1
  H  H94  1  0.95050000  0.93140000  0.86730000  1
  H  H95  1  0.97160000  0.77200000  0.86490000  1
  H  H96  1  0.98250000  0.89240000  0.57510000  1
  H  H97  1  0.98320000  0.35580000  0.04420000  1
  H  H98  1  0.99100000  0.82360000  0.33400000  1
  H  H99  1  0.99110000  0.98990000  0.60180000  1
  C  C100  1  0.01060000  0.09980000  0.16600000  1
  C  C101  1  0.01080000  0.30150000  0.92780000  1
  C  C102  1  0.02500000  0.85300000  0.30080000  1
  C  C103  1  0.03350000  0.94470000  0.57890000  1
  C  C104  1  0.03800000  0.81270000  0.85900000  1
  C  C105  1  0.05400000  0.51620000  0.98440000  1
  C  C106  1  0.05800000  0.97930000  0.51520000  1
  C  C107  1  0.07310000  0.88540000  0.20830000  1
  C  C108  1  0.07800000  0.61550000  0.98230000  1
  C  C109  1  0.10000000  0.10990000  0.22150000  1
  C  C110  1  0.13230000  0.67520000  0.14080000  1
  C  C111  1  0.18240000  0.03160000  0.22890000  1
  C  C112  1  0.18920000  0.84430000  0.62700000  1
  C  C113  1  0.19390000  0.44210000  0.83750000  1
  C  C114  1  0.20970000  0.80590000  0.78620000  1
  C  C115  1  0.22500000  0.66700000  0.78140000  1
  C  C116  1  0.27500000  0.16700000  0.71860000  1
  C  C117  1  0.29030000  0.30590000  0.71380000  1
  C  C118  1  0.30610000  0.94210000  0.66250000  1
  C  C119  1  0.31080000  0.34430000  0.87300000  1
  C  C120  1  0.31760000  0.53160000  0.27110000  1
  C  C121  1  0.36770000  0.17520000  0.35920000  1
  C  C122  1  0.40000000  0.60990000  0.27850000  1
  C  C123  1  0.42200000  0.11550000  0.51770000  1
  C  C124  1  0.42690000  0.38540000  0.29170000  1
  C  C125  1  0.44200000  0.47930000  0.98480000  1
  C  C126  1  0.44600000  0.01620000  0.51560000  1
  C  C127  1  0.46200000  0.31270000  0.64100000  1
  C  C128  1  0.46650000  0.44470000  0.92110000  1
  C  C129  1  0.47500000  0.35300000  0.19920000  1
  C  C130  1  0.48920000  0.80150000  0.57220000  1
  C  C131  1  0.48940000  0.59980000  0.33400000  1
  C  C132  1  0.51060000  0.40020000  0.66600000  1
  C  C133  1  0.51080000  0.19850000  0.42780000  1
  C  C134  1  0.52500000  0.64700000  0.80080000  1
  C  C135  1  0.53350000  0.55530000  0.07890000  1
  C  C136  1  0.53800000  0.68730000  0.35900000  1
  C  C137  1  0.55400000  0.98380000  0.48440000  1
  C  C138  1  0.55800000  0.52070000  0.01520000  1
  C  C139  1  0.57310000  0.61460000  0.70830000  1
  C  C140  1  0.57800000  0.88450000  0.48230000  1
  C  C141  1  0.60000000  0.39010000  0.72150000  1
  C  C142  1  0.63230000  0.82480000  0.64080000  1
  C  C143  1  0.68240000  0.46840000  0.72890000  1
  C  C144  1  0.68920000  0.65570000  0.12700000  1
  C  C145  1  0.69390000  0.05790000  0.33750000  1
  C  C146  1  0.70970000  0.69410000  0.28620000  1
  C  C147  1  0.72500000  0.83300000  0.28140000  1
  C  C148  1  0.77500000  0.33300000  0.21860000  1
  C  C149  1  0.79030000  0.19410000  0.21380000  1
  C  C150  1  0.80610000  0.55790000  0.16250000  1
  C  C151  1  0.81080000  0.15570000  0.37300000  1
  C  C152  1  0.81760000  0.96840000  0.77110000  1
  C  C153  1  0.86770000  0.32480000  0.85920000  1
  C  C154  1  0.90000000  0.89010000  0.77850000  1
  C  C155  1  0.92200000  0.38450000  0.01770000  1
  C  C156  1  0.92690000  0.11460000  0.79170000  1
  C  C157  1  0.94200000  0.02070000  0.48480000  1
  C  C158  1  0.94600000  0.48380000  0.01560000  1
  C  C159  1  0.96200000  0.18730000  0.14100000  1
  C  C160  1  0.96650000  0.05530000  0.42110000  1
  C  C161  1  0.97500000  0.14700000  0.69920000  1
  C  C162  1  0.98920000  0.69850000  0.07220000  1
  C  C163  1  0.98940000  0.90020000  0.83400000  1
  N  N164  1  0.01460000  0.82600000  0.24020000  1
  N  N165  1  0.01910000  0.71380000  0.13350000  1
  N  N166  1  0.07660000  0.65560000  0.04730000  1
  N  N167  1  0.09300000  0.92830000  0.30590000  1
  N  N168  1  0.12000000  0.94780000  0.24780000  1
  N  N169  1  0.12090000  0.77170000  0.81870000  1
  N  N170  1  0.13130000  0.67990000  0.81640000  1
  N  N171  1  0.14350000  0.92100000  0.61370000  1
  N  N172  1  0.16400000  0.64030000  0.08870000  1
  N  N173  1  0.20830000  0.35110000  0.84250000  1
  N  N174  1  0.21730000  0.98710000  0.63600000  1
  N  N175  1  0.22480000  0.24210000  0.73960000  1
  N  N176  1  0.27520000  0.74210000  0.76040000  1
  N  N177  1  0.28270000  0.48710000  0.86400000  1
  N  N178  1  0.29170000  0.85110000  0.65750000  1
  N  N179  1  0.33600000  0.14030000  0.41130000  1
  N  N180  1  0.35650000  0.42100000  0.88630000  1
  N  N181  1  0.36870000  0.17990000  0.68360000  1
  N  N182  1  0.37910000  0.27170000  0.68130000  1
  N  N183  1  0.38000000  0.44780000  0.25220000  1
  N  N184  1  0.40700000  0.42830000  0.19410000  1
  N  N185  1  0.42340000  0.15560000  0.45270000  1
  N  N186  1  0.48090000  0.21380000  0.36650000  1
  N  N187  1  0.48540000  0.32600000  0.25980000  1
  N  N188  1  0.51460000  0.67400000  0.74020000  1
  N  N189  1  0.51910000  0.78620000  0.63350000  1
  N  N190  1  0.57660000  0.84440000  0.54730000  1
  N  N191  1  0.59300000  0.57170000  0.80590000  1
  N  N192  1  0.62000000  0.55220000  0.74780000  1
  N  N193  1  0.62090000  0.72830000  0.31870000  1
  N  N194  1  0.63130000  0.82010000  0.31640000  1
  N  N195  1  0.64350000  0.57900000  0.11370000  1
  N  N196  1  0.66400000  0.85970000  0.58870000  1
  N  N197  1  0.70830000  0.14890000  0.34250000  1
  N  N198  1  0.71730000  0.51290000  0.13600000  1
  N  N199  1  0.72480000  0.25790000  0.23960000  1
  N  N200  1  0.77520000  0.75790000  0.26040000  1
  N  N201  1  0.78270000  0.01290000  0.36400000  1
  N  N202  1  0.79170000  0.64890000  0.15750000  1
  N  N203  1  0.83600000  0.35970000  0.91130000  1
  N  N204  1  0.85650000  0.07900000  0.38630000  1
  N  N205  1  0.86870000  0.32010000  0.18360000  1
  N  N206  1  0.87910000  0.22830000  0.18130000  1
  N  N207  1  0.88000000  0.05220000  0.75220000  1
  N  N208  1  0.90700000  0.07170000  0.69410000  1
  N  N209  1  0.92340000  0.34440000  0.95270000  1
  N  N210  1  0.98090000  0.28620000  0.86650000  1
  N  N211  1  0.98540000  0.17400000  0.75980000  1
