# generated using pymatgen
data_PrC15NO6
_symmetry_space_group_name_H-M   'P 1'
_cell_length_a   9.63000000
_cell_length_b   10.09160000
_cell_length_c   11.73350000
_cell_angle_alpha   87.95800000
_cell_angle_beta   67.63800000
_cell_angle_gamma   68.18100000
_symmetry_Int_Tables_number   1
_chemical_formula_structural   PrC15NO6
_chemical_formula_sum   'Pr2 C30 N2 O12'
_cell_volume   971.53268596
_cell_formula_units_Z   2
loop_
 _symmetry_equiv_pos_site_id
 _symmetry_equiv_pos_as_xyz
  1  'x, y, z'
loop_
 _atom_site_type_symbol
 _atom_site_label
 _atom_site_symmetry_multiplicity
 _atom_site_fract_x
 _atom_site_fract_y
 _atom_site_fract_z
 _atom_site_occupancy
  Pr  Pr0  1  0.29076000  0.96267000  0.02245000  1
  Pr  Pr1  1  0.70924000  0.03733000  0.97755000  1
  C  C2  1  0.00710000  0.38970000  0.74770000  1
  C  C3  1  0.01150000  0.31210000  0.55460000  1
  C  C4  1  0.06060000  0.57610000  0.84200000  1
  C  C5  1  0.08640000  0.26040000  0.42870000  1
  C  C6  1  0.09440000  0.76940000  0.94310000  1
  C  C7  1  0.10250000  0.43130000  0.80850000  1
  C  C8  1  0.14320000  0.61330000  0.90280000  1
  C  C9  1  0.22390000  0.32550000  0.83380000  1
  C  C10  1  0.24670000  0.24720000  0.36240000  1
  C  C11  1  0.24750000  0.33810000  0.54710000  1
  C  C12  1  0.26530000  0.50730000  0.92870000  1
  C  C13  1  0.30700000  0.36330000  0.89240000  1
  C  C14  1  0.32460000  0.28900000  0.42050000  1
  C  C15  1  0.33640000  0.18080000  0.22580000  1
  C  C16  1  0.43910000  0.24740000  0.91820000  1
  C  C17  1  0.56090000  0.75260000  0.08180000  1
  C  C18  1  0.66360000  0.81920000  0.77420000  1
  C  C19  1  0.67540000  0.71100000  0.57950000  1
  C  C20  1  0.69300000  0.63670000  0.10760000  1
  C  C21  1  0.73470000  0.49270000  0.07130000  1
  C  C22  1  0.75250000  0.66190000  0.45290000  1
  C  C23  1  0.75330000  0.75280000  0.63760000  1
  C  C24  1  0.77610000  0.67450000  0.16620000  1
  C  C25  1  0.85680000  0.38670000  0.09720000  1
  C  C26  1  0.89750000  0.56870000  0.19150000  1
  C  C27  1  0.90560000  0.23060000  0.05690000  1
  C  C28  1  0.91360000  0.73960000  0.57130000  1
  C  C29  1  0.93940000  0.42390000  0.15800000  1
  C  C30  1  0.98850000  0.68790000  0.44540000  1
  C  C31  1  0.99290000  0.61030000  0.25230000  1
  N  N32  1  0.09480000  0.34740000  0.61070000  1
  N  N33  1  0.90520000  0.65260000  0.38930000  1
  O  O34  1  0.01650000  0.13880000  0.08180000  1
  O  O35  1  0.16930000  0.79880000  0.00000000  1
  O  O36  1  0.25350000  0.14230000  0.18360000  1
  O  O37  1  0.44220000  0.12180000  0.92500000  1
  O  O38  1  0.45070000  0.72020000  0.06880000  1
  O  O39  1  0.47650000  0.17290000  0.17300000  1
  O  O40  1  0.52350000  0.82710000  0.82700000  1
  O  O41  1  0.54930000  0.27980000  0.93120000  1
  O  O42  1  0.55780000  0.87820000  0.07500000  1
  O  O43  1  0.74650000  0.85770000  0.81640000  1
  O  O44  1  0.83070000  0.20120000  0.00000000  1
  O  O45  1  0.98350000  0.86120000  0.91820000  1
