# generated using pymatgen
data_Zn4H96C150O19
_symmetry_space_group_name_H-M   'P 1'
_cell_length_a   18.97800000
_cell_length_b   23.17000000
_cell_length_c   23.47700000
_cell_angle_alpha   87.73000000
_cell_angle_beta   68.37800000
_cell_angle_gamma   68.29900000
_symmetry_Int_Tables_number   1
_chemical_formula_structural   Zn4H96C150O19
_chemical_formula_sum   'Zn8 H192 C300 O38'
_cell_volume   8860.75403150
_cell_formula_units_Z   2
loop_
 _symmetry_equiv_pos_site_id
 _symmetry_equiv_pos_as_xyz
  1  'x, y, z'
loop_
 _atom_site_type_symbol
 _atom_site_label
 _atom_site_symmetry_multiplicity
 _atom_site_fract_x
 _atom_site_fract_y
 _atom_site_fract_z
 _atom_site_occupancy
  Zn  Zn0  1  0.34955000  0.32581000  0.31297000  1
  Zn  Zn1  1  0.45708000  0.37892000  0.35788000  1
  Zn  Zn2  1  0.46223000  0.71716000  0.76115000  1
  Zn  Zn3  1  0.46880000  0.22365000  0.35395000  1
  Zn  Zn4  1  0.53120000  0.77635000  0.64605000  1
  Zn  Zn5  1  0.53777000  0.28284000  0.23885000  1
  Zn  Zn6  1  0.54292000  0.62108000  0.64212000  1
  Zn  Zn7  1  0.65045000  0.67419000  0.68703000  1
  H  H8  1  0.00620000  0.64110000  0.22740000  1
  H  H9  1  0.01200000  0.34300000  0.02660000  1
  H  H10  1  0.01450000  0.02790000  0.67910000  1
  H  H11  1  0.02330000  0.14370000  0.52360000  1
  H  H12  1  0.03750000  0.86340000  0.57060000  1
  H  H13  1  0.04100000  0.16000000  0.01390000  1
  H  H14  1  0.04540000  0.87030000  0.03330000  1
  H  H15  1  0.04690000  0.56320000  0.86150000  1
  H  H16  1  0.05270000  0.23230000  0.48600000  1
  H  H17  1  0.05340000  0.87000000  0.67370000  1
  H  H18  1  0.05590000  0.72970000  0.29840000  1
  H  H19  1  0.05980000  0.32600000  0.13080000  1
  H  H20  1  0.07610000  0.24070000  0.04250000  1
  H  H21  1  0.08280000  0.95580000  0.36500000  1
  H  H22  1  0.08380000  0.28460000  0.63400000  1
  H  H23  1  0.08480000  0.06750000  0.91360000  1
  H  H24  1  0.08560000  0.63020000  0.01720000  1
  H  H25  1  0.08970000  0.07050000  0.72850000  1
  H  H26  1  0.09650000  0.09110000  0.53800000  1
  H  H27  1  0.09890000  0.39480000  0.71870000  1
  H  H28  1  0.09920000  0.59580000  0.13060000  1
  H  H29  1  0.10300000  0.48350000  0.76620000  1
  H  H30  1  0.10440000  0.22580000  0.86720000  1
  H  H31  1  0.11700000  0.95120000  0.87570000  1
  H  H32  1  0.11820000  0.10680000  0.85950000  1
  H  H33  1  0.11930000  0.89950000  0.72940000  1
  H  H34  1  0.13280000  0.76920000  0.34820000  1
  H  H35  1  0.13840000  0.28060000  0.43130000  1
  H  H36  1  0.14060000  0.59170000  0.23980000  1
  H  H37  1  0.14720000  0.76350000  0.49420000  1
  H  H38  1  0.15440000  0.51040000  0.03780000  1
  H  H39  1  0.15660000  0.85350000  0.37790000  1
  H  H40  1  0.15850000  0.23360000  0.76400000  1
  H  H41  1  0.16840000  0.84110000  0.19810000  1
  H  H42  1  0.17330000  0.66620000  0.06200000  1
  H  H43  1  0.18420000  0.47490000  0.86610000  1
  H  H44  1  0.18430000  0.87250000  0.95700000  1
  H  H45  1  0.18720000  0.17360000  0.92040000  1
  H  H46  1  0.19170000  0.50360000  0.28830000  1
  H  H47  1  0.19630000  0.25790000  0.09140000  1
  H  H48  1  0.19820000  0.97380000  0.48400000  1
  H  H49  1  0.20160000  0.95680000  0.68500000  1
  H  H50  1  0.21140000  0.70500000  0.19980000  1
  H  H51  1  0.22070000  0.84350000  0.09230000  1
  H  H52  1  0.22080000  0.98140000  0.58630000  1
  H  H53  1  0.22160000  0.46170000  0.91880000  1
  H  H54  1  0.22240000  0.24160000  0.59100000  1
  H  H55  1  0.22470000  0.86070000  0.82410000  1
  H  H56  1  0.22650000  0.07920000  0.65840000  1
  H  H57  1  0.24070000  0.07450000  0.46610000  1
  H  H58  1  0.24910000  0.66260000  0.13520000  1
  H  H59  1  0.25070000  0.05140000  0.78220000  1
  H  H60  1  0.25310000  0.56660000  0.93850000  1
  H  H61  1  0.25440000  0.79920000  0.25130000  1
  H  H62  1  0.26740000  0.39980000  0.02800000  1
  H  H63  1  0.27250000  0.71820000  0.41230000  1
  H  H64  1  0.27620000  0.49140000  0.77850000  1
  H  H65  1  0.29160000  0.14390000  0.60290000  1
  H  H66  1  0.30030000  0.29360000  0.04410000  1
  H  H67  1  0.30090000  0.19200000  0.70970000  1
  H  H68  1  0.30860000  0.87810000  0.40660000  1
  H  H69  1  0.31060000  0.16580000  0.10390000  1
  H  H70  1  0.31150000  0.22550000  0.18200000  1
  H  H71  1  0.31430000  0.66666667  0.99030000  1
  H  H72  1  0.32310000  0.82090000  0.90350000  1
  H  H73  1  0.33200000  0.12190000  0.40950000  1
  H  H74  1  0.33500000  0.10860000  0.91630000  1
  H  H75  1  0.33910000  0.61630000  0.88690000  1
  H  H76  1  0.34150000  0.32330000  0.57140000  1
  H  H77  1  0.35200000  0.77590000  0.36670000  1
  H  H78  1  0.35490000  0.61290000  0.18870000  1
  H  H79  1  0.35710000  0.96000000  0.73210000  1
  H  H80  1  0.35950000  0.54520000  0.72340000  1
  H  H81  1  0.35970000  0.32610000  0.66140000  1
  H  H82  1  0.36300000  0.80760000  0.03810000  1
  H  H83  1  0.38260000  0.10230000  0.00250000  1
  H  H84  1  0.38860000  0.72120000  0.92110000  1
  H  H85  1  0.38960000  0.45770000  0.94540000  1
  H  H86  1  0.40190000  0.74610000  0.24640000  1
  H  H87  1  0.40370000  0.52920000  0.23880000  1
  H  H88  1  0.40460000  0.98960000  0.89600000  1
  H  H89  1  0.41480000  0.26320000  0.73640000  1
  H  H90  1  0.41730000  0.36140000  0.98270000  1
  H  H91  1  0.44040000  0.46390000  0.83880000  1
  H  H92  1  0.44530000  0.12680000  0.71070000  1
  H  H93  1  0.44730000  0.81450000  0.91510000  1
  H  H94  1  0.45190000  0.86970000  0.99290000  1
  H  H95  1  0.45240000  0.83750000  0.39150000  1
  H  H96  1  0.45740000  0.09160000  0.28140000  1
  H  H97  1  0.46860000  0.84580000  0.48460000  1
  H  H98  1  0.47610000  0.09370000  0.96290000  1
  H  H99  1  0.47720000  0.62480000  0.22860000  1
  H  H100  1  0.48650000  0.89970000  0.82560000  1
  H  H101  1  0.48680000  0.99190000  0.31550000  1
  H  H102  1  0.48690000  0.28720000  0.70090000  1
  H  H103  1  0.48980000  0.23950000  0.96040000  1
  H  H104  1  0.51020000  0.76050000  0.03960000  1
  H  H105  1  0.51310000  0.71280000  0.29910000  1
  H  H106  1  0.51320000  0.00810000  0.68450000  1
  H  H107  1  0.51350000  0.10030000  0.17440000  1
  H  H108  1  0.52280000  0.37520000  0.77140000  1
  H  H109  1  0.52390000  0.90630000  0.03710000  1
  H  H110  1  0.53140000  0.15420000  0.51540000  1
  H  H111  1  0.54260000  0.90840000  0.71860000  1
  H  H112  1  0.54760000  0.16250000  0.60850000  1
  H  H113  1  0.54810000  0.13030000  0.00710000  1
  H  H114  1  0.55270000  0.18550000  0.08490000  1
  H  H115  1  0.55470000  0.87320000  0.28930000  1
  H  H116  1  0.55960000  0.53610000  0.16120000  1
  H  H117  1  0.58270000  0.63860000  0.01730000  1
  H  H118  1  0.58520000  0.73680000  0.26360000  1
  H  H119  1  0.59540000  0.01040000  0.10400000  1
  H  H120  1  0.59630000  0.47080000  0.76120000  1
  H  H121  1  0.59810000  0.25390000  0.75360000  1
  H  H122  1  0.61040000  0.54230000  0.05460000  1
  H  H123  1  0.61140000  0.27880000  0.07890000  1
  H  H124  1  0.61740000  0.89770000  0.99750000  1
  H  H125  1  0.63700000  0.19240000  0.96190000  1
  H  H126  1  0.64030000  0.67390000  0.33860000  1
  H  H127  1  0.64050000  0.45480000  0.27660000  1
  H  H128  1  0.64290000  0.04000000  0.26790000  1
  H  H129  1  0.64510000  0.38710000  0.81130000  1
  H  H130  1  0.64800000  0.22410000  0.63330000  1
  H  H131  1  0.65850000  0.67670000  0.42860000  1
  H  H132  1  0.66090000  0.38370000  0.11310000  1
  H  H133  1  0.66500000  0.89140000  0.08370000  1
  H  H134  1  0.66800000  0.87810000  0.59050000  1
  H  H135  1  0.67690000  0.17910000  0.09650000  1
  H  H136  1  0.68570000  0.33333333  0.00970000  1
  H  H137  1  0.68850000  0.77450000  0.81800000  1
  H  H138  1  0.68940000  0.83420000  0.89610000  1
  H  H139  1  0.69140000  0.12190000  0.59340000  1
  H  H140  1  0.69910000  0.80800000  0.29030000  1
  H  H141  1  0.69970000  0.70640000  0.95590000  1
  H  H142  1  0.70840000  0.85610000  0.39710000  1
  H  H143  1  0.72380000  0.50860000  0.22150000  1
  H  H144  1  0.72750000  0.28180000  0.58770000  1
  H  H145  1  0.73260000  0.60020000  0.97200000  1
  H  H146  1  0.74560000  0.20080000  0.74870000  1
  H  H147  1  0.74690000  0.43340000  0.06150000  1
  H  H148  1  0.74930000  0.94860000  0.21780000  1
  H  H149  1  0.75090000  0.33740000  0.86480000  1
  H  H150  1  0.75930000  0.92550000  0.53390000  1
  H  H151  1  0.77350000  0.92080000  0.34160000  1
  H  H152  1  0.77530000  0.13930000  0.17590000  1
  H  H153  1  0.77760000  0.75840000  0.40900000  1
  H  H154  1  0.77840000  0.53830000  0.08120000  1
  H  H155  1  0.77920000  0.01860000  0.41370000  1
  H  H156  1  0.77930000  0.15650000  0.90770000  1
  H  H157  1  0.78860000  0.29500000  0.80020000  1
  H  H158  1  0.79840000  0.04320000  0.31500000  1
  H  H159  1  0.80180000  0.02620000  0.51600000  1
  H  H160  1  0.80370000  0.74210000  0.90860000  1
  H  H161  1  0.80830000  0.49640000  0.71170000  1
  H  H162  1  0.81280000  0.82640000  0.07960000  1
  H  H163  1  0.81570000  0.12750000  0.04300000  1
  H  H164  1  0.81580000  0.52510000  0.13390000  1
  H  H165  1  0.82670000  0.33380000  0.93800000  1
  H  H166  1  0.83160000  0.15890000  0.80190000  1
  H  H167  1  0.84150000  0.76640000  0.23600000  1
  H  H168  1  0.84340000  0.14650000  0.62210000  1
  H  H169  1  0.84560000  0.48960000  0.96220000  1
  H  H170  1  0.85280000  0.23650000  0.50580000  1
  H  H171  1  0.85940000  0.40830000  0.76020000  1
  H  H172  1  0.86160000  0.71940000  0.56870000  1
  H  H173  1  0.86720000  0.23080000  0.65180000  1
  H  H174  1  0.88070000  0.10050000  0.27060000  1
  H  H175  1  0.88180000  0.89320000  0.14050000  1
  H  H176  1  0.88300000  0.04880000  0.12430000  1
  H  H177  1  0.89560000  0.77420000  0.13280000  1
  H  H178  1  0.89700000  0.51650000  0.23380000  1
  H  H179  1  0.90080000  0.40420000  0.86940000  1
  H  H180  1  0.90110000  0.60520000  0.28130000  1
  H  H181  1  0.90350000  0.90890000  0.46200000  1
  H  H182  1  0.91030000  0.92950000  0.27150000  1
  H  H183  1  0.91440000  0.36980000  0.98280000  1
  H  H184  1  0.91520000  0.93250000  0.08640000  1
  H  H185  1  0.91620000  0.71540000  0.36600000  1
  H  H186  1  0.91720000  0.04420000  0.63500000  1
  H  H187  1  0.92390000  0.75930000  0.95750000  1
  H  H188  1  0.94020000  0.67400000  0.86920000  1
  H  H189  1  0.94410000  0.27030000  0.70160000  1
  H  H190  1  0.94660000  0.13000000  0.32630000  1
  H  H191  1  0.94730000  0.76770000  0.51400000  1
  H  H192  1  0.95310000  0.43680000  0.13850000  1
  H  H193  1  0.95460000  0.12970000  0.96670000  1
  H  H194  1  0.95900000  0.84000000  0.98610000  1
  H  H195  1  0.96250000  0.13660000  0.42940000  1
  H  H196  1  0.97670000  0.85630000  0.47640000  1
  H  H197  1  0.98550000  0.97210000  0.32090000  1
  H  H198  1  0.98800000  0.65700000  0.97340000  1
  H  H199  1  0.99380000  0.35890000  0.77260000  1
  C  C200  1  0.00240000  0.68860000  0.98490000  1
  C  C201  1  0.00240000  0.88140000  0.30830000  1
  C  C202  1  0.00270000  0.54720000  0.88330000  1
  C  C203  1  0.00270000  0.60700000  0.20900000  1
  C  C204  1  0.00360000  0.15600000  0.78260000  1
  C  C205  1  0.00650000  0.49310000  0.84450000  1
  C  C206  1  0.00720000  0.86090000  0.15710000  1
  C  C207  1  0.00740000  0.52130000  0.94320000  1
  C  C208  1  0.01530000  0.20220000  0.00780000  1
  C  C209  1  0.01610000  0.93080000  0.32640000  1
  C  C210  1  0.02420000  0.77320000  0.29250000  1
  C  C211  1  0.03120000  0.94590000  0.52450000  1
  C  C212  1  0.03600000  0.25040000  0.02470000  1
  C  C213  1  0.03960000  0.78260000  0.22480000  1
  C  C214  1  0.04350000  0.78090000  0.01770000  1
  C  C215  1  0.04500000  0.82230000  0.31660000  1
  C  C216  1  0.04740000  0.03510000  0.47580000  1
  C  C217  1  0.05500000  0.52940000  0.12410000  1
  C  C218  1  0.05520000  0.49990000  0.02660000  1
  C  C219  1  0.05780000  0.11410000  0.72310000  1
  C  C220  1  0.05800000  0.58000000  0.15190000  1
  C  C221  1  0.05810000  0.81720000  0.10720000  1
  C  C222  1  0.05970000  0.41440000  0.75850000  1
  C  C223  1  0.06040000  0.67230000  0.01060000  1
  C  C224  1  0.06230000  0.46710000  0.78730000  1
  C  C225  1  0.06290000  0.52070000  0.96720000  1
  C  C226  1  0.06650000  0.20790000  0.67540000  1
  C  C227  1  0.07280000  0.82600000  0.03980000  1
  C  C228  1  0.07290000  0.88740000  0.55120000  1
  C  C229  1  0.07350000  0.92160000  0.35260000  1
  C  C230  1  0.07850000  0.97940000  0.50040000  1
  C  C231  1  0.08140000  0.11460000  0.50530000  1
  C  C232  1  0.08170000  0.40340000  0.09990000  1
  C  C233  1  0.08190000  0.71970000  0.02710000  1
  C  C234  1  0.08850000  0.89180000  0.65580000  1
  C  C235  1  0.09060000  0.73850000  0.17450000  1
  C  C236  1  0.09750000  0.75560000  0.11550000  1
  C  C237  1  0.10160000  0.34100000  0.10920000  1
  C  C238  1  0.10200000  0.07040000  0.86860000  1
  C  C239  1  0.10300000  0.81060000  0.34260000  1
  C  C240  1  0.10500000  0.90770000  0.59440000  1
  C  C241  1  0.11000000  0.20830000  0.46880000  1
  C  C242  1  0.11010000  0.49470000  0.06010000  1
  C  C243  1  0.11200000  0.24280000  0.63980000  1
  C  C244  1  0.11220000  0.14870000  0.68160000  1
  C  C245  1  0.11680000  0.86100000  0.36030000  1
  C  C246  1  0.12700000  0.91030000  0.68870000  1
  C  C247  1  0.13560000  0.14930000  0.47670000  1
  C  C248  1  0.14360000  0.42520000  0.06880000  1
  C  C249  1  0.14560000  0.71060000  0.05560000  1
  C  C250  1  0.15150000  0.94240000  0.56950000  1
  C  C251  1  0.15220000  0.84980000  0.49730000  1
  C  C252  1  0.16120000  0.23790000  0.43700000  1
  C  C253  1  0.16220000  0.20740000  0.84560000  1
  C  C254  1  0.16330000  0.94930000  0.50300000  1
  C  C255  1  0.16570000  0.79970000  0.00460000  1
  C  C256  1  0.16620000  0.95310000  0.84630000  1
  C  C257  1  0.17200000  0.01210000  0.83410000  1
  C  C258  1  0.17620000  0.94420000  0.66250000  1
  C  C259  1  0.17930000  0.78740000  0.47580000  1
  C  C260  1  0.18280000  0.30110000  0.08670000  1
  C  C261  1  0.18690000  0.95870000  0.60410000  1
  C  C262  1  0.19310000  0.21760000  0.61450000  1
  C  C263  1  0.19390000  0.21260000  0.78460000  1
  C  C264  1  0.19470000  0.57840000  0.23890000  1
  C  C265  1  0.19640000  0.12120000  0.65470000  1
  C  C266  1  0.19710000  0.49450000  0.89570000  1
  C  C267  1  0.19900000  0.88590000  0.47130000  1
  C  C268  1  0.20480000  0.73890000  0.01270000  1
  C  C269  1  0.21070000  0.17640000  0.87760000  1
  C  C270  1  0.21110000  0.83050000  0.96320000  1
  C  C271  1  0.21210000  0.66830000  0.17900000  1
  C  C272  1  0.21990000  0.11640000  0.45720000  1
  C  C273  1  0.22520000  0.38480000  0.04830000  1
  C  C274  1  0.22540000  0.52580000  0.26770000  1
  C  C275  1  0.22620000  0.82540000  0.17620000  1
  C  C276  1  0.23020000  0.89960000  0.81620000  1
  C  C277  1  0.23340000  0.16000000  0.62160000  1
  C  C278  1  0.24350000  0.20720000  0.41380000  1
  C  C279  1  0.24360000  0.61010000  0.20950000  1
  C  C280  1  0.24460000  0.32190000  0.05770000  1
  C  C281  1  0.24490000  0.01270000  0.79120000  1
  C  C282  1  0.25370000  0.76080000  0.42750000  1
  C  C283  1  0.25550000  0.52520000  0.86210000  1
  C  C284  1  0.25690000  0.82760000  0.11340000  1
  C  C285  1  0.27420000  0.85560000  0.42380000  1
  C  C286  1  0.27450000  0.14500000  0.42440000  1
  C  C287  1  0.27520000  0.56220000  0.89470000  1
  C  C288  1  0.27690000  0.80100000  0.20810000  1
  C  C289  1  0.27810000  0.18720000  0.75220000  1
  C  C290  1  0.28710000  0.70830000  0.98350000  1
  C  C291  1  0.28780000  0.51810000  0.80030000  1
  C  C292  1  0.29270000  0.80040000  0.93230000  1
  C  C293  1  0.29550000  0.14940000  0.84470000  1
  C  C294  1  0.30130000  0.79450000  0.40060000  1
  C  C295  1  0.30290000  0.90040000  0.77450000  1
  C  C296  1  0.30350000  0.23500000  0.37530000  1
  C  C297  1  0.30350000  0.50660000  0.26620000  1
  C  C298  1  0.30800000  0.95850000  0.76200000  1
  C  C299  1  0.32100000  0.59090000  0.20930000  1
  C  C300  1  0.32560000  0.59190000  0.86410000  1
  C  C301  1  0.32770000  0.15510000  0.78230000  1
  C  C302  1  0.33090000  0.74140000  0.94220000  1
  C  C303  1  0.33690000  0.44840000  0.29380000  1
  C  C304  1  0.33850000  0.54940000  0.76720000  1
  C  C305  1  0.34110000  0.80640000  0.08140000  1
  C  C306  1  0.35050000  0.54070000  0.23810000  1
  C  C307  1  0.35790000  0.58720000  0.80010000  1
  C  C308  1  0.35930000  0.11300000  0.87140000  1
  C  C309  1  0.35930000  0.17190000  0.09880000  1
  C  C310  1  0.35990000  0.20710000  0.14620000  1
  C  C311  1  0.36100000  0.77910000  0.17620000  1
  C  C312  1  0.37340000  0.84110000  0.74460000  1
  C  C313  1  0.38380000  0.28980000  0.57830000  1
  C  C314  1  0.39220000  0.78390000  0.11210000  1
  C  C315  1  0.39580000  0.29140000  0.63100000  1
  C  C316  1  0.40880000  0.62310000  0.76760000  1
  C  C317  1  0.41080000  0.05080000  0.83090000  1
  C  C318  1  0.41700000  0.14850000  0.85670000  1
  C  C319  1  0.42060000  0.12290000  0.75560000  1
  C  C320  1  0.42180000  0.12350000  0.99090000  1
  C  C321  1  0.42230000  0.42060000  0.91760000  1
  C  C322  1  0.42560000  0.74890000  0.20120000  1
  C  C323  1  0.42670000  0.99280000  0.85310000  1
  C  C324  1  0.42720000  0.14620000  0.04540000  1
  C  C325  1  0.42870000  0.23780000  0.47130000  1
  C  C326  1  0.43150000  0.21480000  0.14050000  1
  C  C327  1  0.43330000  0.23920000  0.53470000  1
  C  C328  1  0.43460000  0.17490000  0.89810000  1
  C  C329  1  0.43500000  0.25070000  0.18950000  1
  C  C330  1  0.43900000  0.36360000  0.93960000  1
  C  C331  1  0.44230000  0.05620000  0.76910000  1
  C  C332  1  0.44940000  0.15320000  0.79450000  1
  C  C333  1  0.45340000  0.42430000  0.85400000  1
  C  C334  1  0.45720000  0.24580000  0.64310000  1
  C  C335  1  0.46830000  0.25240000  0.70150000  1
  C  C336  1  0.47540000  0.93980000  0.81130000  1
  C  C337  1  0.47850000  0.78820000  0.18600000  1
  C  C338  1  0.47990000  0.68570000  0.16500000  1
  C  C339  1  0.48650000  0.75710000  0.08470000  1
  C  C340  1  0.48720000  0.30920000  0.89980000  1
  C  C341  1  0.48990000  0.20730000  0.87670000  1
  C  C342  1  0.49120000  0.05520000  0.25270000  1
  C  C343  1  0.49130000  0.00390000  0.72720000  1
  C  C344  1  0.49440000  0.80460000  0.39970000  1
  C  C345  1  0.49660000  0.18970000  0.54500000  1
  C  C346  1  0.49800000  0.81620000  0.91150000  1
  C  C347  1  0.49850000  0.62800000  0.18560000  1
  C  C348  1  0.49870000  0.81320000  0.22740000  1
  C  C349  1  0.49920000  0.15050000  0.04210000  1
  C  C350  1  0.50080000  0.84950000  0.95790000  1
  C  C351  1  0.50130000  0.18680000  0.77260000  1
  C  C352  1  0.50150000  0.37200000  0.81440000  1
  C  C353  1  0.50200000  0.18380000  0.08850000  1
  C  C354  1  0.50340000  0.81030000  0.45500000  1
  C  C355  1  0.50560000  0.19540000  0.60030000  1
  C  C356  1  0.50870000  0.99610000  0.27280000  1
  C  C357  1  0.50880000  0.94480000  0.74730000  1
  C  C358  1  0.51010000  0.79270000  0.12330000  1
  C  C359  1  0.51280000  0.69080000  0.10020000  1
  C  C360  1  0.51350000  0.24290000  0.91530000  1
  C  C361  1  0.52010000  0.31430000  0.83500000  1
  C  C362  1  0.52150000  0.21180000  0.81400000  1
  C  C363  1  0.52460000  0.06020000  0.18870000  1
  C  C364  1  0.53170000  0.74760000  0.29850000  1
  C  C365  1  0.54280000  0.75420000  0.35690000  1
  C  C366  1  0.54660000  0.57570000  0.14600000  1
  C  C367  1  0.55060000  0.84680000  0.20550000  1
  C  C368  1  0.55770000  0.94380000  0.23090000  1
  C  C369  1  0.56100000  0.63640000  0.06040000  1
  C  C370  1  0.56500000  0.74930000  0.81050000  1
  C  C371  1  0.56540000  0.82510000  0.10190000  1
  C  C372  1  0.56670000  0.76080000  0.46530000  1
  C  C373  1  0.56850000  0.78520000  0.85950000  1
  C  C374  1  0.57130000  0.76220000  0.52870000  1
  C  C375  1  0.57280000  0.85380000  0.95460000  1
  C  C376  1  0.57330000  0.00720000  0.14690000  1
  C  C377  1  0.57440000  0.25110000  0.79880000  1
  C  C378  1  0.57770000  0.57940000  0.08240000  1
  C  C379  1  0.57820000  0.87650000  0.00910000  1
  C  C380  1  0.57940000  0.87710000  0.24440000  1
  C  C381  1  0.58300000  0.85150000  0.14330000  1
  C  C382  1  0.58920000  0.94920000  0.16910000  1
  C  C383  1  0.59120000  0.37690000  0.23240000  1
  C  C384  1  0.60420000  0.70860000  0.36900000  1
  C  C385  1  0.60780000  0.21610000  0.88790000  1
  C  C386  1  0.61620000  0.71020000  0.42170000  1
  C  C387  1  0.62660000  0.15890000  0.25540000  1
  C  C388  1  0.63900000  0.22090000  0.82380000  1
  C  C389  1  0.64010000  0.79290000  0.85380000  1
  C  C390  1  0.64070000  0.82810000  0.90120000  1
  C  C391  1  0.64070000  0.88700000  0.12860000  1
  C  C392  1  0.64210000  0.41280000  0.19990000  1
  C  C393  1  0.64950000  0.45930000  0.76190000  1
  C  C394  1  0.65890000  0.19360000  0.91860000  1
  C  C395  1  0.66150000  0.45060000  0.23280000  1
  C  C396  1  0.66310000  0.55160000  0.70620000  1
  C  C397  1  0.66910000  0.25860000  0.05780000  1
  C  C398  1  0.67230000  0.84490000  0.21770000  1
  C  C399  1  0.67440000  0.40810000  0.13590000  1
  C  C400  1  0.67900000  0.40910000  0.79070000  1
  C  C401  1  0.69200000  0.04150000  0.23800000  1
  C  C402  1  0.69650000  0.49340000  0.73380000  1
  C  C403  1  0.69650000  0.76500000  0.62470000  1
  C  C404  1  0.69710000  0.09960000  0.22550000  1
  C  C405  1  0.69870000  0.20550000  0.59940000  1
  C  C406  1  0.70450000  0.85060000  0.15530000  1
  C  C407  1  0.70730000  0.19960000  0.06770000  1
  C  C408  1  0.71220000  0.48190000  0.19970000  1
  C  C409  1  0.71290000  0.29170000  0.01650000  1
  C  C410  1  0.72190000  0.81280000  0.24780000  1
  C  C411  1  0.72310000  0.19900000  0.79190000  1
  C  C412  1  0.72480000  0.43780000  0.10530000  1
  C  C413  1  0.72550000  0.85500000  0.57560000  1
  C  C414  1  0.72580000  0.14440000  0.57620000  1
  C  C415  1  0.74310000  0.17240000  0.88660000  1
  C  C416  1  0.74450000  0.47480000  0.13790000  1
  C  C417  1  0.74630000  0.23920000  0.57250000  1
  C  C418  1  0.75510000  0.98730000  0.20880000  1
  C  C419  1  0.75540000  0.67810000  0.94230000  1
  C  C420  1  0.75640000  0.38990000  0.79050000  1
  C  C421  1  0.75650000  0.79280000  0.58620000  1
  C  C422  1  0.76660000  0.84000000  0.37840000  1
  C  C423  1  0.76980000  0.10040000  0.18380000  1
  C  C424  1  0.77380000  0.17460000  0.82380000  1
  C  C425  1  0.77460000  0.47420000  0.73230000  1
  C  C426  1  0.77480000  0.61520000  0.95170000  1
  C  C427  1  0.78010000  0.88360000  0.54280000  1
  C  C428  1  0.78790000  0.33170000  0.82100000  1
  C  C429  1  0.78890000  0.16950000  0.03680000  1
  C  C430  1  0.78930000  0.82360000  0.12240000  1
  C  C431  1  0.79520000  0.26110000  0.98730000  1
  C  C432  1  0.80100000  0.11410000  0.52870000  1
  C  C433  1  0.80290000  0.50550000  0.10430000  1
  C  C434  1  0.80360000  0.87880000  0.34530000  1
  C  C435  1  0.80530000  0.42160000  0.76110000  1
  C  C436  1  0.80610000  0.78740000  0.21540000  1
  C  C437  1  0.80690000  0.78240000  0.38550000  1
  C  C438  1  0.81310000  0.04130000  0.39590000  1
  C  C439  1  0.81720000  0.69890000  0.91330000  1
  C  C440  1  0.82070000  0.21260000  0.52420000  1
  C  C441  1  0.82380000  0.05580000  0.33750000  1
  C  C442  1  0.82800000  0.98790000  0.16590000  1
  C  C443  1  0.83380000  0.04690000  0.15370000  1
  C  C444  1  0.83430000  0.20030000  0.99540000  1
  C  C445  1  0.83670000  0.05070000  0.49700000  1
  C  C446  1  0.83780000  0.79260000  0.15440000  1
  C  C447  1  0.83880000  0.76210000  0.56300000  1
  C  C448  1  0.84780000  0.15020000  0.50270000  1
  C  C449  1  0.84850000  0.05760000  0.43050000  1
  C  C450  1  0.85440000  0.28940000  0.94440000  1
  C  C451  1  0.85640000  0.57480000  0.93120000  1
  C  C452  1  0.86440000  0.85070000  0.52330000  1
  C  C453  1  0.87300000  0.08970000  0.31130000  1
  C  C454  1  0.88320000  0.13900000  0.63970000  1
  C  C455  1  0.88780000  0.85130000  0.31840000  1
  C  C456  1  0.88800000  0.75720000  0.36020000  1
  C  C457  1  0.88990000  0.50530000  0.93990000  1
  C  C458  1  0.89000000  0.79170000  0.53120000  1
  C  C459  1  0.89500000  0.09230000  0.40560000  1
  C  C460  1  0.89700000  0.18940000  0.65740000  1
  C  C461  1  0.89800000  0.92960000  0.13140000  1
  C  C462  1  0.89840000  0.65900000  0.89080000  1
  C  C463  1  0.90250000  0.24440000  0.88450000  1
  C  C464  1  0.90940000  0.26150000  0.82550000  1
  C  C465  1  0.91150000  0.10820000  0.34420000  1
  C  C466  1  0.91810000  0.28030000  0.97290000  1
  C  C467  1  0.91830000  0.59660000  0.90010000  1
  C  C468  1  0.91860000  0.88540000  0.49470000  1
  C  C469  1  0.92150000  0.02060000  0.49960000  1
  C  C470  1  0.92650000  0.07840000  0.64740000  1
  C  C471  1  0.92710000  0.11260000  0.44880000  1
  C  C472  1  0.92720000  0.17400000  0.96020000  1
  C  C473  1  0.93350000  0.79210000  0.32460000  1
  C  C474  1  0.93710000  0.47930000  0.03280000  1
  C  C475  1  0.93770000  0.53290000  0.21270000  1
  C  C476  1  0.93960000  0.32770000  0.98940000  1
  C  C477  1  0.94030000  0.58560000  0.24150000  1
  C  C478  1  0.94190000  0.18280000  0.89280000  1
  C  C479  1  0.94200000  0.42000000  0.84810000  1
  C  C480  1  0.94220000  0.88590000  0.27690000  1
  C  C481  1  0.94480000  0.50010000  0.97340000  1
  C  C482  1  0.94500000  0.47060000  0.87590000  1
  C  C483  1  0.95260000  0.96490000  0.52420000  1
  C  C484  1  0.95500000  0.17770000  0.68340000  1
  C  C485  1  0.95650000  0.21910000  0.98230000  1
  C  C486  1  0.96040000  0.21740000  0.77520000  1
  C  C487  1  0.96400000  0.74960000  0.97530000  1
  C  C488  1  0.96880000  0.05410000  0.47550000  1
  C  C489  1  0.97580000  0.22680000  0.70750000  1
  C  C490  1  0.98390000  0.06920000  0.67360000  1
  C  C491  1  0.98470000  0.79780000  0.99220000  1
  C  C492  1  0.99260000  0.47870000  0.05680000  1
  C  C493  1  0.99280000  0.13910000  0.84290000  1
  C  C494  1  0.99350000  0.50690000  0.15550000  1
  C  C495  1  0.99640000  0.84400000  0.21740000  1
  C  C496  1  0.99730000  0.39300000  0.79100000  1
  C  C497  1  0.99730000  0.45280000  0.11670000  1
  C  C498  1  0.99760000  0.11860000  0.69170000  1
  C  C499  1  0.99760000  0.31140000  0.01510000  1
  O  O500  1  0.03490000  0.07740000  0.84890000  1
  O  O501  1  0.09500000  0.07020000  0.45320000  1
  O  O502  1  0.12300000  0.54340000  0.93790000  1
  O  O503  1  0.13190000  0.67850000  0.18330000  1
  O  O504  1  0.27380000  0.29120000  0.36930000  1
  O  O505  1  0.29730000  0.41210000  0.30350000  1
  O  O506  1  0.36560000  0.79050000  0.76280000  1
  O  O507  1  0.36610000  0.27720000  0.46520000  1
  O  O508  1  0.36960000  0.28110000  0.23200000  1
  O  O509  1  0.37880000  0.19960000  0.35350000  1
  O  O510  1  0.39340000  0.17850000  0.96150000  1
  O  O511  1  0.39930000  0.43870000  0.30370000  1
  O  O512  1  0.42370000  0.65460000  0.80040000  1
  O  O513  1  0.43070000  0.62160000  0.70970000  1
  O  O514  1  0.43570000  0.84540000  0.70460000  1
  O  O515  1  0.45400000  0.30250000  0.32050000  1
  O  O516  1  0.47410000  0.80280000  0.28890000  1
  O  O517  1  0.48740000  0.20100000  0.42840000  1
  O  O518  1  0.49670000  0.74980000  0.81830000  1
  O  O519  1  0.50330000  0.25020000  0.18170000  1
  O  O520  1  0.51260000  0.79900000  0.57160000  1
  O  O521  1  0.52590000  0.19720000  0.71110000  1
  O  O522  1  0.54600000  0.69750000  0.67950000  1
  O  O523  1  0.56430000  0.15460000  0.29540000  1
  O  O524  1  0.56930000  0.37840000  0.29030000  1
  O  O525  1  0.57630000  0.34540000  0.19960000  1
  O  O526  1  0.60070000  0.56130000  0.69630000  1
  O  O527  1  0.60660000  0.82150000  0.03850000  1
  O  O528  1  0.62120000  0.80040000  0.64650000  1
  O  O529  1  0.63040000  0.71890000  0.76800000  1
  O  O530  1  0.63390000  0.72280000  0.53480000  1
  O  O531  1  0.63440000  0.20950000  0.23720000  1
  O  O532  1  0.70270000  0.58790000  0.69650000  1
  O  O533  1  0.72620000  0.70880000  0.63070000  1
  O  O534  1  0.86810000  0.32150000  0.81670000  1
  O  O535  1  0.87700000  0.45660000  0.06210000  1
  O  O536  1  0.90500000  0.92980000  0.54680000  1
  O  O537  1  0.96510000  0.92260000  0.15110000  1
