# generated using pymatgen
data_Fe3H24C42O13
_symmetry_space_group_name_H-M   'P 1'
_cell_length_a   21.80000000
_cell_length_b   21.80000000
_cell_length_c   35.40700000
_cell_angle_alpha   90.00000000
_cell_angle_beta   90.00000000
_cell_angle_gamma   90.00000000
_symmetry_Int_Tables_number   1
_chemical_formula_structural   Fe3H24C42O13
_chemical_formula_sum   'Fe24 H192 C336 O104'
_cell_volume   16826.82268000
_cell_formula_units_Z   8
loop_
 _symmetry_equiv_pos_site_id
 _symmetry_equiv_pos_as_xyz
  1  'x, y, z'
loop_
 _atom_site_type_symbol
 _atom_site_label
 _atom_site_symmetry_multiplicity
 _atom_site_fract_x
 _atom_site_fract_y
 _atom_site_fract_z
 _atom_site_occupancy
  Fe  Fe0  1  0.00020000  0.28091000  0.59865000  1
  Fe  Fe1  1  0.00270000  0.65711000  0.01349000  1
  Fe  Fe2  1  0.00724000  0.19267000  0.52319000  1
  Fe  Fe3  1  0.15711000  0.49730000  0.76349000  1
  Fe  Fe4  1  0.19267000  0.00724000  0.47681000  1
  Fe  Fe5  1  0.21909000  0.50020000  0.84865000  1
  Fe  Fe6  1  0.28091000  0.00020000  0.40135000  1
  Fe  Fe7  1  0.30733000  0.50724000  0.77319000  1
  Fe  Fe8  1  0.34289000  0.99730000  0.48651000  1
  Fe  Fe9  1  0.49276000  0.69267000  0.72681000  1
  Fe  Fe10  1  0.49730000  0.15711000  0.23651000  1
  Fe  Fe11  1  0.49980000  0.78091000  0.65135000  1
  Fe  Fe12  1  0.50020000  0.21909000  0.15135000  1
  Fe  Fe13  1  0.50270000  0.84289000  0.73651000  1
  Fe  Fe14  1  0.50724000  0.30733000  0.22681000  1
  Fe  Fe15  1  0.65711000  0.00270000  0.98651000  1
  Fe  Fe16  1  0.69267000  0.49276000  0.27319000  1
  Fe  Fe17  1  0.71909000  0.99980000  0.90135000  1
  Fe  Fe18  1  0.78091000  0.49980000  0.34865000  1
  Fe  Fe19  1  0.80733000  0.99276000  0.97681000  1
  Fe  Fe20  1  0.84289000  0.50270000  0.26349000  1
  Fe  Fe21  1  0.99276000  0.80733000  0.02319000  1
  Fe  Fe22  1  0.99730000  0.34289000  0.51349000  1
  Fe  Fe23  1  0.99980000  0.71909000  0.09865000  1
  H  H24  1  0.00330000  0.69480000  0.90490000  1
  H  H25  1  0.00360000  0.80680000  0.90800000  1
  H  H26  1  0.00690000  0.38070000  0.80060000  1
  H  H27  1  0.00840000  0.25430000  0.29630000  1
  H  H28  1  0.02670000  0.77210000  0.43050000  1
  H  H29  1  0.04530000  0.27070000  0.90740000  1
  H  H30  1  0.05690000  0.69720000  0.31950000  1
  H  H31  1  0.05790000  0.66410000  0.77920000  1
  H  H32  1  0.06580000  0.12150000  0.43130000  1
  H  H33  1  0.06630000  0.61470000  0.88860000  1
  H  H34  1  0.07890000  0.85660000  0.44740000  1
  H  H35  1  0.10740000  0.21920000  0.31960000  1
  H  H36  1  0.10840000  0.77340000  0.33240000  1
  H  H37  1  0.11470000  0.43370000  0.63860000  1
  H  H38  1  0.11630000  0.34920000  0.88990000  1
  H  H39  1  0.11630000  0.84250000  0.93170000  1
  H  H40  1  0.11930000  0.50690000  0.05060000  1
  H  H41  1  0.12150000  0.06580000  0.56870000  1
  H  H42  1  0.12670000  0.34650000  0.42580000  1
  H  H43  1  0.13800000  0.83350000  0.14980000  1
  H  H44  1  0.14340000  0.92110000  0.05260000  1
  H  H45  1  0.14530000  0.17350000  0.65760000  1
  H  H46  1  0.14900000  0.66070000  0.93710000  1
  H  H47  1  0.14920000  0.81160000  0.61570000  1
  H  H48  1  0.15060000  0.70990000  0.63540000  1
  H  H49  1  0.15080000  0.61630000  0.13990000  1
  H  H50  1  0.15350000  0.62670000  0.67580000  1
  H  H51  1  0.15750000  0.88370000  0.56830000  1
  H  H52  1  0.16070000  0.35100000  0.68710000  1
  H  H53  1  0.16410000  0.44210000  0.52920000  1
  H  H54  1  0.16650000  0.86200000  0.35020000  1
  H  H55  1  0.16950000  0.28510000  0.63670000  1
  H  H56  1  0.17350000  0.14530000  0.34240000  1
  H  H57  1  0.18440000  0.18500000  0.46750000  1
  H  H58  1  0.18500000  0.18440000  0.53250000  1
  H  H59  1  0.18770000  0.27120000  0.57330000  1
  H  H60  1  0.18840000  0.85080000  0.88430000  1
  H  H61  1  0.19320000  0.99640000  0.59200000  1
  H  H62  1  0.19480000  0.49670000  0.65490000  1
  H  H63  1  0.19720000  0.44310000  0.06950000  1
  H  H64  1  0.20990000  0.34940000  0.38540000  1
  H  H65  1  0.21490000  0.66950000  0.88670000  1
  H  H66  1  0.21920000  0.10740000  0.68040000  1
  H  H67  1  0.22660000  0.89160000  0.16760000  1
  H  H68  1  0.22790000  0.97330000  0.06950000  1
  H  H69  1  0.22880000  0.68770000  0.82330000  1
  H  H70  1  0.22930000  0.54530000  0.15740000  1
  H  H71  1  0.24570000  0.50840000  0.54630000  1
  H  H72  1  0.25430000  0.00840000  0.70370000  1
  H  H73  1  0.27070000  0.04530000  0.09260000  1
  H  H74  1  0.27120000  0.18770000  0.42670000  1
  H  H75  1  0.27210000  0.47330000  0.18050000  1
  H  H76  1  0.27340000  0.39160000  0.08240000  1
  H  H77  1  0.28080000  0.60740000  0.56960000  1
  H  H78  1  0.28510000  0.16950000  0.36330000  1
  H  H79  1  0.29010000  0.84940000  0.86460000  1
  H  H80  1  0.30280000  0.94310000  0.18050000  1
  H  H81  1  0.30520000  0.99670000  0.59510000  1
  H  H82  1  0.30680000  0.49640000  0.65800000  1
  H  H83  1  0.31160000  0.35080000  0.36570000  1
  H  H84  1  0.31230000  0.77120000  0.67670000  1
  H  H85  1  0.31500000  0.68440000  0.71750000  1
  H  H86  1  0.31560000  0.68500000  0.78250000  1
  H  H87  1  0.32650000  0.64530000  0.90760000  1
  H  H88  1  0.33050000  0.78510000  0.61330000  1
  H  H89  1  0.33350000  0.36200000  0.89980000  1
  H  H90  1  0.33590000  0.94210000  0.72080000  1
  H  H91  1  0.33930000  0.85100000  0.56290000  1
  H  H92  1  0.34250000  0.38370000  0.68170000  1
  H  H93  1  0.34650000  0.12670000  0.57420000  1
  H  H94  1  0.34920000  0.11630000  0.11010000  1
  H  H95  1  0.34940000  0.20990000  0.61460000  1
  H  H96  1  0.35080000  0.31160000  0.63430000  1
  H  H97  1  0.35100000  0.16070000  0.31290000  1
  H  H98  1  0.35470000  0.67350000  0.59240000  1
  H  H99  1  0.35660000  0.42110000  0.19740000  1
  H  H100  1  0.36200000  0.33350000  0.10020000  1
  H  H101  1  0.37330000  0.84650000  0.82420000  1
  H  H102  1  0.37850000  0.56580000  0.68130000  1
  H  H103  1  0.38070000  0.00690000  0.19940000  1
  H  H104  1  0.38370000  0.34250000  0.31830000  1
  H  H105  1  0.38370000  0.84920000  0.36010000  1
  H  H106  1  0.38530000  0.93370000  0.61140000  1
  H  H107  1  0.39160000  0.27340000  0.91760000  1
  H  H108  1  0.39260000  0.71920000  0.93040000  1
  H  H109  1  0.42110000  0.35660000  0.80260000  1
  H  H110  1  0.43370000  0.11470000  0.36140000  1
  H  H111  1  0.43420000  0.62150000  0.81870000  1
  H  H112  1  0.44210000  0.16410000  0.47080000  1
  H  H113  1  0.44310000  0.19720000  0.93050000  1
  H  H114  1  0.45470000  0.77070000  0.34260000  1
  H  H115  1  0.47330000  0.27210000  0.81950000  1
  H  H116  1  0.49160000  0.75430000  0.95370000  1
  H  H117  1  0.49310000  0.88070000  0.44940000  1
  H  H118  1  0.49640000  0.30680000  0.34200000  1
  H  H119  1  0.49670000  0.19480000  0.34510000  1
  H  H120  1  0.50330000  0.80520000  0.84510000  1
  H  H121  1  0.50360000  0.69320000  0.84200000  1
  H  H122  1  0.50690000  0.11930000  0.94940000  1
  H  H123  1  0.50840000  0.24570000  0.45370000  1
  H  H124  1  0.52670000  0.72790000  0.31950000  1
  H  H125  1  0.54530000  0.22930000  0.84260000  1
  H  H126  1  0.55690000  0.80280000  0.43050000  1
  H  H127  1  0.55790000  0.83590000  0.97080000  1
  H  H128  1  0.56580000  0.37850000  0.31870000  1
  H  H129  1  0.56630000  0.88530000  0.86140000  1
  H  H130  1  0.57890000  0.64340000  0.30260000  1
  H  H131  1  0.60740000  0.28080000  0.43040000  1
  H  H132  1  0.60840000  0.72660000  0.41760000  1
  H  H133  1  0.61470000  0.06630000  0.11140000  1
  H  H134  1  0.61630000  0.15080000  0.86010000  1
  H  H135  1  0.61630000  0.65750000  0.81830000  1
  H  H136  1  0.61930000  0.99310000  0.69940000  1
  H  H137  1  0.62150000  0.43420000  0.18130000  1
  H  H138  1  0.62670000  0.15350000  0.32420000  1
  H  H139  1  0.63800000  0.66650000  0.60020000  1
  H  H140  1  0.64340000  0.57890000  0.69740000  1
  H  H141  1  0.64530000  0.32650000  0.09240000  1
  H  H142  1  0.64900000  0.83930000  0.81290000  1
  H  H143  1  0.64920000  0.68840000  0.13430000  1
  H  H144  1  0.65060000  0.79010000  0.11460000  1
  H  H145  1  0.65080000  0.88370000  0.61010000  1
  H  H146  1  0.65350000  0.87330000  0.07420000  1
  H  H147  1  0.65750000  0.61630000  0.18170000  1
  H  H148  1  0.66070000  0.14900000  0.06290000  1
  H  H149  1  0.66410000  0.05790000  0.22080000  1
  H  H150  1  0.66650000  0.63800000  0.39980000  1
  H  H151  1  0.66950000  0.21490000  0.11330000  1
  H  H152  1  0.67350000  0.35470000  0.40760000  1
  H  H153  1  0.68440000  0.31500000  0.28250000  1
  H  H154  1  0.68500000  0.31560000  0.21750000  1
  H  H155  1  0.68770000  0.22880000  0.17670000  1
  H  H156  1  0.68840000  0.64920000  0.86570000  1
  H  H157  1  0.69320000  0.50360000  0.15800000  1
  H  H158  1  0.69480000  0.00330000  0.09510000  1
  H  H159  1  0.69720000  0.05690000  0.68050000  1
  H  H160  1  0.70990000  0.15060000  0.36460000  1
  H  H161  1  0.71490000  0.83050000  0.86330000  1
  H  H162  1  0.71920000  0.39260000  0.06960000  1
  H  H163  1  0.72660000  0.60840000  0.58240000  1
  H  H164  1  0.72790000  0.52670000  0.68050000  1
  H  H165  1  0.72880000  0.81230000  0.92670000  1
  H  H166  1  0.72930000  0.95470000  0.59260000  1
  H  H167  1  0.74570000  0.99160000  0.20370000  1
  H  H168  1  0.75430000  0.49160000  0.04630000  1
  H  H169  1  0.77070000  0.45470000  0.65740000  1
  H  H170  1  0.77120000  0.31230000  0.32330000  1
  H  H171  1  0.77210000  0.02670000  0.56950000  1
  H  H172  1  0.77340000  0.10840000  0.66760000  1
  H  H173  1  0.78080000  0.89260000  0.18040000  1
  H  H174  1  0.78510000  0.33050000  0.38670000  1
  H  H175  1  0.79010000  0.65060000  0.88540000  1
  H  H176  1  0.80280000  0.55690000  0.56950000  1
  H  H177  1  0.80520000  0.50330000  0.15490000  1
  H  H178  1  0.80680000  0.00360000  0.09200000  1
  H  H179  1  0.81160000  0.14920000  0.38430000  1
  H  H180  1  0.81230000  0.72880000  0.07330000  1
  H  H181  1  0.81500000  0.81560000  0.03250000  1
  H  H182  1  0.81560000  0.81500000  0.96750000  1
  H  H183  1  0.82650000  0.85470000  0.84240000  1
  H  H184  1  0.83050000  0.71490000  0.13670000  1
  H  H185  1  0.83350000  0.13800000  0.85020000  1
  H  H186  1  0.83590000  0.55790000  0.02920000  1
  H  H187  1  0.83930000  0.64900000  0.18710000  1
  H  H188  1  0.84250000  0.11630000  0.06830000  1
  H  H189  1  0.84650000  0.37330000  0.17580000  1
  H  H190  1  0.84920000  0.38370000  0.63990000  1
  H  H191  1  0.84940000  0.29010000  0.13540000  1
  H  H192  1  0.85080000  0.18840000  0.11570000  1
  H  H193  1  0.85100000  0.33930000  0.43710000  1
  H  H194  1  0.85470000  0.82650000  0.15760000  1
  H  H195  1  0.85660000  0.07890000  0.55260000  1
  H  H196  1  0.86200000  0.16650000  0.64980000  1
  H  H197  1  0.87330000  0.65350000  0.92580000  1
  H  H198  1  0.87850000  0.93420000  0.06870000  1
  H  H199  1  0.88070000  0.49310000  0.55060000  1
  H  H200  1  0.88370000  0.15750000  0.43170000  1
  H  H201  1  0.88370000  0.65080000  0.38990000  1
  H  H202  1  0.88530000  0.56630000  0.13860000  1
  H  H203  1  0.89160000  0.22660000  0.83240000  1
  H  H204  1  0.89260000  0.78080000  0.81960000  1
  H  H205  1  0.92110000  0.14340000  0.94740000  1
  H  H206  1  0.93370000  0.38530000  0.38860000  1
  H  H207  1  0.93420000  0.87850000  0.93130000  1
  H  H208  1  0.94210000  0.33590000  0.27920000  1
  H  H209  1  0.94310000  0.30280000  0.81950000  1
  H  H210  1  0.95470000  0.72930000  0.40740000  1
  H  H211  1  0.97330000  0.22790000  0.93050000  1
  H  H212  1  0.99160000  0.74570000  0.79630000  1
  H  H213  1  0.99310000  0.61930000  0.30060000  1
  H  H214  1  0.99640000  0.19320000  0.40800000  1
  H  H215  1  0.99670000  0.30520000  0.40490000  1
  C  C216  1  0.00740000  0.71960000  0.81540000  1
  C  C217  1  0.00880000  0.72460000  0.36290000  1
  C  C218  1  0.00920000  0.27030000  0.35160000  1
  C  C219  1  0.01440000  0.68920000  0.87920000  1
  C  C220  1  0.01830000  0.35590000  0.82160000  1
  C  C221  1  0.02020000  0.69010000  0.33333333  1
  C  C222  1  0.03360000  0.18540000  0.39500000  1
  C  C223  1  0.03940000  0.29160000  0.88410000  1
  C  C224  1  0.04800000  0.21760000  0.36290000  1
  C  C225  1  0.04810000  0.67080000  0.80500000  1
  C  C226  1  0.05060000  0.77180000  0.37650000  1
  C  C227  1  0.05170000  0.79200000  0.41230000  1
  C  C228  1  0.05250000  0.64250000  0.86970000  1
  C  C229  1  0.07210000  0.63490000  0.83170000  1
  C  C230  1  0.07310000  0.36650000  0.83960000  1
  C  C231  1  0.07440000  0.14140000  0.40800000  1
  C  C232  1  0.07880000  0.74260000  0.96990000  1
  C  C233  1  0.08130000  0.16990000  0.59380000  1
  C  C234  1  0.08300000  0.33840000  0.87400000  1
  C  C235  1  0.08450000  0.82800000  0.08310000  1
  C  C236  1  0.08470000  0.38480000  0.57170000  1
  C  C237  1  0.08490000  0.61760000  0.07670000  1
  C  C238  1  0.08670000  0.83920000  0.42330000  1
  C  C239  1  0.09270000  0.26440000  0.47540000  1
  C  C240  1  0.09870000  0.20010000  0.34310000  1
  C  C241  1  0.09940000  0.79300000  0.35570000  1
  C  C242  1  0.11520000  0.58470000  0.82170000  1
  C  C243  1  0.11760000  0.41510000  0.82670000  1
  C  C244  1  0.12540000  0.12630000  0.61120000  1
  C  C245  1  0.12630000  0.12540000  0.38880000  1
  C  C246  1  0.12630000  0.75160000  0.93920000  1
  C  C247  1  0.13320000  0.86410000  0.40180000  1
  C  C248  1  0.13350000  0.57310000  0.08960000  1
  C  C249  1  0.13490000  0.42790000  0.58170000  1
  C  C250  1  0.13590000  0.86680000  0.09820000  1
  C  C251  1  0.13750000  0.80710000  0.92320000  1
  C  C252  1  0.13770000  0.15520000  0.35640000  1
  C  C253  1  0.13820000  0.84390000  0.36730000  1
  C  C254  1  0.14140000  0.07440000  0.59200000  1
  C  C255  1  0.14250000  0.44750000  0.61970000  1
  C  C256  1  0.14410000  0.51830000  0.07160000  1
  C  C257  1  0.14720000  0.26660000  0.45100000  1
  C  C258  1  0.15520000  0.13770000  0.64360000  1
  C  C259  1  0.15530000  0.31360000  0.42610000  1
  C  C260  1  0.15610000  0.69960000  0.92590000  1
  C  C261  1  0.15610000  0.86180000  0.13270000  1
  C  C262  1  0.16080000  0.91330000  0.07670000  1
  C  C263  1  0.16160000  0.58300000  0.12400000  1
  C  C264  1  0.16990000  0.08130000  0.40620000  1
  C  C265  1  0.17080000  0.45190000  0.55500000  1
  C  C266  1  0.17200000  0.91550000  0.41690000  1
  C  C267  1  0.17930000  0.81170000  0.89470000  1
  C  C268  1  0.18540000  0.03360000  0.60500000  1
  C  C269  1  0.18540000  0.70400000  0.65120000  1
  C  C270  1  0.18640000  0.65530000  0.67610000  1
  C  C271  1  0.18830000  0.82070000  0.60530000  1
  C  C272  1  0.18920000  0.48560000  0.62920000  1
  C  C273  1  0.18960000  0.21850000  0.45060000  1
  C  C274  1  0.19010000  0.47980000  0.08330000  1
  C  C275  1  0.19290000  0.86250000  0.57680000  1
  C  C276  1  0.19590000  0.70540000  0.89640000  1
  C  C277  1  0.19960000  0.34390000  0.67590000  1
  C  C278  1  0.20010000  0.09870000  0.65690000  1
  C  C279  1  0.20400000  0.31460000  0.40120000  1
  C  C280  1  0.20540000  0.30410000  0.64640000  1
  C  C281  1  0.20700000  0.90060000  0.14430000  1
  C  C282  1  0.20800000  0.94830000  0.08770000  1
  C  C283  1  0.20840000  0.53940000  0.13410000  1
  C  C284  1  0.20930000  0.75930000  0.88040000  1
  C  C285  1  0.21760000  0.04800000  0.63710000  1
  C  C286  1  0.21850000  0.18960000  0.54940000  1
  C  C287  1  0.21880000  0.24080000  0.57480000  1
  C  C288  1  0.21960000  0.49260000  0.56540000  1
  C  C289  1  0.22460000  0.49120000  0.11290000  1
  C  C290  1  0.22820000  0.94940000  0.12350000  1
  C  C291  1  0.22970000  0.50920000  0.60160000  1
  C  C292  1  0.23340000  0.64720000  0.70100000  1
  C  C293  1  0.23550000  0.74540000  0.64870000  1
  C  C294  1  0.23560000  0.59270000  0.72540000  1
  C  C295  1  0.24070000  0.79070000  0.61960000  1
  C  C296  1  0.24080000  0.21880000  0.42520000  1
  C  C297  1  0.24260000  0.42120000  0.71990000  1
  C  C298  1  0.24540000  0.26450000  0.39870000  1
  C  C299  1  0.24840000  0.87370000  0.56080000  1
  C  C300  1  0.25160000  0.37370000  0.68920000  1
  C  C301  1  0.25460000  0.76450000  0.85130000  1
  C  C302  1  0.25740000  0.92120000  0.53010000  1
  C  C303  1  0.25920000  0.71880000  0.82480000  1
  C  C304  1  0.25930000  0.29070000  0.63040000  1
  C  C305  1  0.26440000  0.09270000  0.52460000  1
  C  C306  1  0.26450000  0.24540000  0.60130000  1
  C  C307  1  0.26660000  0.14720000  0.54900000  1
  C  C308  1  0.27030000  0.00920000  0.64840000  1
  C  C309  1  0.27180000  0.44940000  0.12650000  1
  C  C310  1  0.27540000  0.99120000  0.13710000  1
  C  C311  1  0.28040000  0.99260000  0.68460000  1
  C  C312  1  0.28120000  0.74080000  0.67520000  1
  C  C313  1  0.28150000  0.68960000  0.70060000  1
  C  C314  1  0.28240000  0.54800000  0.61290000  1
  C  C315  1  0.29070000  0.25930000  0.36960000  1
  C  C316  1  0.29160000  0.03940000  0.11590000  1
  C  C317  1  0.29200000  0.44830000  0.16230000  1
  C  C318  1  0.29300000  0.40060000  0.10570000  1
  C  C319  1  0.29460000  0.80410000  0.60360000  1
  C  C320  1  0.29600000  0.81460000  0.84880000  1
  C  C321  1  0.29990000  0.59870000  0.59310000  1
  C  C322  1  0.30040000  0.84390000  0.57410000  1
  C  C323  1  0.30410000  0.20540000  0.35360000  1
  C  C324  1  0.30710000  0.36250000  0.67320000  1
  C  C325  1  0.30990000  0.97980000  0.16670000  1
  C  C326  1  0.31040000  0.71850000  0.79940000  1
  C  C327  1  0.31080000  0.98560000  0.62080000  1
  C  C328  1  0.31170000  0.32070000  0.64470000  1
  C  C329  1  0.31360000  0.15530000  0.57390000  1
  C  C330  1  0.31460000  0.20400000  0.59880000  1
  C  C331  1  0.31460000  0.53360000  0.64500000  1
  C  C332  1  0.32070000  0.31170000  0.35530000  1
  C  C333  1  0.32800000  0.41550000  0.83310000  1
  C  C334  1  0.32920000  0.95190000  0.69500000  1
  C  C335  1  0.33010000  0.58130000  0.84380000  1
  C  C336  1  0.33840000  0.08300000  0.12600000  1
  C  C337  1  0.33920000  0.41330000  0.17330000  1
  C  C338  1  0.34390000  0.19960000  0.32410000  1
  C  C339  1  0.34390000  0.36180000  0.11730000  1
  C  C340  1  0.34470000  0.81360000  0.82390000  1
  C  C341  1  0.34480000  0.63770000  0.60640000  1
  C  C342  1  0.35280000  0.76660000  0.79900000  1
  C  C343  1  0.35590000  0.01830000  0.17840000  1
  C  C344  1  0.35750000  0.94750000  0.63030000  1
  C  C345  1  0.35860000  0.57440000  0.65800000  1
  C  C346  1  0.36180000  0.34390000  0.88270000  1
  C  C347  1  0.36230000  0.65520000  0.89360000  1
  C  C348  1  0.36250000  0.30710000  0.32680000  1
  C  C349  1  0.36410000  0.36680000  0.15180000  1
  C  C350  1  0.36510000  0.92790000  0.66830000  1
  C  C351  1  0.36650000  0.07310000  0.16040000  1
  C  C352  1  0.36680000  0.36410000  0.84820000  1
  C  C353  1  0.37370000  0.25160000  0.31080000  1
  C  C354  1  0.37370000  0.62540000  0.86120000  1
  C  C355  1  0.37460000  0.62630000  0.63880000  1
  C  C356  1  0.38240000  0.91510000  0.42330000  1
  C  C357  1  0.38480000  0.08470000  0.42830000  1
  C  C358  1  0.40060000  0.29300000  0.89430000  1
  C  C359  1  0.40130000  0.70010000  0.90690000  1
  C  C360  1  0.40730000  0.76440000  0.77460000  1
  C  C361  1  0.41330000  0.33920000  0.82670000  1
  C  C362  1  0.41510000  0.11760000  0.17330000  1
  C  C363  1  0.41530000  0.88480000  0.67830000  1
  C  C364  1  0.41550000  0.32800000  0.16690000  1
  C  C365  1  0.41700000  0.83840000  0.37600000  1
  C  C366  1  0.41870000  0.66990000  0.65620000  1
  C  C367  1  0.42120000  0.24260000  0.28010000  1
  C  C368  1  0.42560000  0.64140000  0.84200000  1
  C  C369  1  0.42690000  0.86650000  0.41040000  1
  C  C370  1  0.42790000  0.13490000  0.41830000  1
  C  C371  1  0.44750000  0.14250000  0.38030000  1
  C  C372  1  0.44830000  0.29200000  0.83770000  1
  C  C373  1  0.44940000  0.27180000  0.87350000  1
  C  C374  1  0.45190000  0.17080000  0.44500000  1
  C  C375  1  0.45200000  0.71760000  0.88710000  1
  C  C376  1  0.46060000  0.79160000  0.36590000  1
  C  C377  1  0.46640000  0.68540000  0.85500000  1
  C  C378  1  0.47980000  0.19010000  0.91670000  1
  C  C379  1  0.48170000  0.85590000  0.42840000  1
  C  C380  1  0.48560000  0.18920000  0.37080000  1
  C  C381  1  0.49080000  0.77030000  0.89840000  1
  C  C382  1  0.49120000  0.22460000  0.88710000  1
  C  C383  1  0.49260000  0.21960000  0.43460000  1
  C  C384  1  0.50740000  0.78040000  0.93460000  1
  C  C385  1  0.50880000  0.77540000  0.38710000  1
  C  C386  1  0.50920000  0.22970000  0.39840000  1
  C  C387  1  0.51440000  0.81080000  0.87080000  1
  C  C388  1  0.51830000  0.14410000  0.92840000  1
  C  C389  1  0.52020000  0.80990000  0.41670000  1
  C  C390  1  0.53360000  0.31460000  0.35500000  1
  C  C391  1  0.53940000  0.20840000  0.86590000  1
  C  C392  1  0.54800000  0.28240000  0.38710000  1
  C  C393  1  0.54810000  0.82920000  0.94500000  1
  C  C394  1  0.55060000  0.72820000  0.37350000  1
  C  C395  1  0.55170000  0.70800000  0.33770000  1
  C  C396  1  0.55250000  0.85750000  0.88030000  1
  C  C397  1  0.57210000  0.86510000  0.91830000  1
  C  C398  1  0.57310000  0.13350000  0.91040000  1
  C  C399  1  0.57440000  0.35860000  0.34200000  1
  C  C400  1  0.57880000  0.75740000  0.78010000  1
  C  C401  1  0.58130000  0.33010000  0.15620000  1
  C  C402  1  0.58300000  0.16160000  0.87600000  1
  C  C403  1  0.58450000  0.67200000  0.66690000  1
  C  C404  1  0.58470000  0.11520000  0.17830000  1
  C  C405  1  0.58490000  0.88240000  0.67330000  1
  C  C406  1  0.58670000  0.66080000  0.32670000  1
  C  C407  1  0.59270000  0.23560000  0.27460000  1
  C  C408  1  0.59870000  0.29990000  0.40690000  1
  C  C409  1  0.59940000  0.70700000  0.39430000  1
  C  C410  1  0.61520000  0.91530000  0.92830000  1
  C  C411  1  0.61760000  0.08490000  0.92330000  1
  C  C412  1  0.62540000  0.37370000  0.13880000  1
  C  C413  1  0.62630000  0.37460000  0.36120000  1
  C  C414  1  0.62630000  0.74840000  0.81080000  1
  C  C415  1  0.63320000  0.63590000  0.34820000  1
  C  C416  1  0.63350000  0.92690000  0.66040000  1
  C  C417  1  0.63490000  0.07210000  0.16830000  1
  C  C418  1  0.63590000  0.63320000  0.65180000  1
  C  C419  1  0.63750000  0.69290000  0.82680000  1
  C  C420  1  0.63770000  0.34480000  0.39360000  1
  C  C421  1  0.63820000  0.65610000  0.38270000  1
  C  C422  1  0.64140000  0.42560000  0.15800000  1
  C  C423  1  0.64250000  0.05250000  0.13030000  1
  C  C424  1  0.64410000  0.98170000  0.67840000  1
  C  C425  1  0.64720000  0.23340000  0.29900000  1
  C  C426  1  0.65520000  0.36230000  0.10640000  1
  C  C427  1  0.65530000  0.18640000  0.32390000  1
  C  C428  1  0.65610000  0.63820000  0.61730000  1
  C  C429  1  0.65610000  0.80040000  0.82410000  1
  C  C430  1  0.66080000  0.58670000  0.67330000  1
  C  C431  1  0.66160000  0.91700000  0.62600000  1
  C  C432  1  0.66990000  0.41870000  0.34380000  1
  C  C433  1  0.67080000  0.04810000  0.19500000  1
  C  C434  1  0.67200000  0.58450000  0.33310000  1
  C  C435  1  0.67930000  0.68830000  0.85530000  1
  C  C436  1  0.68540000  0.46640000  0.14500000  1
  C  C437  1  0.68540000  0.79600000  0.09880000  1
  C  C438  1  0.68640000  0.84470000  0.07390000  1
  C  C439  1  0.68830000  0.67930000  0.14470000  1
  C  C440  1  0.68920000  0.01440000  0.12080000  1
  C  C441  1  0.68960000  0.28150000  0.29940000  1
  C  C442  1  0.69010000  0.02020000  0.66666667  1
  C  C443  1  0.69290000  0.63750000  0.17320000  1
  C  C444  1  0.69590000  0.79460000  0.85360000  1
  C  C445  1  0.69960000  0.15610000  0.07410000  1
  C  C446  1  0.70010000  0.40130000  0.09310000  1
  C  C447  1  0.70400000  0.18540000  0.34880000  1
  C  C448  1  0.70540000  0.19590000  0.10360000  1
  C  C449  1  0.70700000  0.59940000  0.60570000  1
  C  C450  1  0.70800000  0.55170000  0.66230000  1
  C  C451  1  0.70840000  0.96060000  0.61590000  1
  C  C452  1  0.70930000  0.74070000  0.86960000  1
  C  C453  1  0.71760000  0.45200000  0.11290000  1
  C  C454  1  0.71850000  0.31040000  0.20060000  1
  C  C455  1  0.71880000  0.25920000  0.17520000  1
  C  C456  1  0.71960000  0.00740000  0.18460000  1
  C  C457  1  0.72460000  0.00880000  0.63710000  1
  C  C458  1  0.72820000  0.55060000  0.62650000  1
  C  C459  1  0.72970000  0.99080000  0.14840000  1
  C  C460  1  0.73340000  0.85280000  0.04900000  1
  C  C461  1  0.73550000  0.75460000  0.10130000  1
  C  C462  1  0.73560000  0.90730000  0.02460000  1
  C  C463  1  0.74070000  0.70930000  0.13040000  1
  C  C464  1  0.74080000  0.28120000  0.32480000  1
  C  C465  1  0.74260000  0.07880000  0.03010000  1
  C  C466  1  0.74540000  0.23550000  0.35130000  1
  C  C467  1  0.74840000  0.62630000  0.18920000  1
  C  C468  1  0.75160000  0.12630000  0.06080000  1
  C  C469  1  0.75460000  0.73550000  0.89870000  1
  C  C470  1  0.75740000  0.57880000  0.21990000  1
  C  C471  1  0.75920000  0.78120000  0.92520000  1
  C  C472  1  0.75930000  0.20930000  0.11960000  1
  C  C473  1  0.76440000  0.40730000  0.22540000  1
  C  C474  1  0.76450000  0.25460000  0.14870000  1
  C  C475  1  0.76660000  0.35280000  0.20100000  1
  C  C476  1  0.77030000  0.49080000  0.10160000  1
  C  C477  1  0.77180000  0.05060000  0.62350000  1
  C  C478  1  0.77540000  0.50880000  0.61290000  1
  C  C479  1  0.78040000  0.50740000  0.06540000  1
  C  C480  1  0.78120000  0.75920000  0.07480000  1
  C  C481  1  0.78150000  0.81040000  0.04940000  1
  C  C482  1  0.78240000  0.95200000  0.13710000  1
  C  C483  1  0.79070000  0.24070000  0.38040000  1
  C  C484  1  0.79160000  0.46060000  0.63410000  1
  C  C485  1  0.79200000  0.05170000  0.58770000  1
  C  C486  1  0.79300000  0.09940000  0.64430000  1
  C  C487  1  0.79460000  0.69590000  0.14640000  1
  C  C488  1  0.79600000  0.68540000  0.90120000  1
  C  C489  1  0.79990000  0.90130000  0.15690000  1
  C  C490  1  0.80040000  0.65610000  0.17590000  1
  C  C491  1  0.80410000  0.29460000  0.39640000  1
  C  C492  1  0.80710000  0.13750000  0.07680000  1
  C  C493  1  0.80990000  0.52020000  0.58330000  1
  C  C494  1  0.81040000  0.78150000  0.95060000  1
  C  C495  1  0.81080000  0.51440000  0.12920000  1
  C  C496  1  0.81170000  0.17930000  0.10530000  1
  C  C497  1  0.81360000  0.34470000  0.17610000  1
  C  C498  1  0.81460000  0.29600000  0.15120000  1
  C  C499  1  0.81460000  0.96640000  0.10500000  1
  C  C500  1  0.82070000  0.18830000  0.39470000  1
  C  C501  1  0.82800000  0.08450000  0.91690000  1
  C  C502  1  0.82920000  0.54810000  0.05500000  1
  C  C503  1  0.83010000  0.91870000  0.90620000  1
  C  C504  1  0.83840000  0.41700000  0.62400000  1
  C  C505  1  0.83920000  0.08670000  0.57670000  1
  C  C506  1  0.84390000  0.13820000  0.63270000  1
  C  C507  1  0.84390000  0.30040000  0.42590000  1
  C  C508  1  0.84470000  0.68640000  0.92610000  1
  C  C509  1  0.84480000  0.86230000  0.14360000  1
  C  C510  1  0.85280000  0.73340000  0.95100000  1
  C  C511  1  0.85590000  0.48170000  0.57160000  1
  C  C512  1  0.85750000  0.55250000  0.11970000  1
  C  C513  1  0.85860000  0.92560000  0.09200000  1
  C  C514  1  0.86180000  0.15610000  0.86730000  1
  C  C515  1  0.86230000  0.84480000  0.85640000  1
  C  C516  1  0.86250000  0.19290000  0.42320000  1
  C  C517  1  0.86410000  0.13320000  0.59820000  1
  C  C518  1  0.86510000  0.57210000  0.08170000  1
  C  C519  1  0.86650000  0.42690000  0.58960000  1
  C  C520  1  0.86680000  0.13590000  0.90180000  1
  C  C521  1  0.87370000  0.24840000  0.43920000  1
  C  C522  1  0.87370000  0.87460000  0.88880000  1
  C  C523  1  0.87460000  0.87370000  0.11120000  1
  C  C524  1  0.88240000  0.58490000  0.32670000  1
  C  C525  1  0.88480000  0.41530000  0.32170000  1
  C  C526  1  0.90060000  0.20700000  0.85570000  1
  C  C527  1  0.90130000  0.79990000  0.84310000  1
  C  C528  1  0.90730000  0.73560000  0.97540000  1
  C  C529  1  0.91330000  0.16080000  0.92330000  1
  C  C530  1  0.91510000  0.38240000  0.57670000  1
  C  C531  1  0.91530000  0.61520000  0.07170000  1
  C  C532  1  0.91550000  0.17200000  0.58310000  1
  C  C533  1  0.91700000  0.66160000  0.37400000  1
  C  C534  1  0.91870000  0.83010000  0.09380000  1
  C  C535  1  0.92120000  0.25740000  0.46990000  1
  C  C536  1  0.92560000  0.85860000  0.90800000  1
  C  C537  1  0.92690000  0.63350000  0.33960000  1
  C  C538  1  0.92790000  0.36510000  0.33170000  1
  C  C539  1  0.94750000  0.35750000  0.36970000  1
  C  C540  1  0.94830000  0.20800000  0.91230000  1
  C  C541  1  0.94940000  0.22820000  0.87650000  1
  C  C542  1  0.95190000  0.32920000  0.30500000  1
  C  C543  1  0.95200000  0.78240000  0.86290000  1
  C  C544  1  0.96060000  0.70840000  0.38410000  1
  C  C545  1  0.96640000  0.81460000  0.89500000  1
  C  C546  1  0.97980000  0.30990000  0.83330000  1
  C  C547  1  0.98170000  0.64410000  0.32160000  1
  C  C548  1  0.98560000  0.31080000  0.37920000  1
  C  C549  1  0.99080000  0.72970000  0.85160000  1
  C  C550  1  0.99120000  0.27540000  0.86290000  1
  C  C551  1  0.99260000  0.28040000  0.31540000  1
  O  O552  1  0.00230000  0.27320000  0.54486000  1
  O  O553  1  0.04870000  0.79040000  0.97960000  1
  O  O554  1  0.05800000  0.31030000  0.47510000  1
  O  O555  1  0.05910000  0.15580000  0.56280000  1
  O  O556  1  0.06090000  0.35240000  0.59760000  1
  O  O557  1  0.06250000  0.78890000  0.10550000  1
  O  O558  1  0.06330000  0.60780000  0.04530000  1
  O  O559  1  0.06780000  0.83840000  0.05020000  1
  O  O560  1  0.06860000  0.38530000  0.53730000  1
  O  O561  1  0.06880000  0.22100000  0.61100000  1
  O  O562  1  0.06990000  0.65720000  0.09880000  1
  O  O563  1  0.07280000  0.68990000  0.98340000  1
  O  O564  1  0.08410000  0.21600000  0.49390000  1
  O  O565  1  0.10780000  0.43670000  0.79530000  1
  O  O566  1  0.11470000  0.56860000  0.78730000  1
  O  O567  1  0.14760000  0.56090000  0.84760000  1
  O  O568  1  0.15580000  0.05910000  0.43720000  1
  O  O569  1  0.15720000  0.43010000  0.84880000  1
  O  O570  1  0.16160000  0.93220000  0.44980000  1
  O  O571  1  0.18970000  0.55800000  0.72510000  1
  O  O572  1  0.18990000  0.42720000  0.73340000  1
  O  O573  1  0.20960000  0.95130000  0.52040000  1
  O  O574  1  0.21110000  0.93750000  0.39450000  1
  O  O575  1  0.21600000  0.08410000  0.50610000  1
  O  O576  1  0.22100000  0.06880000  0.38900000  1
  O  O577  1  0.22680000  0.50230000  0.79486000  1
  O  O578  1  0.27320000  0.00230000  0.45514000  1
  O  O579  1  0.27900000  0.56880000  0.86100000  1
  O  O580  1  0.28400000  0.58410000  0.74390000  1
  O  O581  1  0.28890000  0.43750000  0.85550000  1
  O  O582  1  0.29040000  0.45130000  0.72960000  1
  O  O583  1  0.31010000  0.92720000  0.51660000  1
  O  O584  1  0.31030000  0.05800000  0.52490000  1
  O  O585  1  0.33840000  0.43220000  0.80020000  1
  O  O586  1  0.34280000  0.93010000  0.40120000  1
  O  O587  1  0.34420000  0.55910000  0.81280000  1
  O  O588  1  0.35240000  0.06090000  0.40240000  1
  O  O589  1  0.38530000  0.06860000  0.46270000  1
  O  O590  1  0.39220000  0.93670000  0.45470000  1
  O  O591  1  0.41590000  0.71600000  0.75610000  1
  O  O592  1  0.42720000  0.18990000  0.26660000  1
  O  O593  1  0.43010000  0.15720000  0.15120000  1
  O  O594  1  0.43120000  0.72100000  0.63900000  1
  O  O595  1  0.43140000  0.88530000  0.71270000  1
  O  O596  1  0.43220000  0.33840000  0.19980000  1
  O  O597  1  0.43670000  0.10780000  0.20470000  1
  O  O598  1  0.43750000  0.28890000  0.14450000  1
  O  O599  1  0.43910000  0.85240000  0.65240000  1
  O  O600  1  0.44090000  0.65580000  0.68720000  1
  O  O601  1  0.44200000  0.81030000  0.77490000  1
  O  O602  1  0.45130000  0.29040000  0.27040000  1
  O  O603  1  0.49770000  0.77320000  0.70514000  1
  O  O604  1  0.50230000  0.22680000  0.20514000  1
  O  O605  1  0.54870000  0.70960000  0.77040000  1
  O  O606  1  0.55800000  0.18970000  0.27490000  1
  O  O607  1  0.55910000  0.34420000  0.18720000  1
  O  O608  1  0.56090000  0.14760000  0.15240000  1
  O  O609  1  0.56250000  0.71110000  0.64450000  1
  O  O610  1  0.56330000  0.89220000  0.70470000  1
  O  O611  1  0.56780000  0.66160000  0.69980000  1
  O  O612  1  0.56860000  0.11470000  0.21270000  1
  O  O613  1  0.56880000  0.27900000  0.13900000  1
  O  O614  1  0.56990000  0.84280000  0.65120000  1
  O  O615  1  0.57280000  0.81010000  0.76660000  1
  O  O616  1  0.58410000  0.28400000  0.25610000  1
  O  O617  1  0.60780000  0.06330000  0.95470000  1
  O  O618  1  0.61470000  0.93140000  0.96270000  1
  O  O619  1  0.64760000  0.93910000  0.90240000  1
  O  O620  1  0.65580000  0.44090000  0.31280000  1
  O  O621  1  0.65720000  0.06990000  0.90120000  1
  O  O622  1  0.66160000  0.56780000  0.30020000  1
  O  O623  1  0.68970000  0.94200000  0.02490000  1
  O  O624  1  0.68990000  0.07280000  0.01660000  1
  O  O625  1  0.70960000  0.54870000  0.22960000  1
  O  O626  1  0.71110000  0.56250000  0.35550000  1
  O  O627  1  0.71600000  0.41590000  0.24390000  1
  O  O628  1  0.72100000  0.43120000  0.36100000  1
  O  O629  1  0.72680000  0.99770000  0.95514000  1
  O  O630  1  0.77320000  0.49770000  0.29486000  1
  O  O631  1  0.77900000  0.93120000  0.88900000  1
  O  O632  1  0.78400000  0.91590000  0.00610000  1
  O  O633  1  0.78890000  0.06250000  0.89450000  1
  O  O634  1  0.79040000  0.04870000  0.02040000  1
  O  O635  1  0.81010000  0.57280000  0.23340000  1
  O  O636  1  0.81030000  0.44200000  0.22510000  1
  O  O637  1  0.83840000  0.06780000  0.94980000  1
  O  O638  1  0.84280000  0.56990000  0.34880000  1
  O  O639  1  0.84420000  0.94090000  0.93720000  1
  O  O640  1  0.85240000  0.43910000  0.34760000  1
  O  O641  1  0.88530000  0.43140000  0.28730000  1
  O  O642  1  0.89220000  0.56330000  0.29530000  1
  O  O643  1  0.91590000  0.78400000  0.99390000  1
  O  O644  1  0.92720000  0.31010000  0.48340000  1
  O  O645  1  0.93010000  0.34280000  0.59880000  1
  O  O646  1  0.93120000  0.77900000  0.11100000  1
  O  O647  1  0.93140000  0.61470000  0.03730000  1
  O  O648  1  0.93220000  0.16160000  0.55020000  1
  O  O649  1  0.93670000  0.39220000  0.54530000  1
  O  O650  1  0.93750000  0.21110000  0.60550000  1
  O  O651  1  0.93910000  0.64760000  0.09760000  1
  O  O652  1  0.94090000  0.84420000  0.06280000  1
  O  O653  1  0.94200000  0.68970000  0.97510000  1
  O  O654  1  0.95130000  0.20960000  0.47960000  1
  O  O655  1  0.99770000  0.72680000  0.04486000  1
