# generated using pymatgen
data_ZnH10C17N3O4
_symmetry_space_group_name_H-M   'P 1'
_cell_length_a   14.02000000
_cell_length_b   15.08200000
_cell_length_c   15.12100000
_cell_angle_alpha   76.89200000
_cell_angle_beta   86.55000000
_cell_angle_gamma   83.44600000
_symmetry_Int_Tables_number   1
_chemical_formula_structural   ZnH10C17N3O4
_chemical_formula_sum   'Zn4 H40 C68 N12 O16'
_cell_volume   3091.72683272
_cell_formula_units_Z   4
loop_
 _symmetry_equiv_pos_site_id
 _symmetry_equiv_pos_as_xyz
  1  'x, y, z'
loop_
 _atom_site_type_symbol
 _atom_site_label
 _atom_site_symmetry_multiplicity
 _atom_site_fract_x
 _atom_site_fract_y
 _atom_site_fract_z
 _atom_site_occupancy
  Zn  Zn0  1  0.10194000  0.89015000  0.17082000  1
  Zn  Zn1  1  0.31219000  0.86984000  0.16444000  1
  Zn  Zn2  1  0.68781000  0.13016000  0.83556000  1
  Zn  Zn3  1  0.89806000  0.10985000  0.82918000  1
  H  H4  1  0.04920000  0.10510000  0.96300000  1
  H  H5  1  0.05820000  0.18820000  0.15600000  1
  H  H6  1  0.06070000  0.91910000  0.45510000  1
  H  H7  1  0.06450000  0.88980000  0.73970000  1
  H  H8  1  0.06670000  0.12250000  0.69930000  1
  H  H9  1  0.06720000  0.92810000  0.60350000  1
  H  H10  1  0.06770000  0.89770000  0.88830000  1
  H  H11  1  0.06980000  0.59970000  0.21520000  1
  H  H12  1  0.21040000  0.11720000  0.96640000  1
  H  H13  1  0.23120000  0.12410000  0.69680000  1
  H  H14  1  0.34230000  0.83170000  0.45540000  1
  H  H15  1  0.34300000  0.15050000  0.15940000  1
  H  H16  1  0.34460000  0.42160000  0.17260000  1
  H  H17  1  0.34570000  0.29730000  0.17590000  1
  H  H18  1  0.35610000  0.56950000  0.18100000  1
  H  H19  1  0.35730000  0.87420000  0.87280000  1
  H  H20  1  0.35910000  0.06380000  0.96670000  1
  H  H21  1  0.36440000  0.18780000  0.70150000  1
  H  H22  1  0.46980000  0.80890000  0.29360000  1
  H  H23  1  0.47460000  0.93330000  0.03450000  1
  H  H24  1  0.52540000  0.06670000  0.96550000  1
  H  H25  1  0.53020000  0.19110000  0.70640000  1
  H  H26  1  0.63560000  0.81220000  0.29850000  1
  H  H27  1  0.64090000  0.93620000  0.03330000  1
  H  H28  1  0.64270000  0.12580000  0.12720000  1
  H  H29  1  0.64390000  0.43050000  0.81900000  1
  H  H30  1  0.65430000  0.70270000  0.82410000  1
  H  H31  1  0.65540000  0.57840000  0.82740000  1
  H  H32  1  0.65700000  0.84950000  0.84060000  1
  H  H33  1  0.65770000  0.16830000  0.54460000  1
  H  H34  1  0.76880000  0.87590000  0.30320000  1
  H  H35  1  0.78960000  0.88280000  0.03360000  1
  H  H36  1  0.93020000  0.40030000  0.78480000  1
  H  H37  1  0.93230000  0.10230000  0.11170000  1
  H  H38  1  0.93280000  0.07190000  0.39650000  1
  H  H39  1  0.93330000  0.87750000  0.30070000  1
  H  H40  1  0.93550000  0.11020000  0.26030000  1
  H  H41  1  0.93930000  0.08090000  0.54490000  1
  H  H42  1  0.94180000  0.81180000  0.84400000  1
  H  H43  1  0.95080000  0.89490000  0.03700000  1
  C  C44  1  0.08680000  0.11080000  0.90810000  1
  C  C45  1  0.09720000  0.11940000  0.75450000  1
  C  C46  1  0.11840000  0.20960000  0.16070000  1
  C  C47  1  0.12000000  0.90300000  0.48490000  1
  C  C48  1  0.12330000  0.90670000  0.57300000  1
  C  C49  1  0.12430000  0.88850000  0.76660000  1
  C  C50  1  0.12660000  0.89180000  0.85460000  1
  C  C51  1  0.12810000  0.56420000  0.20450000  1
  C  C52  1  0.18300000  0.11600000  0.91080000  1
  C  C53  1  0.19500000  0.12150000  0.75230000  1
  C  C54  1  0.19870000  0.05600000  0.15000000  1
  C  C55  1  0.19950000  0.15100000  0.15840000  1
  C  C56  1  0.20030000  0.87400000  0.33920000  1
  C  C57  1  0.20090000  0.87640000  0.43760000  1
  C  C58  1  0.20320000  0.33080000  0.17680000  1
  C  C59  1  0.20400000  0.42820000  0.18510000  1
  C  C60  1  0.20630000  0.88020000  0.61850000  1
  C  C61  1  0.20880000  0.88320000  0.71540000  1
  C  C62  1  0.21200000  0.88680000  0.89720000  1
  C  C63  1  0.21390000  0.88770000  0.99580000  1
  C  C64  1  0.21440000  0.60700000  0.19220000  1
  C  C65  1  0.21920000  0.70520000  0.19000000  1
  C  C66  1  0.24080000  0.11970000  0.83250000  1
  C  C67  1  0.28390000  0.18740000  0.16290000  1
  C  C68  1  0.28510000  0.85140000  0.48550000  1
  C  C69  1  0.28570000  0.27490000  0.17240000  1
  C  C70  1  0.28770000  0.46050000  0.17960000  1
  C  C71  1  0.29450000  0.54830000  0.18380000  1
  C  C72  1  0.29730000  0.87950000  0.84490000  1
  C  C73  1  0.34520000  0.12310000  0.83230000  1
  C  C74  1  0.39310000  0.08890000  0.91210000  1
  C  C75  1  0.39630000  0.16200000  0.75660000  1
  C  C76  1  0.49220000  0.09180000  0.91110000  1
  C  C77  1  0.49560000  0.16390000  0.75980000  1
  C  C78  1  0.50440000  0.83610000  0.24020000  1
  C  C79  1  0.50780000  0.90820000  0.08890000  1
  C  C80  1  0.60370000  0.83800000  0.24340000  1
  C  C81  1  0.60690000  0.91110000  0.08790000  1
  C  C82  1  0.65480000  0.87690000  0.16770000  1
  C  C83  1  0.70270000  0.12050000  0.15510000  1
  C  C84  1  0.70550000  0.45170000  0.81620000  1
  C  C85  1  0.71230000  0.53950000  0.82040000  1
  C  C86  1  0.71430000  0.72510000  0.82760000  1
  C  C87  1  0.71490000  0.14860000  0.51450000  1
  C  C88  1  0.71610000  0.81260000  0.83710000  1
  C  C89  1  0.75920000  0.88030000  0.16750000  1
  C  C90  1  0.78080000  0.29480000  0.81000000  1
  C  C91  1  0.78560000  0.39300000  0.80780000  1
  C  C92  1  0.78610000  0.11230000  0.00420000  1
  C  C93  1  0.78800000  0.11320000  0.10280000  1
  C  C94  1  0.79120000  0.11680000  0.28460000  1
  C  C95  1  0.79370000  0.11980000  0.38150000  1
  C  C96  1  0.79600000  0.57180000  0.81490000  1
  C  C97  1  0.79680000  0.66920000  0.82320000  1
  C  C98  1  0.79910000  0.12360000  0.56240000  1
  C  C99  1  0.79970000  0.12600000  0.66080000  1
  C  C100  1  0.80050000  0.84900000  0.84160000  1
  C  C101  1  0.80130000  0.94400000  0.85000000  1
  C  C102  1  0.80500000  0.87850000  0.24770000  1
  C  C103  1  0.81700000  0.88400000  0.08920000  1
  C  C104  1  0.87190000  0.43580000  0.79550000  1
  C  C105  1  0.87340000  0.10820000  0.14540000  1
  C  C106  1  0.87570000  0.11150000  0.23340000  1
  C  C107  1  0.87670000  0.09330000  0.42700000  1
  C  C108  1  0.88000000  0.09700000  0.51510000  1
  C  C109  1  0.88160000  0.79040000  0.83930000  1
  C  C110  1  0.90280000  0.88060000  0.24550000  1
  C  C111  1  0.91320000  0.88920000  0.09190000  1
  N  N112  1  0.04320000  0.11340000  0.83080000  1
  N  N113  1  0.11940000  0.29850000  0.16950000  1
  N  N114  1  0.12450000  0.47900000  0.20200000  1
  N  N115  1  0.28700000  0.85470000  0.57240000  1
  N  N116  1  0.29600000  0.87990000  0.75480000  1
  N  N117  1  0.45740000  0.87130000  0.16420000  1
  N  N118  1  0.54260000  0.12870000  0.83580000  1
  N  N119  1  0.70400000  0.12010000  0.24520000  1
  N  N120  1  0.71300000  0.14530000  0.42760000  1
  N  N121  1  0.87550000  0.52100000  0.79800000  1
  N  N122  1  0.88060000  0.70150000  0.83050000  1
  N  N123  1  0.95680000  0.88660000  0.16920000  1
  O  O124  1  0.11850000  0.02660000  0.14630000  1
  O  O125  1  0.11990000  0.88840000  0.30320000  1
  O  O126  1  0.13430000  0.89130000  0.03800000  1
  O  O127  1  0.13890000  0.75280000  0.19750000  1
  O  O128  1  0.27750000  0.00800000  0.14970000  1
  O  O129  1  0.27900000  0.86010000  0.29880000  1
  O  O130  1  0.29410000  0.88630000  0.02880000  1
  O  O131  1  0.29850000  0.73540000  0.17930000  1
  O  O132  1  0.70150000  0.26460000  0.82070000  1
  O  O133  1  0.70590000  0.11370000  0.97120000  1
  O  O134  1  0.72100000  0.13990000  0.70120000  1
  O  O135  1  0.72250000  0.99200000  0.85030000  1
  O  O136  1  0.86110000  0.24720000  0.80250000  1
  O  O137  1  0.86570000  0.10870000  0.96200000  1
  O  O138  1  0.88010000  0.11160000  0.69680000  1
  O  O139  1  0.88150000  0.97340000  0.85370000  1
