# generated using pymatgen
data_LaCu3(CO2)9
_symmetry_space_group_name_H-M   'P 1'
_cell_length_a   17.52350000
_cell_length_b   17.52350000
_cell_length_c   17.52350000
_cell_angle_alpha   90.00000000
_cell_angle_beta   90.00000000
_cell_angle_gamma   90.00000000
_symmetry_Int_Tables_number   1
_chemical_formula_structural   LaCu3(CO2)9
_chemical_formula_sum   'La4 Cu12 C36 O72'
_cell_volume   5380.99463110
_cell_formula_units_Z   4
loop_
 _symmetry_equiv_pos_site_id
 _symmetry_equiv_pos_as_xyz
  1  'x, y, z'
loop_
 _atom_site_type_symbol
 _atom_site_label
 _atom_site_symmetry_multiplicity
 _atom_site_fract_x
 _atom_site_fract_y
 _atom_site_fract_z
 _atom_site_occupancy
  La  La0  1  0.10547000  0.10547000  0.10547000  1
  La  La1  1  0.39453000  0.89453000  0.60547000  1
  La  La2  1  0.60547000  0.39453000  0.89453000  1
  La  La3  1  0.89453000  0.60547000  0.39453000  1
  Cu  Cu4  1  0.00476000  0.41463000  0.14612000  1
  Cu  Cu5  1  0.08537000  0.85388000  0.50476000  1
  Cu  Cu6  1  0.14612000  0.00476000  0.41463000  1
  Cu  Cu7  1  0.35388000  0.99524000  0.91463000  1
  Cu  Cu8  1  0.41463000  0.14612000  0.00476000  1
  Cu  Cu9  1  0.49524000  0.58537000  0.64612000  1
  Cu  Cu10  1  0.50476000  0.08537000  0.85388000  1
  Cu  Cu11  1  0.58537000  0.64612000  0.49524000  1
  Cu  Cu12  1  0.64612000  0.49524000  0.58537000  1
  Cu  Cu13  1  0.85388000  0.50476000  0.08537000  1
  Cu  Cu14  1  0.91463000  0.35388000  0.99524000  1
  Cu  Cu15  1  0.99524000  0.91463000  0.35388000  1
  C  C16  1  0.00030000  0.02060000  0.24540000  1
  C  C17  1  0.01350000  0.27010000  0.08390000  1
  C  C18  1  0.02060000  0.24540000  0.00030000  1
  C  C19  1  0.08390000  0.01350000  0.27010000  1
  C  C20  1  0.09350000  0.29490000  0.11140000  1
  C  C21  1  0.11140000  0.09350000  0.29490000  1
  C  C22  1  0.20510000  0.88860000  0.59350000  1
  C  C23  1  0.22990000  0.91610000  0.51350000  1
  C  C24  1  0.24540000  0.00030000  0.02060000  1
  C  C25  1  0.25460000  0.99970000  0.52060000  1
  C  C26  1  0.27010000  0.08390000  0.01350000  1
  C  C27  1  0.29490000  0.11140000  0.09350000  1
  C  C28  1  0.38860000  0.90650000  0.79490000  1
  C  C29  1  0.40650000  0.70510000  0.61140000  1
  C  C30  1  0.41610000  0.98650000  0.77010000  1
  C  C31  1  0.47940000  0.75460000  0.50030000  1
  C  C32  1  0.48650000  0.72990000  0.58390000  1
  C  C33  1  0.49970000  0.97940000  0.74540000  1
  C  C34  1  0.50030000  0.47940000  0.75460000  1
  C  C35  1  0.51350000  0.22990000  0.91610000  1
  C  C36  1  0.52060000  0.25460000  0.99970000  1
  C  C37  1  0.58390000  0.48650000  0.72990000  1
  C  C38  1  0.59350000  0.20510000  0.88860000  1
  C  C39  1  0.61140000  0.40650000  0.70510000  1
  C  C40  1  0.70510000  0.61140000  0.40650000  1
  C  C41  1  0.72990000  0.58390000  0.48650000  1
  C  C42  1  0.74540000  0.49970000  0.97940000  1
  C  C43  1  0.75460000  0.50030000  0.47940000  1
  C  C44  1  0.77010000  0.41610000  0.98650000  1
  C  C45  1  0.79490000  0.38860000  0.90650000  1
  C  C46  1  0.88860000  0.59350000  0.20510000  1
  C  C47  1  0.90650000  0.79490000  0.38860000  1
  C  C48  1  0.91610000  0.51350000  0.22990000  1
  C  C49  1  0.97940000  0.74540000  0.49970000  1
  C  C50  1  0.98650000  0.77010000  0.41610000  1
  C  C51  1  0.99970000  0.52060000  0.25460000  1
  O  O52  1  0.00330000  0.70570000  0.37150000  1
  O  O53  1  0.01080000  0.78510000  0.54950000  1
  O  O54  1  0.01160000  0.55600000  0.31540000  1
  O  O55  1  0.03870000  0.82820000  0.40840000  1
  O  O56  1  0.04950000  0.48920000  0.21490000  1
  O  O57  1  0.05600000  0.18460000  0.98840000  1
  O  O58  1  0.09160000  0.96130000  0.32820000  1
  O  O59  1  0.10230000  0.36520000  0.12950000  1
  O  O60  1  0.11390000  0.14450000  0.24580000  1
  O  O61  1  0.12850000  0.99670000  0.20570000  1
  O  O62  1  0.12950000  0.10230000  0.36520000  1
  O  O63  1  0.13480000  0.87050000  0.60230000  1
  O  O64  1  0.14450000  0.24580000  0.11390000  1
  O  O65  1  0.17180000  0.90840000  0.46130000  1
  O  O66  1  0.18460000  0.98840000  0.05600000  1
  O  O67  1  0.20570000  0.12850000  0.99670000  1
  O  O68  1  0.21490000  0.04950000  0.48920000  1
  O  O69  1  0.24580000  0.11390000  0.14450000  1
  O  O70  1  0.25420000  0.88610000  0.64450000  1
  O  O71  1  0.28510000  0.95050000  0.98920000  1
  O  O72  1  0.29430000  0.87150000  0.49670000  1
  O  O73  1  0.31540000  0.01160000  0.55600000  1
  O  O74  1  0.32820000  0.09160000  0.96130000  1
  O  O75  1  0.35550000  0.75420000  0.61390000  1
  O  O76  1  0.36520000  0.12950000  0.10230000  1
  O  O77  1  0.37050000  0.89770000  0.86520000  1
  O  O78  1  0.37150000  0.00330000  0.70570000  1
  O  O79  1  0.38610000  0.85550000  0.74580000  1
  O  O80  1  0.39770000  0.63480000  0.62950000  1
  O  O81  1  0.40840000  0.03870000  0.82820000  1
  O  O82  1  0.44400000  0.81540000  0.48840000  1
  O  O83  1  0.45050000  0.51080000  0.71490000  1
  O  O84  1  0.46130000  0.17180000  0.90840000  1
  O  O85  1  0.48840000  0.44400000  0.81540000  1
  O  O86  1  0.48920000  0.21490000  0.04950000  1
  O  O87  1  0.49670000  0.29430000  0.87150000  1
  O  O88  1  0.50330000  0.79430000  0.62850000  1
  O  O89  1  0.51080000  0.71490000  0.45050000  1
  O  O90  1  0.51160000  0.94400000  0.68460000  1
  O  O91  1  0.53870000  0.67180000  0.59160000  1
  O  O92  1  0.54950000  0.01080000  0.78510000  1
  O  O93  1  0.55600000  0.31540000  0.01160000  1
  O  O94  1  0.59160000  0.53870000  0.67180000  1
  O  O95  1  0.60230000  0.13480000  0.87050000  1
  O  O96  1  0.61390000  0.35550000  0.75420000  1
  O  O97  1  0.62850000  0.50330000  0.79430000  1
  O  O98  1  0.62950000  0.39770000  0.63480000  1
  O  O99  1  0.63480000  0.62950000  0.39770000  1
  O  O100  1  0.64450000  0.25420000  0.88610000  1
  O  O101  1  0.67180000  0.59160000  0.53870000  1
  O  O102  1  0.68460000  0.51160000  0.94400000  1
  O  O103  1  0.70570000  0.37150000  0.00330000  1
  O  O104  1  0.71490000  0.45050000  0.51080000  1
  O  O105  1  0.74580000  0.38610000  0.85550000  1
  O  O106  1  0.75420000  0.61390000  0.35550000  1
  O  O107  1  0.78510000  0.54950000  0.01080000  1
  O  O108  1  0.79430000  0.62850000  0.50330000  1
  O  O109  1  0.81540000  0.48840000  0.44400000  1
  O  O110  1  0.82820000  0.40840000  0.03870000  1
  O  O111  1  0.85550000  0.74580000  0.38610000  1
  O  O112  1  0.86520000  0.37050000  0.89770000  1
  O  O113  1  0.87050000  0.60230000  0.13480000  1
  O  O114  1  0.87150000  0.49670000  0.29430000  1
  O  O115  1  0.88610000  0.64450000  0.25420000  1
  O  O116  1  0.89770000  0.86520000  0.37050000  1
  O  O117  1  0.90840000  0.46130000  0.17180000  1
  O  O118  1  0.94400000  0.68460000  0.51160000  1
  O  O119  1  0.95050000  0.98920000  0.28510000  1
  O  O120  1  0.96130000  0.32820000  0.09160000  1
  O  O121  1  0.98840000  0.05600000  0.18460000  1
  O  O122  1  0.98920000  0.28510000  0.95050000  1
  O  O123  1  0.99670000  0.20570000  0.12850000  1
