# generated using pymatgen
data_ZnH23C24SN6O7
_symmetry_space_group_name_H-M   'P 1'
_cell_length_a   9.69100000
_cell_length_b   14.15700000
_cell_length_c   16.05500000
_cell_angle_alpha   107.40800000
_cell_angle_beta   99.93700000
_cell_angle_gamma   104.26400000
_symmetry_Int_Tables_number   1
_chemical_formula_structural   ZnH23C24SN6O7
_chemical_formula_sum   'Zn2 H46 C48 S2 N12 O14'
_cell_volume   1963.43023098
_cell_formula_units_Z   2
loop_
 _symmetry_equiv_pos_site_id
 _symmetry_equiv_pos_as_xyz
  1  'x, y, z'
loop_
 _atom_site_type_symbol
 _atom_site_label
 _atom_site_symmetry_multiplicity
 _atom_site_fract_x
 _atom_site_fract_y
 _atom_site_fract_z
 _atom_site_occupancy
  Zn  Zn0  1  0.19200000  0.09103000  0.06024000  1
  Zn  Zn1  1  0.80800000  0.90897000  0.93976000  1
  H  H2  1  0.01860000  0.33050000  0.81060000  1
  H  H3  1  0.04320000  0.26630000  0.01380000  1
  H  H4  1  0.04800000  0.32360000  0.20300000  1
  H  H5  1  0.13040000  0.72740000  0.17480000  1
  H  H6  1  0.14420000  0.07830000  0.25680000  1
  H  H7  1  0.16870000  0.90540000  0.35090000  1
  H  H8  1  0.17400000  0.06890000  0.85100000  1
  H  H9  1  0.19250000  0.02500000  0.39430000  1
  H  H10  1  0.21450000  0.79130000  0.35580000  1
  H  H11  1  0.22060000  0.41970000  0.87480000  1
  H  H12  1  0.24710000  0.73920000  0.06590000  1
  H  H13  1  0.29250000  0.74700000  0.42220000  1
  H  H14  1  0.29870000  0.54050000  0.92110000  1
  H  H15  1  0.29920000  0.58300000  0.75180000  1
  H  H16  1  0.31990000  0.46680000  0.97480000  1
  H  H17  1  0.32750000  0.68550000  0.12200000  1
  H  H18  1  0.33050000  0.66460000  0.02090000  1
  H  H19  1  0.34400000  0.16820000  0.44460000  1
  H  H20  1  0.35570000  0.76050000  0.34140000  1
  H  H21  1  0.36210000  0.87790000  0.90790000  1
  H  H22  1  0.37200000  0.94180000  0.11670000  1
  H  H23  1  0.48320000  0.24070000  0.52480000  1
  H  H24  1  0.49990000  0.19740000  0.42630000  1
  H  H25  1  0.50010000  0.80260000  0.57370000  1
  H  H26  1  0.51680000  0.75930000  0.47520000  1
  H  H27  1  0.62800000  0.05820000  0.88330000  1
  H  H28  1  0.63790000  0.12210000  0.09210000  1
  H  H29  1  0.64430000  0.23950000  0.65860000  1
  H  H30  1  0.65600000  0.83180000  0.55540000  1
  H  H31  1  0.66950000  0.33540000  0.97910000  1
  H  H32  1  0.67250000  0.31450000  0.87800000  1
  H  H33  1  0.68010000  0.53320000  0.02520000  1
  H  H34  1  0.70080000  0.41700000  0.24820000  1
  H  H35  1  0.70130000  0.45950000  0.07890000  1
  H  H36  1  0.70750000  0.25300000  0.57780000  1
  H  H37  1  0.75290000  0.26080000  0.93410000  1
  H  H38  1  0.77940000  0.58030000  0.12520000  1
  H  H39  1  0.78550000  0.20870000  0.64420000  1
  H  H40  1  0.80750000  0.97500000  0.60570000  1
  H  H41  1  0.82600000  0.93110000  0.14900000  1
  H  H42  1  0.83130000  0.09460000  0.64910000  1
  H  H43  1  0.85580000  0.92170000  0.74320000  1
  H  H44  1  0.86960000  0.27260000  0.82520000  1
  H  H45  1  0.95200000  0.67640000  0.79700000  1
  H  H46  1  0.95680000  0.73370000  0.98620000  1
  H  H47  1  0.98140000  0.66950000  0.18940000  1
  C  C48  1  0.01250000  0.59220000  0.06730000  1
  C  C49  1  0.02660000  0.68970000  0.14530000  1
  C  C50  1  0.05370000  0.69110000  0.80680000  1
  C  C51  1  0.06640000  0.22820000  0.96310000  1
  C  C52  1  0.08590000  0.87440000  0.90360000  1
  C  C53  1  0.11140000  0.61370000  0.76900000  1
  C  C54  1  0.11860000  0.48960000  0.96500000  1
  C  C55  1  0.13150000  0.58480000  0.03240000  1
  C  C56  1  0.13580000  0.12230000  0.87420000  1
  C  C57  1  0.14730000  0.79050000  0.85920000  1
  C  C58  1  0.20390000  0.03870000  0.23710000  1
  C  C59  1  0.23770000  0.97440000  0.36600000  1
  C  C60  1  0.25160000  0.47810000  0.93080000  1
  C  C61  1  0.26160000  0.63500000  0.77960000  1
  C  C62  1  0.27210000  0.67700000  0.06310000  1
  C  C63  1  0.29860000  0.81140000  0.87200000  1
  C  C64  1  0.30800000  0.78950000  0.38580000  1
  C  C65  1  0.32730000  0.96400000  0.16250000  1
  C  C66  1  0.35590000  0.73470000  0.83210000  1
  C  C67  1  0.37690000  0.98680000  0.43320000  1
  C  C68  1  0.40470000  0.89940000  0.44580000  1
  C  C69  1  0.44770000  0.18200000  0.46880000  1
  C  C70  1  0.47290000  0.08710000  0.48570000  1
  C  C71  1  0.47920000  0.24060000  0.15460000  1
  C  C72  1  0.52080000  0.75940000  0.84540000  1
  C  C73  1  0.52710000  0.91290000  0.51430000  1
  C  C74  1  0.55230000  0.81800000  0.53120000  1
  C  C75  1  0.59530000  0.10060000  0.55420000  1
  C  C76  1  0.62310000  0.01320000  0.56680000  1
  C  C77  1  0.64410000  0.26530000  0.16790000  1
  C  C78  1  0.67270000  0.03600000  0.83750000  1
  C  C79  1  0.69200000  0.21050000  0.61420000  1
  C  C80  1  0.70140000  0.18860000  0.12800000  1
  C  C81  1  0.72790000  0.32300000  0.93690000  1
  C  C82  1  0.73840000  0.36500000  0.22040000  1
  C  C83  1  0.74840000  0.52190000  0.06920000  1
  C  C84  1  0.76230000  0.02560000  0.63400000  1
  C  C85  1  0.79610000  0.96130000  0.76290000  1
  C  C86  1  0.85270000  0.20950000  0.14080000  1
  C  C87  1  0.86420000  0.87770000  0.12580000  1
  C  C88  1  0.86850000  0.41520000  0.96760000  1
  C  C89  1  0.88140000  0.51040000  0.03500000  1
  C  C90  1  0.88860000  0.38630000  0.23100000  1
  C  C91  1  0.91410000  0.12560000  0.09640000  1
  C  C92  1  0.93360000  0.77180000  0.03690000  1
  C  C93  1  0.94630000  0.30890000  0.19320000  1
  C  C94  1  0.97340000  0.31030000  0.85470000  1
  C  C95  1  0.98750000  0.40780000  0.93270000  1
  S  S96  1  0.01130000  0.51418000  0.29761000  1
  S  S97  1  0.98870000  0.48582000  0.70239000  1
  N  N98  1  0.04370000  0.24140000  0.88480000  1
  N  N99  1  0.08660000  0.17260000  0.82550000  1
  N  N100  1  0.12690000  0.15340000  0.95990000  1
  N  N101  1  0.24110000  0.02560000  0.16020000  1
  N  N102  1  0.26270000  0.98800000  0.28200000  1
  N  N103  1  0.34230000  0.93840000  0.23400000  1
  N  N104  1  0.65770000  0.06160000  0.76600000  1
  N  N105  1  0.73730000  0.01200000  0.71800000  1
  N  N106  1  0.75890000  0.97440000  0.83980000  1
  N  N107  1  0.87310000  0.84660000  0.04010000  1
  N  N108  1  0.91340000  0.82740000  0.17450000  1
  N  N109  1  0.95630000  0.75860000  0.11520000  1
  O  O110  1  0.05130000  0.14420000  0.12350000  1
  O  O111  1  0.07530000  0.50540000  0.38250000  1
  O  O112  1  0.07610000  0.41710000  0.69370000  1
  O  O113  1  0.12080000  0.53740000  0.24940000  1
  O  O114  1  0.17450000  0.95560000  0.96440000  1
  O  O115  1  0.40250000  0.16500000  0.08340000  1
  O  O116  1  0.42930000  0.29240000  0.21130000  1
  O  O117  1  0.57070000  0.70760000  0.78870000  1
  O  O118  1  0.59750000  0.83500000  0.91660000  1
  O  O119  1  0.82550000  0.04440000  0.03560000  1
  O  O120  1  0.87920000  0.46260000  0.75060000  1
  O  O121  1  0.92390000  0.58290000  0.30630000  1
  O  O122  1  0.92470000  0.49460000  0.61750000  1
  O  O123  1  0.94870000  0.85580000  0.87650000  1
