# generated using pymatgen
data_Cu2H26C23(NO4)2
_symmetry_space_group_name_H-M   'P 1'
_cell_length_a   8.67700000
_cell_length_b   13.04200000
_cell_length_c   28.20100000
_cell_angle_alpha   90.00000000
_cell_angle_beta   90.00000000
_cell_angle_gamma   90.00000000
_symmetry_Int_Tables_number   1
_chemical_formula_structural   Cu2H26C23(NO4)2
_chemical_formula_sum   'Cu8 H104 C92 N8 O32'
_cell_volume   3191.37840423
_cell_formula_units_Z   4
loop_
 _symmetry_equiv_pos_site_id
 _symmetry_equiv_pos_as_xyz
  1  'x, y, z'
loop_
 _atom_site_type_symbol
 _atom_site_label
 _atom_site_symmetry_multiplicity
 _atom_site_fract_x
 _atom_site_fract_y
 _atom_site_fract_z
 _atom_site_occupancy
  Cu  Cu0  1  0.05074000  0.04656000  0.53877000  1
  Cu  Cu1  1  0.05074000  0.45344000  0.96123000  1
  Cu  Cu2  1  0.44926000  0.54656000  0.46123000  1
  Cu  Cu3  1  0.44926000  0.95344000  0.03877000  1
  Cu  Cu4  1  0.55074000  0.04656000  0.96123000  1
  Cu  Cu5  1  0.55074000  0.45344000  0.53877000  1
  Cu  Cu6  1  0.94926000  0.54656000  0.03877000  1
  Cu  Cu7  1  0.94926000  0.95344000  0.46123000  1
  H  H8  1  0.00580000  0.12790000  0.01240000  1
  H  H9  1  0.00580000  0.37210000  0.48760000  1
  H  H10  1  0.01640000  0.02450000  0.94260000  1
  H  H11  1  0.01640000  0.47550000  0.55740000  1
  H  H12  1  0.05250000  0.22820000  0.69630000  1
  H  H13  1  0.05250000  0.27180000  0.80370000  1
  H  H14  1  0.05740000  0.15990000  0.78320000  1
  H  H15  1  0.05740000  0.34010000  0.71680000  1
  H  H16  1  0.08620000  0.14240000  0.06180000  1
  H  H17  1  0.08620000  0.35760000  0.43820000  1
  H  H18  1  0.09990000  0.53580000  0.59810000  1
  H  H19  1  0.09990000  0.96420000  0.90190000  1
  H  H20  1  0.11840000  0.69250000  0.12810000  1
  H  H21  1  0.11840000  0.80750000  0.37190000  1
  H  H22  1  0.12160000  0.73300000  0.59030000  1
  H  H23  1  0.12160000  0.76700000  0.90970000  1
  H  H24  1  0.14810000  0.53570000  0.30680000  1
  H  H25  1  0.14810000  0.96430000  0.19320000  1
  H  H26  1  0.17150000  0.69390000  0.24020000  1
  H  H27  1  0.17150000  0.80610000  0.25980000  1
  H  H28  1  0.18620000  0.51620000  0.86480000  1
  H  H29  1  0.18620000  0.98380000  0.63520000  1
  H  H30  1  0.21510000  0.24700000  0.57170000  1
  H  H31  1  0.21510000  0.25300000  0.92830000  1
  H  H32  1  0.21680000  0.70940000  0.54450000  1
  H  H33  1  0.21680000  0.79060000  0.95550000  1
  H  H34  1  0.28320000  0.20940000  0.45550000  1
  H  H35  1  0.28320000  0.29060000  0.04450000  1
  H  H36  1  0.28490000  0.74700000  0.42830000  1
  H  H37  1  0.28490000  0.75300000  0.07170000  1
  H  H38  1  0.31380000  0.01620000  0.13520000  1
  H  H39  1  0.31380000  0.48380000  0.36480000  1
  H  H40  1  0.32850000  0.19390000  0.75980000  1
  H  H41  1  0.32850000  0.30610000  0.74020000  1
  H  H42  1  0.35190000  0.03570000  0.69320000  1
  H  H43  1  0.35190000  0.46430000  0.80680000  1
  H  H44  1  0.37840000  0.23300000  0.40970000  1
  H  H45  1  0.37840000  0.26700000  0.09030000  1
  H  H46  1  0.38160000  0.19250000  0.87190000  1
  H  H47  1  0.38160000  0.30750000  0.62810000  1
  H  H48  1  0.40010000  0.03580000  0.40190000  1
  H  H49  1  0.40010000  0.46420000  0.09810000  1
  H  H50  1  0.41380000  0.64240000  0.93820000  1
  H  H51  1  0.41380000  0.85760000  0.56180000  1
  H  H52  1  0.44260000  0.65990000  0.21680000  1
  H  H53  1  0.44260000  0.84010000  0.28320000  1
  H  H54  1  0.44750000  0.72820000  0.30370000  1
  H  H55  1  0.44750000  0.77180000  0.19630000  1
  H  H56  1  0.48360000  0.52450000  0.05740000  1
  H  H57  1  0.48360000  0.97550000  0.44260000  1
  H  H58  1  0.49420000  0.62790000  0.98760000  1
  H  H59  1  0.49420000  0.87210000  0.51240000  1
  H  H60  1  0.50580000  0.12790000  0.48760000  1
  H  H61  1  0.50580000  0.37210000  0.01240000  1
  H  H62  1  0.51640000  0.02450000  0.55740000  1
  H  H63  1  0.51640000  0.47550000  0.94260000  1
  H  H64  1  0.55250000  0.22820000  0.80370000  1
  H  H65  1  0.55250000  0.27180000  0.69630000  1
  H  H66  1  0.55740000  0.15990000  0.71680000  1
  H  H67  1  0.55740000  0.34010000  0.78320000  1
  H  H68  1  0.58620000  0.14240000  0.43820000  1
  H  H69  1  0.58620000  0.35760000  0.06180000  1
  H  H70  1  0.59990000  0.53580000  0.90190000  1
  H  H71  1  0.59990000  0.96420000  0.59810000  1
  H  H72  1  0.61840000  0.69250000  0.37190000  1
  H  H73  1  0.61840000  0.80750000  0.12810000  1
  H  H74  1  0.62160000  0.73300000  0.90970000  1
  H  H75  1  0.62160000  0.76700000  0.59030000  1
  H  H76  1  0.64810000  0.53570000  0.19320000  1
  H  H77  1  0.64810000  0.96430000  0.30680000  1
  H  H78  1  0.67150000  0.69390000  0.25980000  1
  H  H79  1  0.67150000  0.80610000  0.24020000  1
  H  H80  1  0.68620000  0.51620000  0.63520000  1
  H  H81  1  0.68620000  0.98380000  0.86480000  1
  H  H82  1  0.71510000  0.24700000  0.92830000  1
  H  H83  1  0.71510000  0.25300000  0.57170000  1
  H  H84  1  0.71680000  0.70940000  0.95550000  1
  H  H85  1  0.71680000  0.79060000  0.54450000  1
  H  H86  1  0.78320000  0.20940000  0.04450000  1
  H  H87  1  0.78320000  0.29060000  0.45550000  1
  H  H88  1  0.78490000  0.74700000  0.07170000  1
  H  H89  1  0.78490000  0.75300000  0.42830000  1
  H  H90  1  0.81380000  0.01620000  0.36480000  1
  H  H91  1  0.81380000  0.48380000  0.13520000  1
  H  H92  1  0.82850000  0.19390000  0.74020000  1
  H  H93  1  0.82850000  0.30610000  0.75980000  1
  H  H94  1  0.85190000  0.03570000  0.80680000  1
  H  H95  1  0.85190000  0.46430000  0.69320000  1
  H  H96  1  0.87840000  0.23300000  0.09030000  1
  H  H97  1  0.87840000  0.26700000  0.40970000  1
  H  H98  1  0.88160000  0.19250000  0.62810000  1
  H  H99  1  0.88160000  0.30750000  0.87190000  1
  H  H100  1  0.90010000  0.03580000  0.09810000  1
  H  H101  1  0.90010000  0.46420000  0.40190000  1
  H  H102  1  0.91380000  0.64240000  0.56180000  1
  H  H103  1  0.91380000  0.85760000  0.93820000  1
  H  H104  1  0.94260000  0.65990000  0.28320000  1
  H  H105  1  0.94260000  0.84010000  0.21680000  1
  H  H106  1  0.94750000  0.72820000  0.19630000  1
  H  H107  1  0.94750000  0.77180000  0.30370000  1
  H  H108  1  0.98360000  0.52450000  0.44260000  1
  H  H109  1  0.98360000  0.97550000  0.05740000  1
  H  H110  1  0.99420000  0.62790000  0.51240000  1
  H  H111  1  0.99420000  0.87210000  0.98760000  1
  C  C112  1  0.01070000  0.71530000  0.29266000  1
  C  C113  1  0.01070000  0.78470000  0.20734000  1
  C  C114  1  0.01250000  0.63280000  0.54630000  1
  C  C115  1  0.01250000  0.86720000  0.95370000  1
  C  C116  1  0.06200000  0.67480000  0.96516000  1
  C  C117  1  0.06200000  0.82520000  0.53484000  1
  C  C118  1  0.08610000  0.53190000  0.56397000  1
  C  C119  1  0.08610000  0.96810000  0.93603000  1
  C  C120  1  0.10550000  0.75000000  0.25000000  1
  C  C121  1  0.11390000  0.67910000  0.33250000  1
  C  C122  1  0.11390000  0.82090000  0.16750000  1
  C  C123  1  0.11410000  0.72440000  0.55622000  1
  C  C124  1  0.11410000  0.77560000  0.94378000  1
  C  C125  1  0.15670000  0.74110000  0.36956000  1
  C  C126  1  0.15670000  0.75890000  0.13044000  1
  C  C127  1  0.17460000  0.58040000  0.33117000  1
  C  C128  1  0.17460000  0.91960000  0.16883000  1
  C  C129  1  0.22580000  0.05000000  0.63370000  1
  C  C130  1  0.22580000  0.45000000  0.86630000  1
  C  C131  1  0.23940000  0.51040000  0.54100000  1
  C  C132  1  0.23940000  0.98960000  0.95900000  1
  C  C133  1  0.24250000  0.20390000  0.59660000  1
  C  C134  1  0.24250000  0.29610000  0.90340000  1
  C  C135  1  0.25750000  0.70390000  0.40340000  1
  C  C136  1  0.25750000  0.79610000  0.09660000  1
  C  C137  1  0.26060000  0.01040000  0.45900000  1
  C  C138  1  0.26060000  0.48960000  0.04100000  1
  C  C139  1  0.27420000  0.55000000  0.36630000  1
  C  C140  1  0.27420000  0.95000000  0.13370000  1
  C  C141  1  0.32540000  0.08040000  0.66883000  1
  C  C142  1  0.32540000  0.41960000  0.83117000  1
  C  C143  1  0.34330000  0.24110000  0.63044000  1
  C  C144  1  0.34330000  0.25890000  0.86956000  1
  C  C145  1  0.38590000  0.22440000  0.44378000  1
  C  C146  1  0.38590000  0.27560000  0.05622000  1
  C  C147  1  0.38610000  0.17910000  0.66750000  1
  C  C148  1  0.38610000  0.32090000  0.83250000  1
  C  C149  1  0.39450000  0.25000000  0.75000000  1
  C  C150  1  0.41390000  0.03190000  0.43603000  1
  C  C151  1  0.41390000  0.46810000  0.06397000  1
  C  C152  1  0.43800000  0.17480000  0.03484000  1
  C  C153  1  0.43800000  0.32520000  0.46516000  1
  C  C154  1  0.48750000  0.13280000  0.45370000  1
  C  C155  1  0.48750000  0.36720000  0.04630000  1
  C  C156  1  0.48930000  0.21530000  0.70734000  1
  C  C157  1  0.48930000  0.28470000  0.79266000  1
  C  C158  1  0.51070000  0.71530000  0.20734000  1
  C  C159  1  0.51070000  0.78470000  0.29266000  1
  C  C160  1  0.51250000  0.63280000  0.95370000  1
  C  C161  1  0.51250000  0.86720000  0.54630000  1
  C  C162  1  0.56200000  0.67480000  0.53484000  1
  C  C163  1  0.56200000  0.82520000  0.96516000  1
  C  C164  1  0.58610000  0.53190000  0.93603000  1
  C  C165  1  0.58610000  0.96810000  0.56397000  1
  C  C166  1  0.60550000  0.75000000  0.25000000  1
  C  C167  1  0.61390000  0.67910000  0.16750000  1
  C  C168  1  0.61390000  0.82090000  0.33250000  1
  C  C169  1  0.61410000  0.72440000  0.94378000  1
  C  C170  1  0.61410000  0.77560000  0.55622000  1
  C  C171  1  0.65670000  0.74110000  0.13044000  1
  C  C172  1  0.65670000  0.75890000  0.36956000  1
  C  C173  1  0.67460000  0.58040000  0.16883000  1
  C  C174  1  0.67460000  0.91960000  0.33117000  1
  C  C175  1  0.72580000  0.05000000  0.86630000  1
  C  C176  1  0.72580000  0.45000000  0.63370000  1
  C  C177  1  0.73940000  0.51040000  0.95900000  1
  C  C178  1  0.73940000  0.98960000  0.54100000  1
  C  C179  1  0.74250000  0.20390000  0.90340000  1
  C  C180  1  0.74250000  0.29610000  0.59660000  1
  C  C181  1  0.75750000  0.70390000  0.09660000  1
  C  C182  1  0.75750000  0.79610000  0.40340000  1
  C  C183  1  0.76060000  0.01040000  0.04100000  1
  C  C184  1  0.76060000  0.48960000  0.45900000  1
  C  C185  1  0.77420000  0.55000000  0.13370000  1
  C  C186  1  0.77420000  0.95000000  0.36630000  1
  C  C187  1  0.82540000  0.08040000  0.83117000  1
  C  C188  1  0.82540000  0.41960000  0.66883000  1
  C  C189  1  0.84330000  0.24110000  0.86956000  1
  C  C190  1  0.84330000  0.25890000  0.63044000  1
  C  C191  1  0.88590000  0.22440000  0.05622000  1
  C  C192  1  0.88590000  0.27560000  0.44378000  1
  C  C193  1  0.88610000  0.17910000  0.83250000  1
  C  C194  1  0.88610000  0.32090000  0.66750000  1
  C  C195  1  0.89450000  0.25000000  0.75000000  1
  C  C196  1  0.91390000  0.03190000  0.06397000  1
  C  C197  1  0.91390000  0.46810000  0.43603000  1
  C  C198  1  0.93800000  0.17480000  0.46516000  1
  C  C199  1  0.93800000  0.32520000  0.03484000  1
  C  C200  1  0.98750000  0.13280000  0.04630000  1
  C  C201  1  0.98750000  0.36720000  0.45370000  1
  C  C202  1  0.98930000  0.21530000  0.79266000  1
  C  C203  1  0.98930000  0.28470000  0.70734000  1
  N  N204  1  0.18220000  0.10970000  0.59747000  1
  N  N205  1  0.18220000  0.39030000  0.90253000  1
  N  N206  1  0.31780000  0.60970000  0.40253000  1
  N  N207  1  0.31780000  0.89030000  0.09747000  1
  N  N208  1  0.68220000  0.10970000  0.90253000  1
  N  N209  1  0.68220000  0.39030000  0.59747000  1
  N  N210  1  0.81780000  0.60970000  0.09747000  1
  N  N211  1  0.81780000  0.89030000  0.40253000  1
  O  O212  1  0.00580000  0.67531000  0.00574000  1
  O  O213  1  0.00580000  0.82469000  0.49426000  1
  O  O214  1  0.08490000  0.59599000  0.94026000  1
  O  O215  1  0.08490000  0.90401000  0.55974000  1
  O  O216  1  0.16010000  0.53600000  0.06487000  1
  O  O217  1  0.16010000  0.96400000  0.43513000  1
  O  O218  1  0.24230000  0.04032000  0.50076000  1
  O  O219  1  0.24230000  0.45968000  0.99924000  1
  O  O220  1  0.25770000  0.54032000  0.49924000  1
  O  O221  1  0.25770000  0.95968000  0.00076000  1
  O  O222  1  0.33990000  0.03600000  0.93513000  1
  O  O223  1  0.33990000  0.46400000  0.56487000  1
  O  O224  1  0.41510000  0.09599000  0.05974000  1
  O  O225  1  0.41510000  0.40401000  0.44026000  1
  O  O226  1  0.49420000  0.17531000  0.99426000  1
  O  O227  1  0.49420000  0.32469000  0.50574000  1
  O  O228  1  0.50580000  0.67531000  0.49426000  1
  O  O229  1  0.50580000  0.82469000  0.00574000  1
  O  O230  1  0.58490000  0.59599000  0.55974000  1
  O  O231  1  0.58490000  0.90401000  0.94026000  1
  O  O232  1  0.66010000  0.53600000  0.43513000  1
  O  O233  1  0.66010000  0.96400000  0.06487000  1
  O  O234  1  0.74230000  0.04032000  0.99924000  1
  O  O235  1  0.74230000  0.45968000  0.50076000  1
  O  O236  1  0.75770000  0.54032000  0.00076000  1
  O  O237  1  0.75770000  0.95968000  0.49924000  1
  O  O238  1  0.83990000  0.03600000  0.56487000  1
  O  O239  1  0.83990000  0.46400000  0.93513000  1
  O  O240  1  0.91510000  0.09599000  0.44026000  1
  O  O241  1  0.91510000  0.40401000  0.05974000  1
  O  O242  1  0.99420000  0.17531000  0.50574000  1
  O  O243  1  0.99420000  0.32469000  0.99426000  1
