# generated using pymatgen
data_Zn5H42C60(NO9)4
_symmetry_space_group_name_H-M   'P 1'
_cell_length_a   24.94200000
_cell_length_b   24.94200000
_cell_length_c   24.94200000
_cell_angle_alpha   90.00000000
_cell_angle_beta   90.00000000
_cell_angle_gamma   90.00000000
_symmetry_Int_Tables_number   1
_chemical_formula_structural   Zn5H42C60(NO9)4
_chemical_formula_sum   'Zn20 H168 C240 N16 O144'
_cell_volume   15516.50210489
_cell_formula_units_Z   4
loop_
 _symmetry_equiv_pos_site_id
 _symmetry_equiv_pos_as_xyz
  1  'x, y, z'
loop_
 _atom_site_type_symbol
 _atom_site_label
 _atom_site_symmetry_multiplicity
 _atom_site_fract_x
 _atom_site_fract_y
 _atom_site_fract_z
 _atom_site_occupancy
  Zn  Zn0  1  0.00000000  0.00000000  0.00000000  1
  Zn  Zn1  1  0.00000000  0.50000000  0.50000000  1
  Zn  Zn2  1  0.07886000  0.07886000  0.07886000  1
  Zn  Zn3  1  0.07886000  0.42114000  0.57886000  1
  Zn  Zn4  1  0.23183000  0.23183000  0.23183000  1
  Zn  Zn5  1  0.23183000  0.26817000  0.73183000  1
  Zn  Zn6  1  0.26817000  0.73183000  0.23183000  1
  Zn  Zn7  1  0.26817000  0.76817000  0.73183000  1
  Zn  Zn8  1  0.42114000  0.57886000  0.07886000  1
  Zn  Zn9  1  0.42114000  0.92114000  0.57886000  1
  Zn  Zn10  1  0.50000000  0.00000000  0.50000000  1
  Zn  Zn11  1  0.50000000  0.50000000  0.00000000  1
  Zn  Zn12  1  0.57886000  0.07886000  0.42114000  1
  Zn  Zn13  1  0.57886000  0.42114000  0.92114000  1
  Zn  Zn14  1  0.73183000  0.23183000  0.26817000  1
  Zn  Zn15  1  0.73183000  0.26817000  0.76817000  1
  Zn  Zn16  1  0.76817000  0.73183000  0.26817000  1
  Zn  Zn17  1  0.76817000  0.76817000  0.76817000  1
  Zn  Zn18  1  0.92114000  0.57886000  0.42114000  1
  Zn  Zn19  1  0.92114000  0.92114000  0.92114000  1
  H  H20  1  0.03870000  0.09550000  0.86980000  1
  H  H21  1  0.03870000  0.40450000  0.36980000  1
  H  H22  1  0.04360000  0.66310000  0.34600000  1
  H  H23  1  0.04360000  0.83690000  0.84600000  1
  H  H24  1  0.06970000  0.12810000  0.18540000  1
  H  H25  1  0.06970000  0.37190000  0.68540000  1
  H  H26  1  0.08530000  0.19640000  0.11640000  1
  H  H27  1  0.08530000  0.30360000  0.61640000  1
  H  H28  1  0.09550000  0.63020000  0.53870000  1
  H  H29  1  0.09550000  0.86980000  0.03870000  1
  H  H30  1  0.11470000  0.19330000  0.22650000  1
  H  H31  1  0.11470000  0.30670000  0.72650000  1
  H  H32  1  0.11640000  0.08530000  0.19640000  1
  H  H33  1  0.11640000  0.41470000  0.69640000  1
  H  H34  1  0.11800000  0.69090000  0.29720000  1
  H  H35  1  0.11800000  0.80910000  0.79720000  1
  H  H36  1  0.12810000  0.18540000  0.06970000  1
  H  H37  1  0.12810000  0.31460000  0.56970000  1
  H  H38  1  0.13020000  0.53870000  0.40450000  1
  H  H39  1  0.13020000  0.96130000  0.90450000  1
  H  H40  1  0.14680000  0.25000000  0.15250000  1
  H  H41  1  0.14680000  0.25000000  0.65250000  1
  H  H42  1  0.15250000  0.14680000  0.25000000  1
  H  H43  1  0.15250000  0.35320000  0.75000000  1
  H  H44  1  0.15400000  0.54360000  0.66310000  1
  H  H45  1  0.15400000  0.95640000  0.16310000  1
  H  H46  1  0.16310000  0.15400000  0.95640000  1
  H  H47  1  0.16310000  0.34600000  0.45640000  1
  H  H48  1  0.18540000  0.06970000  0.12810000  1
  H  H49  1  0.18540000  0.43030000  0.62810000  1
  H  H50  1  0.19090000  0.20280000  0.88200000  1
  H  H51  1  0.19090000  0.29720000  0.38200000  1
  H  H52  1  0.19330000  0.22650000  0.11470000  1
  H  H53  1  0.19330000  0.27350000  0.61470000  1
  H  H54  1  0.19640000  0.11640000  0.08530000  1
  H  H55  1  0.19640000  0.38360000  0.58530000  1
  H  H56  1  0.20280000  0.61800000  0.69090000  1
  H  H57  1  0.20280000  0.88200000  0.19090000  1
  H  H58  1  0.22650000  0.11470000  0.19330000  1
  H  H59  1  0.22650000  0.38530000  0.69330000  1
  H  H60  1  0.25000000  0.15250000  0.14680000  1
  H  H61  1  0.25000000  0.34750000  0.64680000  1
  H  H62  1  0.25000000  0.65250000  0.14680000  1
  H  H63  1  0.25000000  0.84750000  0.64680000  1
  H  H64  1  0.27350000  0.61470000  0.19330000  1
  H  H65  1  0.27350000  0.88530000  0.69330000  1
  H  H66  1  0.29720000  0.11800000  0.69090000  1
  H  H67  1  0.29720000  0.38200000  0.19090000  1
  H  H68  1  0.30360000  0.61640000  0.08530000  1
  H  H69  1  0.30360000  0.88360000  0.58530000  1
  H  H70  1  0.30670000  0.72650000  0.11470000  1
  H  H71  1  0.30670000  0.77350000  0.61470000  1
  H  H72  1  0.30910000  0.70280000  0.88200000  1
  H  H73  1  0.30910000  0.79720000  0.38200000  1
  H  H74  1  0.31460000  0.56970000  0.12810000  1
  H  H75  1  0.31460000  0.93030000  0.62810000  1
  H  H76  1  0.33690000  0.65400000  0.95640000  1
  H  H77  1  0.33690000  0.84600000  0.45640000  1
  H  H78  1  0.34600000  0.04360000  0.66310000  1
  H  H79  1  0.34600000  0.45640000  0.16310000  1
  H  H80  1  0.34750000  0.64680000  0.25000000  1
  H  H81  1  0.34750000  0.85320000  0.75000000  1
  H  H82  1  0.35320000  0.75000000  0.15250000  1
  H  H83  1  0.35320000  0.75000000  0.65250000  1
  H  H84  1  0.36980000  0.03870000  0.40450000  1
  H  H85  1  0.36980000  0.46130000  0.90450000  1
  H  H86  1  0.37190000  0.68540000  0.06970000  1
  H  H87  1  0.37190000  0.81460000  0.56970000  1
  H  H88  1  0.38200000  0.19090000  0.29720000  1
  H  H89  1  0.38200000  0.30910000  0.79720000  1
  H  H90  1  0.38360000  0.58530000  0.19640000  1
  H  H91  1  0.38360000  0.91470000  0.69640000  1
  H  H92  1  0.38530000  0.69330000  0.22650000  1
  H  H93  1  0.38530000  0.80670000  0.72650000  1
  H  H94  1  0.40450000  0.13020000  0.53870000  1
  H  H95  1  0.40450000  0.36980000  0.03870000  1
  H  H96  1  0.41470000  0.69640000  0.11640000  1
  H  H97  1  0.41470000  0.80360000  0.61640000  1
  H  H98  1  0.43030000  0.62810000  0.18540000  1
  H  H99  1  0.43030000  0.87190000  0.68540000  1
  H  H100  1  0.45640000  0.16310000  0.34600000  1
  H  H101  1  0.45640000  0.33690000  0.84600000  1
  H  H102  1  0.46130000  0.59550000  0.86980000  1
  H  H103  1  0.46130000  0.90450000  0.36980000  1
  H  H104  1  0.53870000  0.09550000  0.63020000  1
  H  H105  1  0.53870000  0.40450000  0.13020000  1
  H  H106  1  0.54360000  0.66310000  0.15400000  1
  H  H107  1  0.54360000  0.83690000  0.65400000  1
  H  H108  1  0.56970000  0.12810000  0.31460000  1
  H  H109  1  0.56970000  0.37190000  0.81460000  1
  H  H110  1  0.58530000  0.19640000  0.38360000  1
  H  H111  1  0.58530000  0.30360000  0.88360000  1
  H  H112  1  0.59550000  0.63020000  0.96130000  1
  H  H113  1  0.59550000  0.86980000  0.46130000  1
  H  H114  1  0.61470000  0.19330000  0.27350000  1
  H  H115  1  0.61470000  0.30670000  0.77350000  1
  H  H116  1  0.61640000  0.08530000  0.30360000  1
  H  H117  1  0.61640000  0.41470000  0.80360000  1
  H  H118  1  0.61800000  0.69090000  0.20280000  1
  H  H119  1  0.61800000  0.80910000  0.70280000  1
  H  H120  1  0.62810000  0.18540000  0.43030000  1
  H  H121  1  0.62810000  0.31460000  0.93030000  1
  H  H122  1  0.63020000  0.53870000  0.09550000  1
  H  H123  1  0.63020000  0.96130000  0.59550000  1
  H  H124  1  0.64680000  0.25000000  0.34750000  1
  H  H125  1  0.64680000  0.25000000  0.84750000  1
  H  H126  1  0.65250000  0.14680000  0.25000000  1
  H  H127  1  0.65250000  0.35320000  0.75000000  1
  H  H128  1  0.65400000  0.54360000  0.83690000  1
  H  H129  1  0.65400000  0.95640000  0.33690000  1
  H  H130  1  0.66310000  0.15400000  0.54360000  1
  H  H131  1  0.66310000  0.34600000  0.04360000  1
  H  H132  1  0.68540000  0.06970000  0.37190000  1
  H  H133  1  0.68540000  0.43030000  0.87190000  1
  H  H134  1  0.69090000  0.20280000  0.61800000  1
  H  H135  1  0.69090000  0.29720000  0.11800000  1
  H  H136  1  0.69330000  0.22650000  0.38530000  1
  H  H137  1  0.69330000  0.27350000  0.88530000  1
  H  H138  1  0.69640000  0.11640000  0.41470000  1
  H  H139  1  0.69640000  0.38360000  0.91470000  1
  H  H140  1  0.70280000  0.61800000  0.80910000  1
  H  H141  1  0.70280000  0.88200000  0.30910000  1
  H  H142  1  0.72650000  0.11470000  0.30670000  1
  H  H143  1  0.72650000  0.38530000  0.80670000  1
  H  H144  1  0.75000000  0.15250000  0.35320000  1
  H  H145  1  0.75000000  0.34750000  0.85320000  1
  H  H146  1  0.75000000  0.65250000  0.35320000  1
  H  H147  1  0.75000000  0.84750000  0.85320000  1
  H  H148  1  0.77350000  0.61470000  0.30670000  1
  H  H149  1  0.77350000  0.88530000  0.80670000  1
  H  H150  1  0.79720000  0.11800000  0.80910000  1
  H  H151  1  0.79720000  0.38200000  0.30910000  1
  H  H152  1  0.80360000  0.61640000  0.41470000  1
  H  H153  1  0.80360000  0.88360000  0.91470000  1
  H  H154  1  0.80670000  0.72650000  0.38530000  1
  H  H155  1  0.80670000  0.77350000  0.88530000  1
  H  H156  1  0.80910000  0.70280000  0.61800000  1
  H  H157  1  0.80910000  0.79720000  0.11800000  1
  H  H158  1  0.81460000  0.56970000  0.37190000  1
  H  H159  1  0.81460000  0.93030000  0.87190000  1
  H  H160  1  0.83690000  0.65400000  0.54360000  1
  H  H161  1  0.83690000  0.84600000  0.04360000  1
  H  H162  1  0.84600000  0.04360000  0.83690000  1
  H  H163  1  0.84600000  0.45640000  0.33690000  1
  H  H164  1  0.84750000  0.64680000  0.25000000  1
  H  H165  1  0.84750000  0.85320000  0.75000000  1
  H  H166  1  0.85320000  0.75000000  0.34750000  1
  H  H167  1  0.85320000  0.75000000  0.84750000  1
  H  H168  1  0.86980000  0.03870000  0.09550000  1
  H  H169  1  0.86980000  0.46130000  0.59550000  1
  H  H170  1  0.87190000  0.68540000  0.43030000  1
  H  H171  1  0.87190000  0.81460000  0.93030000  1
  H  H172  1  0.88200000  0.19090000  0.20280000  1
  H  H173  1  0.88200000  0.30910000  0.70280000  1
  H  H174  1  0.88360000  0.58530000  0.30360000  1
  H  H175  1  0.88360000  0.91470000  0.80360000  1
  H  H176  1  0.88530000  0.69330000  0.27350000  1
  H  H177  1  0.88530000  0.80670000  0.77350000  1
  H  H178  1  0.90450000  0.13020000  0.96130000  1
  H  H179  1  0.90450000  0.36980000  0.46130000  1
  H  H180  1  0.91470000  0.69640000  0.38360000  1
  H  H181  1  0.91470000  0.80360000  0.88360000  1
  H  H182  1  0.93030000  0.62810000  0.31460000  1
  H  H183  1  0.93030000  0.87190000  0.81460000  1
  H  H184  1  0.95640000  0.16310000  0.15400000  1
  H  H185  1  0.95640000  0.33690000  0.65400000  1
  H  H186  1  0.96130000  0.59550000  0.63020000  1
  H  H187  1  0.96130000  0.90450000  0.13020000  1
  C  C188  1  0.03092000  0.57813000  0.40791000  1
  C  C189  1  0.03092000  0.92187000  0.90791000  1
  C  C190  1  0.07005000  0.11694000  0.87229000  1
  C  C191  1  0.07005000  0.38306000  0.37229000  1
  C  C192  1  0.07622000  0.64352000  0.34795000  1
  C  C193  1  0.07622000  0.85648000  0.84795000  1
  C  C194  1  0.07813000  0.09209000  0.96908000  1
  C  C195  1  0.07813000  0.40791000  0.46908000  1
  C  C196  1  0.07948000  0.59769000  0.37937000  1
  C  C197  1  0.07948000  0.90231000  0.87937000  1
  C  C198  1  0.08835000  0.14449000  0.82816000  1
  C  C199  1  0.08835000  0.35551000  0.32816000  1
  C  C200  1  0.09209000  0.53092000  0.57813000  1
  C  C201  1  0.09209000  0.96908000  0.07813000  1
  C  C202  1  0.09769000  0.12063000  0.92052000  1
  C  C203  1  0.09769000  0.37937000  0.42052000  1
  C  C204  1  0.10875000  0.12173000  0.18271000  1
  C  C205  1  0.10875000  0.37827000  0.68271000  1
  C  C206  1  0.11694000  0.62771000  0.57005000  1
  C  C207  1  0.11694000  0.87229000  0.07005000  1
  C  C208  1  0.12058000  0.66036000  0.31972000  1
  C  C209  1  0.12058000  0.83964000  0.81972000  1
  C  C210  1  0.12063000  0.57948000  0.59769000  1
  C  C211  1  0.12063000  0.92052000  0.09769000  1
  C  C212  1  0.12173000  0.18271000  0.10875000  1
  C  C213  1  0.12173000  0.31729000  0.60875000  1
  C  C214  1  0.12771000  0.57005000  0.38306000  1
  C  C215  1  0.12771000  0.92995000  0.88306000  1
  C  C216  1  0.13353000  0.17627000  0.83141000  1
  C  C217  1  0.13353000  0.32373000  0.33141000  1
  C  C218  1  0.13910000  0.16360000  0.21661000  1
  C  C219  1  0.13910000  0.33640000  0.71661000  1
  C  C220  1  0.14352000  0.15205000  0.92378000  1
  C  C221  1  0.14352000  0.34795000  0.42378000  1
  C  C222  1  0.14449000  0.67184000  0.58835000  1
  C  C223  1  0.14449000  0.82816000  0.08835000  1
  C  C224  1  0.15205000  0.57622000  0.64352000  1
  C  C225  1  0.15205000  0.92378000  0.14352000  1
  C  C226  1  0.15425000  0.20609000  0.78372000  1
  C  C227  1  0.15425000  0.29391000  0.28372000  1
  C  C228  1  0.16036000  0.18028000  0.87942000  1
  C  C229  1  0.16036000  0.31972000  0.37942000  1
  C  C230  1  0.16360000  0.21661000  0.13910000  1
  C  C231  1  0.16360000  0.28339000  0.63910000  1
  C  C232  1  0.16859000  0.63353000  0.32373000  1
  C  C233  1  0.16859000  0.86647000  0.82373000  1
  C  C234  1  0.17184000  0.58835000  0.35551000  1
  C  C235  1  0.17184000  0.91165000  0.85551000  1
  C  C236  1  0.17627000  0.66859000  0.63353000  1
  C  C237  1  0.17627000  0.83141000  0.13353000  1
  C  C238  1  0.18028000  0.62058000  0.66036000  1
  C  C239  1  0.18028000  0.87942000  0.16036000  1
  C  C240  1  0.18271000  0.10875000  0.12173000  1
  C  C241  1  0.18271000  0.39125000  0.62173000  1
  C  C242  1  0.20609000  0.71628000  0.65425000  1
  C  C243  1  0.20609000  0.78372000  0.15425000  1
  C  C244  1  0.21628000  0.65425000  0.29391000  1
  C  C245  1  0.21628000  0.84575000  0.79391000  1
  C  C246  1  0.21661000  0.13910000  0.16360000  1
  C  C247  1  0.21661000  0.36090000  0.66360000  1
  C  C248  1  0.28339000  0.63910000  0.16360000  1
  C  C249  1  0.28339000  0.86090000  0.66360000  1
  C  C250  1  0.28372000  0.15425000  0.29391000  1
  C  C251  1  0.28372000  0.34575000  0.79391000  1
  C  C252  1  0.29391000  0.21628000  0.65425000  1
  C  C253  1  0.29391000  0.28372000  0.15425000  1
  C  C254  1  0.31729000  0.60875000  0.12173000  1
  C  C255  1  0.31729000  0.89125000  0.62173000  1
  C  C256  1  0.31972000  0.12058000  0.66036000  1
  C  C257  1  0.31972000  0.37942000  0.16036000  1
  C  C258  1  0.32373000  0.16859000  0.63353000  1
  C  C259  1  0.32373000  0.33141000  0.13353000  1
  C  C260  1  0.32816000  0.08835000  0.35551000  1
  C  C261  1  0.32816000  0.41165000  0.85551000  1
  C  C262  1  0.33141000  0.13353000  0.32373000  1
  C  C263  1  0.33141000  0.36647000  0.82373000  1
  C  C264  1  0.33640000  0.71661000  0.13910000  1
  C  C265  1  0.33640000  0.78339000  0.63910000  1
  C  C266  1  0.33964000  0.68028000  0.87942000  1
  C  C267  1  0.33964000  0.81972000  0.37942000  1
  C  C268  1  0.34575000  0.70609000  0.78372000  1
  C  C269  1  0.34575000  0.79391000  0.28372000  1
  C  C270  1  0.34795000  0.07622000  0.64352000  1
  C  C271  1  0.34795000  0.42378000  0.14352000  1
  C  C272  1  0.35551000  0.17184000  0.58835000  1
  C  C273  1  0.35551000  0.32816000  0.08835000  1
  C  C274  1  0.35648000  0.65205000  0.92378000  1
  C  C275  1  0.35648000  0.84795000  0.42378000  1
  C  C276  1  0.36090000  0.66360000  0.21661000  1
  C  C277  1  0.36090000  0.83640000  0.71661000  1
  C  C278  1  0.36647000  0.67627000  0.83141000  1
  C  C279  1  0.36647000  0.82373000  0.33141000  1
  C  C280  1  0.37229000  0.07005000  0.38306000  1
  C  C281  1  0.37229000  0.42995000  0.88306000  1
  C  C282  1  0.37827000  0.68271000  0.10875000  1
  C  C283  1  0.37827000  0.81729000  0.60875000  1
  C  C284  1  0.37937000  0.07948000  0.59769000  1
  C  C285  1  0.37937000  0.42052000  0.09769000  1
  C  C286  1  0.37942000  0.16036000  0.31972000  1
  C  C287  1  0.37942000  0.33964000  0.81972000  1
  C  C288  1  0.38306000  0.12771000  0.57005000  1
  C  C289  1  0.38306000  0.37229000  0.07005000  1
  C  C290  1  0.39125000  0.62173000  0.18271000  1
  C  C291  1  0.39125000  0.87827000  0.68271000  1
  C  C292  1  0.40231000  0.62063000  0.92052000  1
  C  C293  1  0.40231000  0.87937000  0.42052000  1
  C  C294  1  0.40791000  0.03092000  0.57813000  1
  C  C295  1  0.40791000  0.46908000  0.07813000  1
  C  C296  1  0.41165000  0.64449000  0.82816000  1
  C  C297  1  0.41165000  0.85551000  0.32816000  1
  C  C298  1  0.42052000  0.09769000  0.37937000  1
  C  C299  1  0.42052000  0.40231000  0.87937000  1
  C  C300  1  0.42187000  0.59209000  0.96908000  1
  C  C301  1  0.42187000  0.90791000  0.46908000  1
  C  C302  1  0.42378000  0.14352000  0.34795000  1
  C  C303  1  0.42378000  0.35648000  0.84795000  1
  C  C304  1  0.42995000  0.61694000  0.87229000  1
  C  C305  1  0.42995000  0.88306000  0.37229000  1
  C  C306  1  0.46908000  0.07813000  0.40791000  1
  C  C307  1  0.46908000  0.42187000  0.90791000  1
  C  C308  1  0.53092000  0.57813000  0.09209000  1
  C  C309  1  0.53092000  0.92187000  0.59209000  1
  C  C310  1  0.57005000  0.11694000  0.62771000  1
  C  C311  1  0.57005000  0.38306000  0.12771000  1
  C  C312  1  0.57622000  0.64352000  0.15205000  1
  C  C313  1  0.57622000  0.85648000  0.65205000  1
  C  C314  1  0.57813000  0.09209000  0.53092000  1
  C  C315  1  0.57813000  0.40791000  0.03092000  1
  C  C316  1  0.57948000  0.59769000  0.12063000  1
  C  C317  1  0.57948000  0.90231000  0.62063000  1
  C  C318  1  0.58835000  0.14449000  0.67184000  1
  C  C319  1  0.58835000  0.35551000  0.17184000  1
  C  C320  1  0.59209000  0.53092000  0.92187000  1
  C  C321  1  0.59209000  0.96908000  0.42187000  1
  C  C322  1  0.59769000  0.12063000  0.57948000  1
  C  C323  1  0.59769000  0.37937000  0.07948000  1
  C  C324  1  0.60875000  0.12173000  0.31729000  1
  C  C325  1  0.60875000  0.37827000  0.81729000  1
  C  C326  1  0.61694000  0.62771000  0.92995000  1
  C  C327  1  0.61694000  0.87229000  0.42995000  1
  C  C328  1  0.62058000  0.66036000  0.18028000  1
  C  C329  1  0.62058000  0.83964000  0.68028000  1
  C  C330  1  0.62063000  0.57948000  0.90231000  1
  C  C331  1  0.62063000  0.92052000  0.40231000  1
  C  C332  1  0.62173000  0.18271000  0.39125000  1
  C  C333  1  0.62173000  0.31729000  0.89125000  1
  C  C334  1  0.62771000  0.57005000  0.11694000  1
  C  C335  1  0.62771000  0.92995000  0.61694000  1
  C  C336  1  0.63353000  0.17627000  0.66859000  1
  C  C337  1  0.63353000  0.32373000  0.16859000  1
  C  C338  1  0.63910000  0.16360000  0.28339000  1
  C  C339  1  0.63910000  0.33640000  0.78339000  1
  C  C340  1  0.64352000  0.15205000  0.57622000  1
  C  C341  1  0.64352000  0.34795000  0.07622000  1
  C  C342  1  0.64449000  0.67184000  0.91165000  1
  C  C343  1  0.64449000  0.82816000  0.41165000  1
  C  C344  1  0.65205000  0.57622000  0.85648000  1
  C  C345  1  0.65205000  0.92378000  0.35648000  1
  C  C346  1  0.65425000  0.20609000  0.71628000  1
  C  C347  1  0.65425000  0.29391000  0.21628000  1
  C  C348  1  0.66036000  0.18028000  0.62058000  1
  C  C349  1  0.66036000  0.31972000  0.12058000  1
  C  C350  1  0.66360000  0.21661000  0.36090000  1
  C  C351  1  0.66360000  0.28339000  0.86090000  1
  C  C352  1  0.66859000  0.63353000  0.17627000  1
  C  C353  1  0.66859000  0.86647000  0.67627000  1
  C  C354  1  0.67184000  0.58835000  0.14449000  1
  C  C355  1  0.67184000  0.91165000  0.64449000  1
  C  C356  1  0.67627000  0.66859000  0.86647000  1
  C  C357  1  0.67627000  0.83141000  0.36647000  1
  C  C358  1  0.68028000  0.62058000  0.83964000  1
  C  C359  1  0.68028000  0.87942000  0.33964000  1
  C  C360  1  0.68271000  0.10875000  0.37827000  1
  C  C361  1  0.68271000  0.39125000  0.87827000  1
  C  C362  1  0.70609000  0.71628000  0.84575000  1
  C  C363  1  0.70609000  0.78372000  0.34575000  1
  C  C364  1  0.71628000  0.65425000  0.20609000  1
  C  C365  1  0.71628000  0.84575000  0.70609000  1
  C  C366  1  0.71661000  0.13910000  0.33640000  1
  C  C367  1  0.71661000  0.36090000  0.83640000  1
  C  C368  1  0.78339000  0.63910000  0.33640000  1
  C  C369  1  0.78339000  0.86090000  0.83640000  1
  C  C370  1  0.78372000  0.15425000  0.20609000  1
  C  C371  1  0.78372000  0.34575000  0.70609000  1
  C  C372  1  0.79391000  0.21628000  0.84575000  1
  C  C373  1  0.79391000  0.28372000  0.34575000  1
  C  C374  1  0.81729000  0.60875000  0.37827000  1
  C  C375  1  0.81729000  0.89125000  0.87827000  1
  C  C376  1  0.81972000  0.12058000  0.83964000  1
  C  C377  1  0.81972000  0.37942000  0.33964000  1
  C  C378  1  0.82373000  0.16859000  0.86647000  1
  C  C379  1  0.82373000  0.33141000  0.36647000  1
  C  C380  1  0.82816000  0.08835000  0.14449000  1
  C  C381  1  0.82816000  0.41165000  0.64449000  1
  C  C382  1  0.83141000  0.13353000  0.17627000  1
  C  C383  1  0.83141000  0.36647000  0.67627000  1
  C  C384  1  0.83640000  0.71661000  0.36090000  1
  C  C385  1  0.83640000  0.78339000  0.86090000  1
  C  C386  1  0.83964000  0.68028000  0.62058000  1
  C  C387  1  0.83964000  0.81972000  0.12058000  1
  C  C388  1  0.84575000  0.70609000  0.71628000  1
  C  C389  1  0.84575000  0.79391000  0.21628000  1
  C  C390  1  0.84795000  0.07622000  0.85648000  1
  C  C391  1  0.84795000  0.42378000  0.35648000  1
  C  C392  1  0.85551000  0.17184000  0.91165000  1
  C  C393  1  0.85551000  0.32816000  0.41165000  1
  C  C394  1  0.85648000  0.65205000  0.57622000  1
  C  C395  1  0.85648000  0.84795000  0.07622000  1
  C  C396  1  0.86090000  0.66360000  0.28339000  1
  C  C397  1  0.86090000  0.83640000  0.78339000  1
  C  C398  1  0.86647000  0.67627000  0.66859000  1
  C  C399  1  0.86647000  0.82373000  0.16859000  1
  C  C400  1  0.87229000  0.07005000  0.11694000  1
  C  C401  1  0.87229000  0.42995000  0.61694000  1
  C  C402  1  0.87827000  0.68271000  0.39125000  1
  C  C403  1  0.87827000  0.81729000  0.89125000  1
  C  C404  1  0.87937000  0.07948000  0.90231000  1
  C  C405  1  0.87937000  0.42052000  0.40231000  1
  C  C406  1  0.87942000  0.16036000  0.18028000  1
  C  C407  1  0.87942000  0.33964000  0.68028000  1
  C  C408  1  0.88306000  0.12771000  0.92995000  1
  C  C409  1  0.88306000  0.37229000  0.42995000  1
  C  C410  1  0.89125000  0.62173000  0.31729000  1
  C  C411  1  0.89125000  0.87827000  0.81729000  1
  C  C412  1  0.90231000  0.62063000  0.57948000  1
  C  C413  1  0.90231000  0.87937000  0.07948000  1
  C  C414  1  0.90791000  0.03092000  0.92187000  1
  C  C415  1  0.90791000  0.46908000  0.42187000  1
  C  C416  1  0.91165000  0.64449000  0.67184000  1
  C  C417  1  0.91165000  0.85551000  0.17184000  1
  C  C418  1  0.92052000  0.09769000  0.12063000  1
  C  C419  1  0.92052000  0.40231000  0.62063000  1
  C  C420  1  0.92187000  0.59209000  0.53092000  1
  C  C421  1  0.92187000  0.90791000  0.03092000  1
  C  C422  1  0.92378000  0.14352000  0.15205000  1
  C  C423  1  0.92378000  0.35648000  0.65205000  1
  C  C424  1  0.92995000  0.61694000  0.62771000  1
  C  C425  1  0.92995000  0.88306000  0.12771000  1
  C  C426  1  0.96908000  0.07813000  0.09209000  1
  C  C427  1  0.96908000  0.42187000  0.59209000  1
  N  N428  1  0.12591000  0.12591000  0.12591000  1
  N  N429  1  0.12591000  0.37409000  0.62591000  1
  N  N430  1  0.18471000  0.18471000  0.18471000  1
  N  N431  1  0.18471000  0.31529000  0.68471000  1
  N  N432  1  0.31529000  0.68471000  0.18471000  1
  N  N433  1  0.31529000  0.81529000  0.68471000  1
  N  N434  1  0.37409000  0.62591000  0.12591000  1
  N  N435  1  0.37409000  0.87409000  0.62591000  1
  N  N436  1  0.62591000  0.12591000  0.37409000  1
  N  N437  1  0.62591000  0.37409000  0.87409000  1
  N  N438  1  0.68471000  0.18471000  0.31529000  1
  N  N439  1  0.68471000  0.31529000  0.81529000  1
  N  N440  1  0.81529000  0.68471000  0.31529000  1
  N  N441  1  0.81529000  0.81529000  0.81529000  1
  N  N442  1  0.87409000  0.62591000  0.37409000  1
  N  N443  1  0.87409000  0.87409000  0.87409000  1
  O  O444  1  0.00958000  0.10986000  0.09296000  1
  O  O445  1  0.00958000  0.39014000  0.59296000  1
  O  O446  1  0.02140000  0.09200000  0.86850000  1
  O  O447  1  0.02140000  0.40800000  0.36850000  1
  O  O448  1  0.03105000  0.53320000  0.42921000  1
  O  O449  1  0.03105000  0.96680000  0.92921000  1
  O  O450  1  0.03320000  0.07079000  0.96895000  1
  O  O451  1  0.03320000  0.42921000  0.46895000  1
  O  O452  1  0.06184000  0.13716000  0.78047000  1
  O  O453  1  0.06184000  0.36284000  0.28047000  1
  O  O454  1  0.07079000  0.53105000  0.53320000  1
  O  O455  1  0.07079000  0.96895000  0.03320000  1
  O  O456  1  0.09200000  0.63150000  0.52140000  1
  O  O457  1  0.09200000  0.86850000  0.02140000  1
  O  O458  1  0.09296000  0.00958000  0.10986000  1
  O  O459  1  0.09296000  0.49042000  0.60986000  1
  O  O460  1  0.10986000  0.09296000  0.00958000  1
  O  O461  1  0.10986000  0.40704000  0.50958000  1
  O  O462  1  0.13150000  0.52140000  0.40800000  1
  O  O463  1  0.13150000  0.97860000  0.90800000  1
  O  O464  1  0.13203000  0.19993000  0.73898000  1
  O  O465  1  0.13203000  0.30007000  0.23898000  1
  O  O466  1  0.13716000  0.71953000  0.56184000  1
  O  O467  1  0.13716000  0.78047000  0.06184000  1
  O  O468  1  0.19374000  0.23711000  0.79179000  1
  O  O469  1  0.19374000  0.26289000  0.29179000  1
  O  O470  1  0.19993000  0.73898000  0.13203000  1
  O  O471  1  0.19993000  0.76102000  0.63203000  1
  O  O472  1  0.20821000  0.69374000  0.26289000  1
  O  O473  1  0.20821000  0.80626000  0.76289000  1
  O  O474  1  0.21953000  0.56184000  0.36284000  1
  O  O475  1  0.21953000  0.93816000  0.86284000  1
  O  O476  1  0.23711000  0.70821000  0.69374000  1
  O  O477  1  0.23711000  0.79179000  0.19374000  1
  O  O478  1  0.23898000  0.13203000  0.30007000  1
  O  O479  1  0.23898000  0.36797000  0.80007000  1
  O  O480  1  0.26102000  0.63203000  0.30007000  1
  O  O481  1  0.26102000  0.86797000  0.80007000  1
  O  O482  1  0.26289000  0.20821000  0.69374000  1
  O  O483  1  0.26289000  0.29179000  0.19374000  1
  O  O484  1  0.28047000  0.06184000  0.36284000  1
  O  O485  1  0.28047000  0.43816000  0.86284000  1
  O  O486  1  0.29179000  0.19374000  0.26289000  1
  O  O487  1  0.29179000  0.30626000  0.76289000  1
  O  O488  1  0.30007000  0.23898000  0.13203000  1
  O  O489  1  0.30007000  0.26102000  0.63203000  1
  O  O490  1  0.30626000  0.73711000  0.79179000  1
  O  O491  1  0.30626000  0.76289000  0.29179000  1
  O  O492  1  0.36284000  0.21953000  0.56184000  1
  O  O493  1  0.36284000  0.28047000  0.06184000  1
  O  O494  1  0.36797000  0.69993000  0.73898000  1
  O  O495  1  0.36797000  0.80007000  0.23898000  1
  O  O496  1  0.36850000  0.02140000  0.40800000  1
  O  O497  1  0.36850000  0.47860000  0.90800000  1
  O  O498  1  0.39014000  0.59296000  0.00958000  1
  O  O499  1  0.39014000  0.90704000  0.50958000  1
  O  O500  1  0.40704000  0.50958000  0.10986000  1
  O  O501  1  0.40704000  0.99042000  0.60986000  1
  O  O502  1  0.40800000  0.13150000  0.52140000  1
  O  O503  1  0.40800000  0.36850000  0.02140000  1
  O  O504  1  0.42921000  0.03105000  0.53320000  1
  O  O505  1  0.42921000  0.46895000  0.03320000  1
  O  O506  1  0.43816000  0.63716000  0.78047000  1
  O  O507  1  0.43816000  0.86284000  0.28047000  1
  O  O508  1  0.46680000  0.57079000  0.96895000  1
  O  O509  1  0.46680000  0.92921000  0.46895000  1
  O  O510  1  0.46895000  0.03320000  0.42921000  1
  O  O511  1  0.46895000  0.46680000  0.92921000  1
  O  O512  1  0.47860000  0.59200000  0.86850000  1
  O  O513  1  0.47860000  0.90800000  0.36850000  1
  O  O514  1  0.49042000  0.60986000  0.09296000  1
  O  O515  1  0.49042000  0.89014000  0.59296000  1
  O  O516  1  0.50958000  0.10986000  0.40704000  1
  O  O517  1  0.50958000  0.39014000  0.90704000  1
  O  O518  1  0.52140000  0.09200000  0.63150000  1
  O  O519  1  0.52140000  0.40800000  0.13150000  1
  O  O520  1  0.53105000  0.53320000  0.07079000  1
  O  O521  1  0.53105000  0.96680000  0.57079000  1
  O  O522  1  0.53320000  0.07079000  0.53105000  1
  O  O523  1  0.53320000  0.42921000  0.03105000  1
  O  O524  1  0.56184000  0.13716000  0.71953000  1
  O  O525  1  0.56184000  0.36284000  0.21953000  1
  O  O526  1  0.57079000  0.53105000  0.96680000  1
  O  O527  1  0.57079000  0.96895000  0.46680000  1
  O  O528  1  0.59200000  0.63150000  0.97860000  1
  O  O529  1  0.59200000  0.86850000  0.47860000  1
  O  O530  1  0.59296000  0.00958000  0.39014000  1
  O  O531  1  0.59296000  0.49042000  0.89014000  1
  O  O532  1  0.60986000  0.09296000  0.49042000  1
  O  O533  1  0.60986000  0.40704000  0.99042000  1
  O  O534  1  0.63150000  0.52140000  0.09200000  1
  O  O535  1  0.63150000  0.97860000  0.59200000  1
  O  O536  1  0.63203000  0.19993000  0.76102000  1
  O  O537  1  0.63203000  0.30007000  0.26102000  1
  O  O538  1  0.63716000  0.71953000  0.93816000  1
  O  O539  1  0.63716000  0.78047000  0.43816000  1
  O  O540  1  0.69374000  0.23711000  0.70821000  1
  O  O541  1  0.69374000  0.26289000  0.20821000  1
  O  O542  1  0.69993000  0.73898000  0.36797000  1
  O  O543  1  0.69993000  0.76102000  0.86797000  1
  O  O544  1  0.70821000  0.69374000  0.23711000  1
  O  O545  1  0.70821000  0.80626000  0.73711000  1
  O  O546  1  0.71953000  0.56184000  0.13716000  1
  O  O547  1  0.71953000  0.93816000  0.63716000  1
  O  O548  1  0.73711000  0.70821000  0.80626000  1
  O  O549  1  0.73711000  0.79179000  0.30626000  1
  O  O550  1  0.73898000  0.13203000  0.19993000  1
  O  O551  1  0.73898000  0.36797000  0.69993000  1
  O  O552  1  0.76102000  0.63203000  0.19993000  1
  O  O553  1  0.76102000  0.86797000  0.69993000  1
  O  O554  1  0.76289000  0.20821000  0.80626000  1
  O  O555  1  0.76289000  0.29179000  0.30626000  1
  O  O556  1  0.78047000  0.06184000  0.13716000  1
  O  O557  1  0.78047000  0.43816000  0.63716000  1
  O  O558  1  0.79179000  0.19374000  0.23711000  1
  O  O559  1  0.79179000  0.30626000  0.73711000  1
  O  O560  1  0.80007000  0.23898000  0.36797000  1
  O  O561  1  0.80007000  0.26102000  0.86797000  1
  O  O562  1  0.80626000  0.73711000  0.70821000  1
  O  O563  1  0.80626000  0.76289000  0.20821000  1
  O  O564  1  0.86284000  0.21953000  0.93816000  1
  O  O565  1  0.86284000  0.28047000  0.43816000  1
  O  O566  1  0.86797000  0.69993000  0.76102000  1
  O  O567  1  0.86797000  0.80007000  0.26102000  1
  O  O568  1  0.86850000  0.02140000  0.09200000  1
  O  O569  1  0.86850000  0.47860000  0.59200000  1
  O  O570  1  0.89014000  0.59296000  0.49042000  1
  O  O571  1  0.89014000  0.90704000  0.99042000  1
  O  O572  1  0.90704000  0.50958000  0.39014000  1
  O  O573  1  0.90704000  0.99042000  0.89014000  1
  O  O574  1  0.90800000  0.13150000  0.97860000  1
  O  O575  1  0.90800000  0.36850000  0.47860000  1
  O  O576  1  0.92921000  0.03105000  0.96680000  1
  O  O577  1  0.92921000  0.46895000  0.46680000  1
  O  O578  1  0.93816000  0.63716000  0.71953000  1
  O  O579  1  0.93816000  0.86284000  0.21953000  1
  O  O580  1  0.96680000  0.57079000  0.53105000  1
  O  O581  1  0.96680000  0.92921000  0.03105000  1
  O  O582  1  0.96895000  0.03320000  0.07079000  1
  O  O583  1  0.96895000  0.46680000  0.57079000  1
  O  O584  1  0.97860000  0.59200000  0.63150000  1
  O  O585  1  0.97860000  0.90800000  0.13150000  1
  O  O586  1  0.99042000  0.60986000  0.40704000  1
  O  O587  1  0.99042000  0.89014000  0.90704000  1
