# generated using pymatgen
data_NaH3(C3O)2
_symmetry_space_group_name_H-M   'P 1'
_cell_length_a   8.68800000
_cell_length_b   18.21860000
_cell_length_c   18.21860000
_cell_angle_alpha   120.00000000
_cell_angle_beta   90.00000000
_cell_angle_gamma   90.00000000
_symmetry_Int_Tables_number   1
_chemical_formula_structural   NaH3(C3O)2
_chemical_formula_sum   'Na12 H36 C72 O24'
_cell_volume   2497.35594067
_cell_formula_units_Z   12
loop_
 _symmetry_equiv_pos_site_id
 _symmetry_equiv_pos_as_xyz
  1  'x, y, z'
loop_
 _atom_site_type_symbol
 _atom_site_label
 _atom_site_symmetry_multiplicity
 _atom_site_fract_x
 _atom_site_fract_y
 _atom_site_fract_z
 _atom_site_occupancy
  Na  Na0  1  0.15494000  0.74092000  0.48895000  1
  Na  Na1  1  0.15701000  0.63835000  0.27479000  1
  Na  Na2  1  0.32161000  0.48895000  0.74803000  1
  Na  Na3  1  0.32368000  0.27479000  0.63644000  1
  Na  Na4  1  0.48828000  0.74803000  0.25908000  1
  Na  Na5  1  0.49035000  0.63644000  0.36165000  1
  Na  Na6  1  0.65494000  0.25908000  0.51105000  1
  Na  Na7  1  0.65701000  0.36165000  0.72521000  1
  Na  Na8  1  0.82161000  0.51105000  0.25197000  1
  Na  Na9  1  0.82368000  0.72521000  0.36356000  1
  Na  Na10  1  0.98828000  0.25197000  0.74092000  1
  Na  Na11  1  0.99035000  0.36356000  0.63835000  1
  H  H12  1  0.00137000  0.51170000  0.08650000  1
  H  H13  1  0.02520000  0.17720000  0.28490000  1
  H  H14  1  0.05017000  0.43590000  0.94360000  1
  H  H15  1  0.05280000  0.37850000  0.25380000  1
  H  H16  1  0.14037000  0.20750000  0.96440000  1
  H  H17  1  0.15640000  0.24530000  0.40840000  1
  H  H18  1  0.16803000  0.08650000  0.57480000  1
  H  H19  1  0.19187000  0.28490000  0.10770000  1
  H  H20  1  0.21683000  0.94360000  0.50770000  1
  H  H21  1  0.21947000  0.25380000  0.87530000  1
  H  H22  1  0.30703000  0.96440000  0.75690000  1
  H  H23  1  0.32307000  0.40840000  0.16310000  1
  H  H24  1  0.33470000  0.57480000  0.48830000  1
  H  H25  1  0.35853000  0.10770000  0.82280000  1
  H  H26  1  0.38350000  0.50770000  0.56410000  1
  H  H27  1  0.38613000  0.87530000  0.62150000  1
  H  H28  1  0.47370000  0.75690000  0.79250000  1
  H  H29  1  0.48973000  0.16310000  0.75470000  1
  H  H30  1  0.50137000  0.48830000  0.91350000  1
  H  H31  1  0.52520000  0.82280000  0.71510000  1
  H  H32  1  0.55017000  0.56410000  0.05640000  1
  H  H33  1  0.55280000  0.62150000  0.74620000  1
  H  H34  1  0.64037000  0.79250000  0.03560000  1
  H  H35  1  0.65640000  0.75470000  0.59160000  1
  H  H36  1  0.66803000  0.91350000  0.42520000  1
  H  H37  1  0.69187000  0.71510000  0.89230000  1
  H  H38  1  0.71683000  0.05640000  0.49230000  1
  H  H39  1  0.71947000  0.74620000  0.12470000  1
  H  H40  1  0.80703000  0.03560000  0.24310000  1
  H  H41  1  0.82307000  0.59160000  0.83690000  1
  H  H42  1  0.83470000  0.42520000  0.51170000  1
  H  H43  1  0.85853000  0.89230000  0.17720000  1
  H  H44  1  0.88350000  0.49230000  0.43590000  1
  H  H45  1  0.88613000  0.12470000  0.37850000  1
  H  H46  1  0.97370000  0.24310000  0.20750000  1
  H  H47  1  0.98973000  0.83690000  0.24530000  1
  C  C48  1  0.00493000  0.18162000  0.53834000  1
  C  C49  1  0.02563000  0.94699000  0.35658000  1
  C  C50  1  0.02780000  0.27210000  0.25820000  1
  C  C51  1  0.04443000  0.08883000  0.48415000  1
  C  C52  1  0.05900000  0.23240000  0.30470000  1
  C  C53  1  0.07510000  0.35292000  0.28577000  1
  C  C54  1  0.10813000  0.91269000  0.39949000  1
  C  C55  1  0.12933000  0.05213000  0.52054000  1
  C  C56  1  0.13760000  0.27282000  0.37793000  1
  C  C57  1  0.13933000  0.81851000  0.35910000  1
  C  C58  1  0.15850000  0.39886000  0.36303000  1
  C  C59  1  0.16013000  0.96565000  0.47990000  1
  C  C60  1  0.17160000  0.53834000  0.35672000  1
  C  C61  1  0.19230000  0.35658000  0.40959000  1
  C  C62  1  0.19447000  0.25820000  0.98610000  1
  C  C63  1  0.21110000  0.48415000  0.39532000  1
  C  C64  1  0.22567000  0.30470000  0.07230000  1
  C  C65  1  0.24177000  0.28577000  0.93285000  1
  C  C66  1  0.27480000  0.39949000  0.48680000  1
  C  C67  1  0.29600000  0.52054000  0.46841000  1
  C  C68  1  0.30427000  0.37793000  0.10511000  1
  C  C69  1  0.30600000  0.35910000  0.54059000  1
  C  C70  1  0.32517000  0.36303000  0.96417000  1
  C  C71  1  0.32680000  0.47990000  0.51425000  1
  C  C72  1  0.33827000  0.35672000  0.81838000  1
  C  C73  1  0.35897000  0.40959000  0.05301000  1
  C  C74  1  0.36113000  0.98610000  0.72790000  1
  C  C75  1  0.37777000  0.39532000  0.91117000  1
  C  C76  1  0.39233000  0.07230000  0.76760000  1
  C  C77  1  0.40843000  0.93285000  0.64708000  1
  C  C78  1  0.44147000  0.48680000  0.08731000  1
  C  C79  1  0.46267000  0.46841000  0.94787000  1
  C  C80  1  0.47093000  0.10511000  0.72718000  1
  C  C81  1  0.47267000  0.54059000  0.18149000  1
  C  C82  1  0.49183000  0.96417000  0.60114000  1
  C  C83  1  0.49347000  0.51425000  0.03435000  1
  C  C84  1  0.50493000  0.81838000  0.46166000  1
  C  C85  1  0.52563000  0.05301000  0.64342000  1
  C  C86  1  0.52780000  0.72790000  0.74180000  1
  C  C87  1  0.54443000  0.91117000  0.51585000  1
  C  C88  1  0.55900000  0.76760000  0.69530000  1
  C  C89  1  0.57510000  0.64708000  0.71423000  1
  C  C90  1  0.60813000  0.08731000  0.60051000  1
  C  C91  1  0.62933000  0.94787000  0.47946000  1
  C  C92  1  0.63760000  0.72718000  0.62207000  1
  C  C93  1  0.63933000  0.18149000  0.64090000  1
  C  C94  1  0.65850000  0.60114000  0.63697000  1
  C  C95  1  0.66013000  0.03435000  0.52010000  1
  C  C96  1  0.67160000  0.46166000  0.64328000  1
  C  C97  1  0.69230000  0.64342000  0.59041000  1
  C  C98  1  0.69447000  0.74180000  0.01390000  1
  C  C99  1  0.71110000  0.51585000  0.60468000  1
  C  C100  1  0.72567000  0.69530000  0.92770000  1
  C  C101  1  0.74177000  0.71423000  0.06715000  1
  C  C102  1  0.77480000  0.60051000  0.51320000  1
  C  C103  1  0.79600000  0.47946000  0.53159000  1
  C  C104  1  0.80427000  0.62207000  0.89489000  1
  C  C105  1  0.80600000  0.64090000  0.45941000  1
  C  C106  1  0.82517000  0.63697000  0.03583000  1
  C  C107  1  0.82680000  0.52010000  0.48575000  1
  C  C108  1  0.83827000  0.64328000  0.18162000  1
  C  C109  1  0.85897000  0.59041000  0.94699000  1
  C  C110  1  0.86113000  0.01390000  0.27210000  1
  C  C111  1  0.87777000  0.60468000  0.08883000  1
  C  C112  1  0.89233000  0.92770000  0.23240000  1
  C  C113  1  0.90843000  0.06715000  0.35292000  1
  C  C114  1  0.94147000  0.51320000  0.91269000  1
  C  C115  1  0.96267000  0.53159000  0.05213000  1
  C  C116  1  0.97093000  0.89489000  0.27282000  1
  C  C117  1  0.97267000  0.45941000  0.81851000  1
  C  C118  1  0.99183000  0.03583000  0.39886000  1
  C  C119  1  0.99347000  0.48575000  0.96565000  1
  O  O120  1  0.06447000  0.48498000  0.78413000  1
  O  O121  1  0.06560000  0.51750000  0.30420000  1
  O  O122  1  0.06673000  0.78050000  0.39003000  1
  O  O123  1  0.08083000  0.22335000  0.60571000  1
  O  O124  1  0.23113000  0.78413000  0.29915000  1
  O  O125  1  0.23227000  0.30420000  0.78670000  1
  O  O126  1  0.23340000  0.39003000  0.60953000  1
  O  O127  1  0.24750000  0.60571000  0.38236000  1
  O  O128  1  0.39780000  0.29915000  0.51502000  1
  O  O129  1  0.39893000  0.78670000  0.48250000  1
  O  O130  1  0.40007000  0.60953000  0.21950000  1
  O  O131  1  0.41417000  0.38236000  0.77665000  1
  O  O132  1  0.56447000  0.51502000  0.21587000  1
  O  O133  1  0.56560000  0.48250000  0.69580000  1
  O  O134  1  0.56673000  0.21950000  0.60997000  1
  O  O135  1  0.58083000  0.77665000  0.39429000  1
  O  O136  1  0.73113000  0.21587000  0.70085000  1
  O  O137  1  0.73227000  0.69580000  0.21330000  1
  O  O138  1  0.73340000  0.60997000  0.39047000  1
  O  O139  1  0.74750000  0.39429000  0.61764000  1
  O  O140  1  0.89780000  0.70085000  0.48498000  1
  O  O141  1  0.89893000  0.21330000  0.51750000  1
  O  O142  1  0.90007000  0.39047000  0.78050000  1
  O  O143  1  0.91417000  0.61764000  0.22335000  1
