# generated using pymatgen
data_MgH3C7NO4
_symmetry_space_group_name_H-M   'P 1'
_cell_length_a   11.47990000
_cell_length_b   11.47990000
_cell_length_c   14.73500000
_cell_angle_alpha   90.00000000
_cell_angle_beta   90.00000000
_cell_angle_gamma   120.00000000
_symmetry_Int_Tables_number   1
_chemical_formula_structural   MgH3C7NO4
_chemical_formula_sum   'Mg6 H18 C42 N6 O24'
_cell_volume   1681.73275065
_cell_formula_units_Z   6
loop_
 _symmetry_equiv_pos_site_id
 _symmetry_equiv_pos_as_xyz
  1  'x, y, z'
loop_
 _atom_site_type_symbol
 _atom_site_label
 _atom_site_symmetry_multiplicity
 _atom_site_fract_x
 _atom_site_fract_y
 _atom_site_fract_z
 _atom_site_occupancy
  Mg  Mg0  1  0.80619000  0.19380000  0.41667000  1
  Mg  Mg1  1  0.80619000  0.61239000  0.75000000  1
  Mg  Mg2  1  0.61239000  0.80620000  0.58333000  1
  Mg  Mg3  1  0.38761000  0.19380000  0.08333000  1
  Mg  Mg4  1  0.19380000  0.38761000  0.25000000  1
  Mg  Mg5  1  0.19380000  0.80620000  0.91667000  1
  H  H6  1  0.98700000  0.49350000  0.08333000  1
  H  H7  1  0.79500000  0.36250000  0.65217000  1
  H  H8  1  0.79500000  0.43250000  0.51450000  1
  H  H9  1  0.63750000  0.20500000  0.18117000  1
  H  H10  1  0.63750000  0.43250000  0.98550000  1
  H  H11  1  0.56750000  0.20500000  0.31883000  1
  H  H12  1  0.56750000  0.36250000  0.84783000  1
  H  H13  1  0.50650000  0.01300000  0.75000000  1
  H  H14  1  0.50650000  0.49350000  0.41667000  1
  H  H15  1  0.49350000  0.50650000  0.91667000  1
  H  H16  1  0.49350000  0.98700000  0.25000000  1
  H  H17  1  0.43250000  0.63750000  0.34783000  1
  H  H18  1  0.43250000  0.79500000  0.81883000  1
  H  H19  1  0.36250000  0.56750000  0.48550000  1
  H  H20  1  0.36250000  0.79500000  0.68117000  1
  H  H21  1  0.20500000  0.56750000  0.01450000  1
  H  H22  1  0.20500000  0.63750000  0.15217000  1
  H  H23  1  0.01300000  0.50650000  0.58333000  1
  C  C24  1  0.89760000  0.31811000  0.22083000  1
  C  C25  1  0.89760000  0.57949000  0.94584000  1
  C  C26  1  0.89336000  0.44668000  0.08333000  1
  C  C27  1  0.82368000  0.34719000  0.14747000  1
  C  C28  1  0.82368000  0.47649000  0.01920000  1
  C  C29  1  0.72283000  0.31519000  0.69141000  1
  C  C30  1  0.72283000  0.40764000  0.47526000  1
  C  C31  1  0.68481000  0.27717000  0.14193000  1
  C  C32  1  0.68481000  0.40764000  0.02474000  1
  C  C33  1  0.68189000  0.10240000  0.61251000  1
  C  C34  1  0.68189000  0.57949000  0.55416000  1
  C  C35  1  0.65281000  0.17632000  0.68587000  1
  C  C36  1  0.65281000  0.47649000  0.48080000  1
  C  C37  1  0.59236000  0.27717000  0.35807000  1
  C  C38  1  0.59236000  0.31519000  0.80859000  1
  C  C39  1  0.57949000  0.68189000  0.77917000  1
  C  C40  1  0.57949000  0.89760000  0.38749000  1
  C  C41  1  0.55332000  0.10664000  0.75000000  1
  C  C42  1  0.55332000  0.44668000  0.41667000  1
  C  C43  1  0.52351000  0.17632000  0.81413000  1
  C  C44  1  0.52351000  0.34719000  0.35253000  1
  C  C45  1  0.47649000  0.65281000  0.85253000  1
  C  C46  1  0.47649000  0.82368000  0.31413000  1
  C  C47  1  0.44668000  0.55332000  0.91667000  1
  C  C48  1  0.44668000  0.89336000  0.25000000  1
  C  C49  1  0.42051000  0.10240000  0.88749000  1
  C  C50  1  0.42051000  0.31811000  0.27917000  1
  C  C51  1  0.40764000  0.68481000  0.30859000  1
  C  C52  1  0.40764000  0.72283000  0.85807000  1
  C  C53  1  0.34719000  0.52351000  0.98080000  1
  C  C54  1  0.34719000  0.82368000  0.18587000  1
  C  C55  1  0.31811000  0.42051000  0.05416000  1
  C  C56  1  0.31811000  0.89760000  0.11251000  1
  C  C57  1  0.31519000  0.59236000  0.52474000  1
  C  C58  1  0.31519000  0.72283000  0.64193000  1
  C  C59  1  0.27717000  0.59236000  0.97526000  1
  C  C60  1  0.27717000  0.68481000  0.19141000  1
  C  C61  1  0.17632000  0.52351000  0.51920000  1
  C  C62  1  0.17632000  0.65281000  0.64747000  1
  C  C63  1  0.10664000  0.55332000  0.58333000  1
  C  C64  1  0.10240000  0.42051000  0.44584000  1
  C  C65  1  0.10240000  0.68189000  0.72083000  1
  N  N66  1  0.69287000  0.30713000  0.41667000  1
  N  N67  1  0.69287000  0.38574000  0.75000000  1
  N  N68  1  0.61426000  0.30713000  0.08333000  1
  N  N69  1  0.38574000  0.69287000  0.58333000  1
  N  N70  1  0.30713000  0.61426000  0.25000000  1
  N  N71  1  0.30713000  0.69287000  0.91667000  1
  O  O72  1  0.97760000  0.36650000  0.44688000  1
  O  O73  1  0.97760000  0.61110000  0.71979000  1
  O  O74  1  0.82795000  0.22731000  0.27661000  1
  O  O75  1  0.82795000  0.60064000  0.89006000  1
  O  O76  1  0.77269000  0.17205000  0.55673000  1
  O  O77  1  0.77269000  0.60064000  0.60994000  1
  O  O78  1  0.63350000  0.02240000  0.38645000  1
  O  O79  1  0.63350000  0.61110000  0.78021000  1
  O  O80  1  0.61110000  0.63350000  0.55312000  1
  O  O81  1  0.61110000  0.97760000  0.61355000  1
  O  O82  1  0.60064000  0.77269000  0.72339000  1
  O  O83  1  0.60064000  0.82795000  0.44327000  1
  O  O84  1  0.39936000  0.17205000  0.94327000  1
  O  O85  1  0.39936000  0.22731000  0.22339000  1
  O  O86  1  0.38890000  0.02240000  0.11355000  1
  O  O87  1  0.38890000  0.36650000  0.05312000  1
  O  O88  1  0.36650000  0.38890000  0.28021000  1
  O  O89  1  0.36650000  0.97760000  0.88645000  1
  O  O90  1  0.22731000  0.39936000  0.10994000  1
  O  O91  1  0.22731000  0.82795000  0.05673000  1
  O  O92  1  0.17205000  0.39936000  0.39006000  1
  O  O93  1  0.17205000  0.77269000  0.77661000  1
  O  O94  1  0.02240000  0.38890000  0.21979000  1
  O  O95  1  0.02240000  0.63350000  0.94688000  1
