data_I
_chemical_name_common  'CGCNN_MT\data\TSD\clean_cifs\DONNAW01_SL'
_cell_length_a 17.43700
_cell_length_b  6.74750
_cell_length_c 12.15410
_cell_angle_alpha 90.00000
_cell_angle_beta  90.00000
_cell_angle_gamma 90.00000
_space_group_name_H-M_alt      'P 1'


loop_
_space_group_symop_operation_xyz
  'x, y, z'

loop_
_atom_site_label
_atom_site_fract_x
_atom_site_fract_y
_atom_site_fract_z
_atom_site_type_symbol
Ga         0.0      0.0      0.0    Ga
Ga         0.0      0.5      0.0    Ga
H       0.0064     0.75  0.84432     H
O       0.0064     0.75   0.9266     O
O      0.07368    0.583  0.11416     O
O      0.07368    0.917  0.11416     O
O      0.08949   0.0826   0.9114     O
O      0.08949   0.4174   0.9114     O
C      0.10093     0.75     0.14     C
C      0.11762     0.25   0.8892     C
C      0.17186     0.75   0.2086     C
H       0.1881   0.0661   0.2011     H
H       0.1881   0.4339   0.2011     H
C      0.19218     0.25   0.8288     C
H       0.2021   0.5647   0.8296     H
H       0.2021   0.9353   0.8296     H
C      0.20873   0.5712   0.2349     C
C      0.20873   0.9288   0.2349     C
C      0.22605   0.0726   0.8005     C
C      0.22605   0.4274   0.8005     C
C      0.27395   0.5726   0.3005     C
C      0.27395   0.9274   0.3005     C
C      0.29127   0.0712   0.7349     C
C      0.29127   0.4288   0.7349     C
H       0.2979   0.0647   0.3296     H
H       0.2979   0.4353   0.3296     H
C      0.30782     0.75   0.3288     C
H       0.3119   0.5661   0.7011     H
H       0.3119   0.9339   0.7011     H
C      0.32814     0.25   0.7086     C
C      0.38238     0.75   0.3892     C
C      0.39907     0.25     0.64     C
O      0.41051   0.5826   0.4114     O
O      0.41051   0.9174   0.4114     O
O      0.42632    0.083  0.61416     O
O      0.42632    0.417  0.61416     O
H       0.4936     0.25  0.34432     H
O       0.4936     0.25   0.4266     O
Ga         0.5      0.0      0.5    Ga
Ga         0.5      0.5      0.5    Ga
O       0.5064     0.75   0.5734     O
H       0.5064     0.75  0.65568     H
O      0.57368    0.583  0.38584     O
O      0.57368    0.917  0.38584     O
O      0.58949   0.0826   0.5886     O
O      0.58949   0.4174   0.5886     O
C      0.60093     0.75     0.36     C
C      0.61762     0.25   0.6108     C
C      0.67186     0.75   0.2914     C
H       0.6881   0.0661   0.2989     H
H       0.6881   0.4339   0.2989     H
C      0.69218     0.25   0.6712     C
H       0.7021   0.5647   0.6704     H
H       0.7021   0.9353   0.6704     H
C      0.70873   0.5712   0.2651     C
C      0.70873   0.9288   0.2651     C
C      0.72605   0.0726   0.6995     C
C      0.72605   0.4274   0.6995     C
C      0.77395   0.5726   0.1995     C
C      0.77395   0.9274   0.1995     C
C      0.79127   0.0712   0.7651     C
C      0.79127   0.4288   0.7651     C
H       0.7979   0.0647   0.1704     H
H       0.7979   0.4353   0.1704     H
C      0.80782     0.75   0.1712     C
H       0.8119   0.5661   0.7989     H
H       0.8119   0.9339   0.7989     H
C      0.82814     0.25   0.7914     C
C      0.88238     0.75   0.1108     C
C      0.89907     0.25     0.86     C
O      0.91051   0.5826   0.0886     O
O      0.91051   0.9174   0.0886     O
O      0.92632    0.083  0.88584     O
O      0.92632    0.417  0.88584     O
O       0.9936     0.25   0.0734     O
H       0.9936     0.25  0.15568     H
