data_I
_chemical_name_common  'CGCNN_MT\data\TSD\clean_cifs\HIHGEM_manual'
_cell_length_a 18.77400
_cell_length_b 29.70400
_cell_length_c 24.89000
_cell_angle_alpha 90.00000
_cell_angle_beta  90.00000
_cell_angle_gamma 90.00000
_space_group_name_H-M_alt      'P 1'


loop_
_space_group_symop_operation_xyz
  'x, y, z'

loop_
_atom_site_label
_atom_site_fract_x
_atom_site_fract_y
_atom_site_fract_z
_atom_site_type_symbol
Si         0.0      0.0     0.25    Si
Si         0.0      0.0     0.75    Si
H          0.0   0.2935   0.1987     H
H          0.0   0.2935   0.3013     H
H          0.0   0.2935   0.6987     H
H          0.0   0.2935   0.8013     H
Si         0.0  0.38344     0.25    Si
Si         0.0  0.38344     0.75    Si
Si         0.0  0.61656     0.25    Si
Si         0.0  0.61656     0.75    Si
H          0.0   0.7065   0.1987     H
H          0.0   0.7065   0.3013     H
H          0.0   0.7065   0.6987     H
H          0.0   0.7065   0.8013     H
H       0.0186   0.0849   0.3057     H
H       0.0186   0.0849   0.6943     H
H       0.0186   0.9151   0.1943     H
H       0.0186   0.9151   0.8057     H
C       0.0255  0.07473   0.1822     C
C       0.0255  0.07473   0.8178     C
C       0.0255  0.92527   0.3178     C
C       0.0255  0.92527   0.6822     C
H      0.02672  0.36805  0.35969     H
H      0.02672  0.36805  0.64031     H
H      0.02672  0.63195  0.14031     H
H      0.02672  0.63195  0.85969     H
H       0.0394   0.1243   0.1273     H
H       0.0394   0.1243   0.8727     H
H       0.0394   0.8757   0.3727     H
H       0.0394   0.8757   0.6273     H
C       0.0395  0.30825   0.1846     C
C       0.0395  0.30825   0.8154     C
C       0.0395  0.69175   0.3154     C
C       0.0395  0.69175   0.6846     C
C       0.0543   0.4194   0.2962     C
C       0.0543   0.4194   0.7038     C
C       0.0543   0.5806   0.2038     C
C       0.0543   0.5806   0.7962     C
C       0.0545  0.03609  0.20501     C
C       0.0545  0.03609  0.79499     C
C       0.0545  0.96391  0.29499     C
C       0.0545  0.96391  0.70501     C
C       0.0546   0.4013   0.3507     C
C       0.0546   0.4013   0.6493     C
C       0.0546   0.5987   0.1493     C
C       0.0546   0.5987   0.8507     C
C       0.0582  0.34975  0.20437     C
C       0.0582  0.34975  0.79563     C
C       0.0582  0.65025  0.29563     C
C       0.0582  0.65025  0.70437     C
C       0.0604  0.09867   0.1419     C
C       0.0604  0.09867   0.8581     C
C       0.0604  0.90133   0.3581     C
C       0.0604  0.90133   0.6419     C
H       0.0656   0.2596   0.1314     H
H       0.0656   0.2596   0.8686     H
H       0.0656   0.7404   0.3686     H
H       0.0656   0.7404   0.6314     H
C       0.0787  0.28799   0.1436     C
C       0.0787  0.28799   0.8564     C
C       0.0787  0.71201   0.3564     C
C       0.0787  0.71201   0.6436     C
H      0.08928  0.41453  0.43247     H
H      0.08928  0.41453  0.56753     H
H      0.08928  0.58547  0.06753     H
H      0.08928  0.58547  0.93247     H
C       0.0899   0.4266    0.389     C
C       0.0899   0.4266    0.611     C
C       0.0899   0.5734    0.111     C
C       0.0899   0.5734    0.889     C
C       0.0926   0.4526   0.2835     C
C       0.0926   0.4526   0.7165     C
C       0.0926   0.5474   0.2165     C
C       0.0926   0.5474   0.7835     C
H      0.09724  0.46321  0.23962     H
H      0.09724  0.46321  0.76038     H
H      0.09724  0.53679  0.26038     H
H      0.09724  0.53679  0.73962     H
C       0.1151  0.37062   0.1809     C
C       0.1151  0.37062   0.8191     C
C       0.1151  0.62938   0.3191     C
C       0.1151  0.62938   0.6809     C
C       0.1209  0.02351   0.1864     C
C       0.1209  0.02351   0.8136     C
C       0.1209  0.97649   0.3136     C
C       0.1209  0.97649   0.6864     C
C       0.1254  0.08466  0.12372     C
C       0.1254  0.08466  0.87628     C
C       0.1254  0.91534  0.37628     C
C       0.1254  0.91534  0.62372     C
H       0.1278   0.3992    0.193     H
H       0.1278   0.3992    0.807     H
H       0.1278   0.6008    0.307     H
H       0.1278   0.6008    0.693     H
C       0.1289   0.4696   0.3742     C
C       0.1289   0.4696   0.6258     C
C       0.1289   0.5304   0.1258     C
C       0.1289   0.5304   0.8742     C
C        0.129   0.4763   0.3219     C
C        0.129   0.4763   0.6781     C
C        0.129   0.5237   0.1781     C
C        0.129   0.5237   0.8219     C
O       0.1348  0.14508  0.06341     O
O       0.1348  0.14508  0.93659     O
O       0.1348  0.85492  0.43659     O
O       0.1348  0.85492  0.56341     O
C       0.1362  0.30928  0.12098     C
C       0.1362  0.30928  0.87902     C
O       0.1362   0.4698   0.0586     O
O       0.1362   0.4698   0.9414     O
O       0.1362   0.5302   0.4414     O
O       0.1362   0.5302   0.5586     O
C       0.1362  0.69072  0.37902     C
C       0.1362  0.69072  0.62098     C
H       0.1425    0.002   0.2992     H
H       0.1425    0.002   0.7008     H
H       0.1425    0.998   0.2008     H
H       0.1425    0.998   0.7992     H
C       0.1548  0.35125     0.14     C
C       0.1548  0.35125     0.86     C
C       0.1548  0.64875     0.36     C
C       0.1548  0.64875     0.64     C
C       0.1567  0.04788   0.1466     C
C       0.1567  0.04788   0.8534     C
C       0.1567  0.95212   0.3534     C
C       0.1567  0.95212   0.6466     C
O       0.1574  0.25073  0.05975     O
O       0.1574  0.25073  0.94025     O
O       0.1574  0.74927  0.44025     O
O       0.1574  0.74927  0.55975     O
C        0.161    0.108   0.0778     C
C        0.161    0.108   0.9222     C
C        0.161    0.892   0.4222     C
C        0.161    0.892   0.5778     C
H      0.16226  0.49533  0.19605     H
H      0.16226  0.49533  0.80395     H
H      0.16226  0.50467  0.30395     H
H      0.16226  0.50467  0.69605     H
O       0.1664   0.4798   0.4623     O
O       0.1664   0.4798   0.5377     O
O       0.1664   0.5202   0.0377     O
O       0.1664   0.5202   0.9623     O
C       0.1694   0.4952   0.4166     C
C       0.1694   0.4952   0.5834     C
C       0.1694   0.5048   0.0834     C
C       0.1694   0.5048   0.9166     C
Er     0.17687  0.19461      0.0    Er
Er     0.17687  0.80539      0.5    Er
C       0.1779  0.28859    0.075     C
C       0.1779  0.28859    0.925     C
C       0.1779  0.71141    0.425     C
C       0.1779  0.71141    0.575     C
H       0.1936   0.3665   0.1255     H
H       0.1936   0.3665   0.8745     H
H       0.1936   0.6335   0.3745     H
H       0.1936   0.6335   0.6255     H
H       0.2019    0.039   0.1356     H
H       0.2019    0.039   0.8644     H
H       0.2019    0.961   0.3644     H
H       0.2019    0.961   0.6356     H
O       0.2131  0.08885  0.05702     O
O       0.2131  0.08885  0.94298     O
O       0.2131  0.91115  0.44298     O
O       0.2131  0.91115  0.55702     O
O       0.2278  0.31093  0.05499     O
O       0.2278  0.31093  0.94501     O
O       0.2278  0.68907  0.44501     O
O       0.2278  0.68907  0.55499     O
Er     0.23171   0.4583      0.0    Er
Er     0.23171   0.5417      0.5    Er
Er     0.26829   0.0417      0.0    Er
Er     0.26829   0.9583      0.5    Er
O       0.2722  0.18907  0.05499     O
O       0.2722  0.18907  0.94501     O
O       0.2722  0.81093  0.44501     O
O       0.2722  0.81093  0.55499     O
O       0.2869  0.41115  0.05702     O
O       0.2869  0.41115  0.94298     O
O       0.2869  0.58885  0.44298     O
O       0.2869  0.58885  0.55702     O
H       0.2981    0.461   0.1356     H
H       0.2981    0.461   0.8644     H
H       0.2981    0.539   0.3644     H
H       0.2981    0.539   0.6356     H
H       0.3064   0.1335   0.1255     H
H       0.3064   0.1335   0.8745     H
H       0.3064   0.8665   0.3745     H
H       0.3064   0.8665   0.6255     H
C       0.3221  0.21141    0.075     C
C       0.3221  0.21141    0.925     C
C       0.3221  0.78859    0.425     C
C       0.3221  0.78859    0.575     C
Er     0.32313  0.30539      0.0    Er
Er     0.32313  0.69461      0.5    Er
C       0.3306   0.0048   0.4166     C
C       0.3306   0.0048   0.5834     C
C       0.3306   0.9952   0.0834     C
C       0.3306   0.9952   0.9166     C
O       0.3336   0.0202   0.4623     O
O       0.3336   0.0202   0.5377     O
O       0.3336   0.9798   0.0377     O
O       0.3336   0.9798   0.9623     O
H      0.33774  0.00467  0.19605     H
H      0.33774  0.00467  0.80395     H
H      0.33774  0.99533  0.30395     H
H      0.33774  0.99533  0.69605     H
C        0.339    0.392   0.0778     C
C        0.339    0.392   0.9222     C
C        0.339    0.608   0.4222     C
C        0.339    0.608   0.5778     C
O       0.3426  0.24927  0.05975     O
O       0.3426  0.24927  0.94025     O
O       0.3426  0.75073  0.44025     O
O       0.3426  0.75073  0.55975     O
C       0.3433  0.45212   0.1466     C
C       0.3433  0.45212   0.8534     C
C       0.3433  0.54788   0.3534     C
C       0.3433  0.54788   0.6466     C
C       0.3452  0.14875     0.14     C
C       0.3452  0.14875     0.86     C
C       0.3452  0.85125     0.36     C
C       0.3452  0.85125     0.64     C
H       0.3575    0.498   0.2992     H
H       0.3575    0.498   0.7008     H
H       0.3575    0.502   0.2008     H
H       0.3575    0.502   0.7992     H
O       0.3638   0.0302   0.0586     O
O       0.3638   0.0302   0.9414     O
C       0.3638  0.19072  0.12098     C
C       0.3638  0.19072  0.87902     C
C       0.3638  0.80928  0.37902     C
C       0.3638  0.80928  0.62098     C
O       0.3638   0.9698   0.4414     O
O       0.3638   0.9698   0.5586     O
O       0.3652  0.35492  0.06341     O
O       0.3652  0.35492  0.93659     O
O       0.3652  0.64508  0.43659     O
O       0.3652  0.64508  0.56341     O
C        0.371   0.0237   0.3219     C
C        0.371   0.0237   0.6781     C
C        0.371   0.9763   0.1781     C
C        0.371   0.9763   0.8219     C
C       0.3711   0.0304   0.3742     C
C       0.3711   0.0304   0.6258     C
C       0.3711   0.9696   0.1258     C
C       0.3711   0.9696   0.8742     C
H       0.3722   0.1008    0.193     H
H       0.3722   0.1008    0.807     H
H       0.3722   0.8992    0.307     H
H       0.3722   0.8992    0.693     H
C       0.3746  0.41534  0.12372     C
C       0.3746  0.41534  0.87628     C
C       0.3746  0.58466  0.37628     C
C       0.3746  0.58466  0.62372     C
C       0.3791  0.47649   0.1864     C
C       0.3791  0.47649   0.8136     C
C       0.3791  0.52351   0.3136     C
C       0.3791  0.52351   0.6864     C
C       0.3849  0.12938   0.1809     C
C       0.3849  0.12938   0.8191     C
C       0.3849  0.87062   0.3191     C
C       0.3849  0.87062   0.6809     C
H      0.40276  0.03679  0.23962     H
H      0.40276  0.03679  0.76038     H
H      0.40276  0.96321  0.26038     H
H      0.40276  0.96321  0.73962     H
C       0.4074   0.0474   0.2835     C
C       0.4074   0.0474   0.7165     C
C       0.4074   0.9526   0.2165     C
C       0.4074   0.9526   0.7835     C
C       0.4101   0.0734    0.389     C
C       0.4101   0.0734    0.611     C
C       0.4101   0.9266    0.111     C
C       0.4101   0.9266    0.889     C
H      0.41072  0.08547  0.43247     H
H      0.41072  0.08547  0.56753     H
H      0.41072  0.91453  0.06753     H
H      0.41072  0.91453  0.93247     H
C       0.4213  0.21201   0.1436     C
C       0.4213  0.21201   0.8564     C
C       0.4213  0.78799   0.3564     C
C       0.4213  0.78799   0.6436     C
H       0.4344   0.2404   0.1314     H
H       0.4344   0.2404   0.8686     H
H       0.4344   0.7596   0.3686     H
H       0.4344   0.7596   0.6314     H
C       0.4396  0.40133   0.1419     C
C       0.4396  0.40133   0.8581     C
C       0.4396  0.59867   0.3581     C
C       0.4396  0.59867   0.6419     C
C       0.4418  0.15025  0.20437     C
C       0.4418  0.15025  0.79563     C
C       0.4418  0.84975  0.29563     C
C       0.4418  0.84975  0.70437     C
C       0.4454   0.0987   0.3507     C
C       0.4454   0.0987   0.6493     C
C       0.4454   0.9013   0.1493     C
C       0.4454   0.9013   0.8507     C
C       0.4455  0.46391  0.20501     C
C       0.4455  0.46391  0.79499     C
C       0.4455  0.53609  0.29499     C
C       0.4455  0.53609  0.70501     C
C       0.4457   0.0806   0.2962     C
C       0.4457   0.0806   0.7038     C
C       0.4457   0.9194   0.2038     C
C       0.4457   0.9194   0.7962     C
C       0.4605  0.19175   0.1846     C
C       0.4605  0.19175   0.8154     C
C       0.4605  0.80825   0.3154     C
C       0.4605  0.80825   0.6846     C
H       0.4606   0.3757   0.1273     H
H       0.4606   0.3757   0.8727     H
H       0.4606   0.6243   0.3727     H
H       0.4606   0.6243   0.6273     H
H      0.47328  0.13195  0.35969     H
H      0.47328  0.13195  0.64031     H
H      0.47328  0.86805  0.14031     H
H      0.47328  0.86805  0.85969     H
C       0.4745  0.42527   0.1822     C
C       0.4745  0.42527   0.8178     C
C       0.4745  0.57473   0.3178     C
C       0.4745  0.57473   0.6822     C
H       0.4814   0.4151   0.3057     H
H       0.4814   0.4151   0.6943     H
H       0.4814   0.5849   0.1943     H
H       0.4814   0.5849   0.8057     H
Si         0.5  0.11656     0.25    Si
Si         0.5  0.11656     0.75    Si
H          0.5   0.2065   0.1987     H
H          0.5   0.2065   0.3013     H
H          0.5   0.2065   0.6987     H
H          0.5   0.2065   0.8013     H
Si         0.5      0.5     0.25    Si
Si         0.5      0.5     0.75    Si
H          0.5   0.7935   0.1987     H
H          0.5   0.7935   0.3013     H
H          0.5   0.7935   0.6987     H
H          0.5   0.7935   0.8013     H
Si         0.5  0.88344     0.25    Si
Si         0.5  0.88344     0.75    Si
H       0.5186   0.4151   0.1943     H
H       0.5186   0.4151   0.8057     H
H       0.5186   0.5849   0.3057     H
H       0.5186   0.5849   0.6943     H
C       0.5255  0.42527   0.3178     C
C       0.5255  0.42527   0.6822     C
C       0.5255  0.57473   0.1822     C
C       0.5255  0.57473   0.8178     C
H      0.52672  0.13195  0.14031     H
H      0.52672  0.13195  0.85969     H
H      0.52672  0.86805  0.35969     H
H      0.52672  0.86805  0.64031     H
H       0.5394   0.3757   0.3727     H
H       0.5394   0.3757   0.6273     H
H       0.5394   0.6243   0.1273     H
H       0.5394   0.6243   0.8727     H
C       0.5395  0.19175   0.3154     C
C       0.5395  0.19175   0.6846     C
C       0.5395  0.80825   0.1846     C
C       0.5395  0.80825   0.8154     C
C       0.5543   0.0806   0.2038     C
C       0.5543   0.0806   0.7962     C
C       0.5543   0.9194   0.2962     C
C       0.5543   0.9194   0.7038     C
C       0.5545  0.46391  0.29499     C
C       0.5545  0.46391  0.70501     C
C       0.5545  0.53609  0.20501     C
C       0.5545  0.53609  0.79499     C
C       0.5546   0.0987   0.1493     C
C       0.5546   0.0987   0.8507     C
C       0.5546   0.9013   0.3507     C
C       0.5546   0.9013   0.6493     C
C       0.5582  0.15025  0.29563     C
C       0.5582  0.15025  0.70437     C
C       0.5582  0.84975  0.20437     C
C       0.5582  0.84975  0.79563     C
C       0.5604  0.40133   0.3581     C
C       0.5604  0.40133   0.6419     C
C       0.5604  0.59867   0.1419     C
C       0.5604  0.59867   0.8581     C
H       0.5656   0.2404   0.3686     H
H       0.5656   0.2404   0.6314     H
H       0.5656   0.7596   0.1314     H
H       0.5656   0.7596   0.8686     H
C       0.5787  0.21201   0.3564     C
C       0.5787  0.21201   0.6436     C
C       0.5787  0.78799   0.1436     C
C       0.5787  0.78799   0.8564     C
H      0.58928  0.08547  0.06753     H
H      0.58928  0.08547  0.93247     H
H      0.58928  0.91453  0.43247     H
H      0.58928  0.91453  0.56753     H
C       0.5899   0.0734    0.111     C
C       0.5899   0.0734    0.889     C
C       0.5899   0.9266    0.389     C
C       0.5899   0.9266    0.611     C
C       0.5926   0.0474   0.2165     C
C       0.5926   0.0474   0.7835     C
C       0.5926   0.9526   0.2835     C
C       0.5926   0.9526   0.7165     C
H      0.59724  0.03679  0.26038     H
H      0.59724  0.03679  0.73962     H
H      0.59724  0.96321  0.23962     H
H      0.59724  0.96321  0.76038     H
C       0.6151  0.12938   0.3191     C
C       0.6151  0.12938   0.6809     C
C       0.6151  0.87062   0.1809     C
C       0.6151  0.87062   0.8191     C
C       0.6209  0.47649   0.3136     C
C       0.6209  0.47649   0.6864     C
C       0.6209  0.52351   0.1864     C
C       0.6209  0.52351   0.8136     C
C       0.6254  0.41534  0.37628     C
C       0.6254  0.41534  0.62372     C
C       0.6254  0.58466  0.12372     C
C       0.6254  0.58466  0.87628     C
H       0.6278   0.1008    0.307     H
H       0.6278   0.1008    0.693     H
H       0.6278   0.8992    0.193     H
H       0.6278   0.8992    0.807     H
C       0.6289   0.0304   0.1258     C
C       0.6289   0.0304   0.8742     C
C       0.6289   0.9696   0.3742     C
C       0.6289   0.9696   0.6258     C
C        0.629   0.0237   0.1781     C
C        0.629   0.0237   0.8219     C
C        0.629   0.9763   0.3219     C
C        0.629   0.9763   0.6781     C
O       0.6348  0.35492  0.43659     O
O       0.6348  0.35492  0.56341     O
O       0.6348  0.64508  0.06341     O
O       0.6348  0.64508  0.93659     O
O       0.6362   0.0302   0.4414     O
O       0.6362   0.0302   0.5586     O
C       0.6362  0.19072  0.37902     C
C       0.6362  0.19072  0.62098     C
C       0.6362  0.80928  0.12098     C
C       0.6362  0.80928  0.87902     C
O       0.6362   0.9698   0.0586     O
O       0.6362   0.9698   0.9414     O
H       0.6425    0.498   0.2008     H
H       0.6425    0.498   0.7992     H
H       0.6425    0.502   0.2992     H
H       0.6425    0.502   0.7008     H
C       0.6548  0.14875     0.36     C
C       0.6548  0.14875     0.64     C
C       0.6548  0.85125     0.14     C
C       0.6548  0.85125     0.86     C
C       0.6567  0.45212   0.3534     C
C       0.6567  0.45212   0.6466     C
C       0.6567  0.54788   0.1466     C
C       0.6567  0.54788   0.8534     C
O       0.6574  0.24927  0.44025     O
O       0.6574  0.24927  0.55975     O
O       0.6574  0.75073  0.05975     O
O       0.6574  0.75073  0.94025     O
C        0.661    0.392   0.4222     C
C        0.661    0.392   0.5778     C
C        0.661    0.608   0.0778     C
C        0.661    0.608   0.9222     C
H      0.66226  0.00467  0.30395     H
H      0.66226  0.00467  0.69605     H
H      0.66226  0.99533  0.19605     H
H      0.66226  0.99533  0.80395     H
O       0.6664   0.0202   0.0377     O
O       0.6664   0.0202   0.9623     O
O       0.6664   0.9798   0.4623     O
O       0.6664   0.9798   0.5377     O
C       0.6694   0.0048   0.0834     C
C       0.6694   0.0048   0.9166     C
C       0.6694   0.9952   0.4166     C
C       0.6694   0.9952   0.5834     C
Er     0.67687  0.30539      0.5    Er
Er     0.67687  0.69461      0.0    Er
C       0.6779  0.21141    0.425     C
C       0.6779  0.21141    0.575     C
C       0.6779  0.78859    0.075     C
C       0.6779  0.78859    0.925     C
H       0.6936   0.1335   0.3745     H
H       0.6936   0.1335   0.6255     H
H       0.6936   0.8665   0.1255     H
H       0.6936   0.8665   0.8745     H
H       0.7019    0.461   0.3644     H
H       0.7019    0.461   0.6356     H
H       0.7019    0.539   0.1356     H
H       0.7019    0.539   0.8644     H
O       0.7131  0.41115  0.44298     O
O       0.7131  0.41115  0.55702     O
O       0.7131  0.58885  0.05702     O
O       0.7131  0.58885  0.94298     O
O       0.7278  0.18907  0.44501     O
O       0.7278  0.18907  0.55499     O
O       0.7278  0.81093  0.05499     O
O       0.7278  0.81093  0.94501     O
Er     0.73171   0.0417      0.5    Er
Er     0.73171   0.9583      0.0    Er
Er     0.76829   0.4583      0.5    Er
Er     0.76829   0.5417      0.0    Er
O       0.7722  0.31093  0.44501     O
O       0.7722  0.31093  0.55499     O
O       0.7722  0.68907  0.05499     O
O       0.7722  0.68907  0.94501     O
O       0.7869  0.08885  0.44298     O
O       0.7869  0.08885  0.55702     O
O       0.7869  0.91115  0.05702     O
O       0.7869  0.91115  0.94298     O
H       0.7981    0.039   0.3644     H
H       0.7981    0.039   0.6356     H
H       0.7981    0.961   0.1356     H
H       0.7981    0.961   0.8644     H
H       0.8064   0.3665   0.3745     H
H       0.8064   0.3665   0.6255     H
H       0.8064   0.6335   0.1255     H
H       0.8064   0.6335   0.8745     H
C       0.8221  0.28859    0.425     C
C       0.8221  0.28859    0.575     C
C       0.8221  0.71141    0.075     C
C       0.8221  0.71141    0.925     C
Er     0.82313  0.19461      0.5    Er
Er     0.82313  0.80539      0.0    Er
C       0.8306   0.4952   0.0834     C
C       0.8306   0.4952   0.9166     C
C       0.8306   0.5048   0.4166     C
C       0.8306   0.5048   0.5834     C
O       0.8336   0.4798   0.0377     O
O       0.8336   0.4798   0.9623     O
O       0.8336   0.5202   0.4623     O
O       0.8336   0.5202   0.5377     O
H      0.83774  0.49533  0.30395     H
H      0.83774  0.49533  0.69605     H
H      0.83774  0.50467  0.19605     H
H      0.83774  0.50467  0.80395     H
C        0.839    0.108   0.4222     C
C        0.839    0.108   0.5778     C
C        0.839    0.892   0.0778     C
C        0.839    0.892   0.9222     C
O       0.8426  0.25073  0.44025     O
O       0.8426  0.25073  0.55975     O
O       0.8426  0.74927  0.05975     O
O       0.8426  0.74927  0.94025     O
C       0.8433  0.04788   0.3534     C
C       0.8433  0.04788   0.6466     C
C       0.8433  0.95212   0.1466     C
C       0.8433  0.95212   0.8534     C
C       0.8452  0.35125     0.36     C
C       0.8452  0.35125     0.64     C
C       0.8452  0.64875     0.14     C
C       0.8452  0.64875     0.86     C
H       0.8575    0.002   0.2008     H
H       0.8575    0.002   0.7992     H
H       0.8575    0.998   0.2992     H
H       0.8575    0.998   0.7008     H
C       0.8638  0.30928  0.37902     C
C       0.8638  0.30928  0.62098     C
O       0.8638   0.4698   0.4414     O
O       0.8638   0.4698   0.5586     O
O       0.8638   0.5302   0.0586     O
O       0.8638   0.5302   0.9414     O
C       0.8638  0.69072  0.12098     C
C       0.8638  0.69072  0.87902     C
O       0.8652  0.14508  0.43659     O
O       0.8652  0.14508  0.56341     O
O       0.8652  0.85492  0.06341     O
O       0.8652  0.85492  0.93659     O
C        0.871   0.4763   0.1781     C
C        0.871   0.4763   0.8219     C
C        0.871   0.5237   0.3219     C
C        0.871   0.5237   0.6781     C
C       0.8711   0.4696   0.1258     C
C       0.8711   0.4696   0.8742     C
C       0.8711   0.5304   0.3742     C
C       0.8711   0.5304   0.6258     C
H       0.8722   0.3992    0.307     H
H       0.8722   0.3992    0.693     H
H       0.8722   0.6008    0.193     H
H       0.8722   0.6008    0.807     H
C       0.8746  0.08466  0.37628     C
C       0.8746  0.08466  0.62372     C
C       0.8746  0.91534  0.12372     C
C       0.8746  0.91534  0.87628     C
C       0.8791  0.02351   0.3136     C
C       0.8791  0.02351   0.6864     C
C       0.8791  0.97649   0.1864     C
C       0.8791  0.97649   0.8136     C
C       0.8849  0.37062   0.3191     C
C       0.8849  0.37062   0.6809     C
C       0.8849  0.62938   0.1809     C
C       0.8849  0.62938   0.8191     C
H      0.90276  0.46321  0.26038     H
H      0.90276  0.46321  0.73962     H
H      0.90276  0.53679  0.23962     H
H      0.90276  0.53679  0.76038     H
C       0.9074   0.4526   0.2165     C
C       0.9074   0.4526   0.7835     C
C       0.9074   0.5474   0.2835     C
C       0.9074   0.5474   0.7165     C
C       0.9101   0.4266    0.111     C
C       0.9101   0.4266    0.889     C
C       0.9101   0.5734    0.389     C
C       0.9101   0.5734    0.611     C
H      0.91072  0.41453  0.06753     H
H      0.91072  0.41453  0.93247     H
H      0.91072  0.58547  0.43247     H
H      0.91072  0.58547  0.56753     H
C       0.9213  0.28799   0.3564     C
C       0.9213  0.28799   0.6436     C
C       0.9213  0.71201   0.1436     C
C       0.9213  0.71201   0.8564     C
H       0.9344   0.2596   0.3686     H
H       0.9344   0.2596   0.6314     H
H       0.9344   0.7404   0.1314     H
H       0.9344   0.7404   0.8686     H
C       0.9396  0.09867   0.3581     C
C       0.9396  0.09867   0.6419     C
C       0.9396  0.90133   0.1419     C
C       0.9396  0.90133   0.8581     C
C       0.9418  0.34975  0.29563     C
C       0.9418  0.34975  0.70437     C
C       0.9418  0.65025  0.20437     C
C       0.9418  0.65025  0.79563     C
C       0.9454   0.4013   0.1493     C
C       0.9454   0.4013   0.8507     C
C       0.9454   0.5987   0.3507     C
C       0.9454   0.5987   0.6493     C
C       0.9455  0.03609  0.29499     C
C       0.9455  0.03609  0.70501     C
C       0.9455  0.96391  0.20501     C
C       0.9455  0.96391  0.79499     C
C       0.9457   0.4194   0.2038     C
C       0.9457   0.4194   0.7962     C
C       0.9457   0.5806   0.2962     C
C       0.9457   0.5806   0.7038     C
C       0.9605  0.30825   0.3154     C
C       0.9605  0.30825   0.6846     C
C       0.9605  0.69175   0.1846     C
C       0.9605  0.69175   0.8154     C
H       0.9606   0.1243   0.3727     H
H       0.9606   0.1243   0.6273     H
H       0.9606   0.8757   0.1273     H
H       0.9606   0.8757   0.8727     H
H      0.97328  0.36805  0.14031     H
H      0.97328  0.36805  0.85969     H
H      0.97328  0.63195  0.35969     H
H      0.97328  0.63195  0.64031     H
C       0.9745  0.07473   0.3178     C
C       0.9745  0.07473   0.6822     C
C       0.9745  0.92527   0.1822     C
C       0.9745  0.92527   0.8178     C
H       0.9814   0.0849   0.1943     H
H       0.9814   0.0849   0.8057     H
H       0.9814   0.9151   0.3057     H
H       0.9814   0.9151   0.6943     H
