data_I
_chemical_name_common  'CGCNN_MT\data\TSD\clean_cifs\VEWLAM_clean'
_cell_length_a 20.73080
_cell_length_b 34.37440
_cell_length_c 19.37720
_cell_angle_alpha 90.00000
_cell_angle_beta  115.43200
_cell_angle_gamma 90.00000
_space_group_name_H-M_alt      'P 1'


loop_
_space_group_symop_operation_xyz
  'x, y, z'

loop_
_atom_site_label
_atom_site_fract_x
_atom_site_fract_y
_atom_site_fract_z
_atom_site_type_symbol
H      0.00157  0.20353  0.94549     H
H      0.00234  0.00078  0.58992     H
C       0.0033   0.8677   0.4431     C
C       0.0039   0.1794   0.0892     C
H      0.00484  0.73775  0.95352     H
H      0.00521  0.58662     0.37     H
C       0.0063   0.1298   0.5404     C
C       0.0067    0.378   0.0568     C
C       0.0072   0.8798   0.5134     C
H       0.0084  0.00497  0.36829     H
C       0.0091    0.839   0.8406     C
C       0.0115    0.005   0.4822     C
C       0.0124   0.8781   0.0195     C
C       0.0143   0.2127   0.3342     C
H      0.01493  0.39548  0.88196     H
H      0.01559  0.72876  0.72214     H
C       0.0171   0.1781   0.4414     C
C       0.0171   0.2176   0.0982     C
H      0.01814  0.12226  0.13986     H
C       0.0206   0.6987   0.6291     C
C       0.0221   0.5119   0.5963     C
C       0.0242   0.5097   0.4728     C
C       0.0259   0.6566   0.5157     C
C       0.0267    0.609    0.418     C
C       0.0291   0.1548   0.1489     C
H      0.03115  0.80693  0.75487     H
C       0.0326   0.3938   0.9463     C
H      0.03583  0.41881  0.42692     H
C       0.0367   0.6802   0.0526     C
C       0.0383   0.8618   0.9081     C
C       0.0393   0.4088   0.4845     C
H      0.03959  0.80055  0.54045     H
H      0.04226  0.84402  0.44428     H
C       0.0461   0.3834   0.6279     C
C       0.0482   0.6644   0.9918     C
H       0.0509  0.33348  0.18921     H
H      0.05332   0.3735  0.68693     H
C       0.0544   0.8235   0.8113     C
C       0.0594   0.2361   0.1727     C
C       0.0594   0.8614   0.5867     C
H      0.06469  0.12425  0.55374     H
H      0.06609  0.86547  0.06054     H
C       0.0665   0.8197   0.5932     C
H      0.06733  0.63504  0.79917     H
H       0.0678  0.95319  0.41052     H
H      0.06862  0.26888  0.17628     H
C       0.0707     0.17   0.2256     C
H      0.07147  0.27651  0.38714     H
C       0.0742   0.3932    0.111     C
H      0.08089  0.70279   0.6529     H
H      0.08138  0.55842  0.81793     H
C       0.0852   0.9869   0.5186     C
C       0.0859   0.2095   0.2362     C
H      0.08777  0.91785  0.64372     H
H      0.08853   0.3923  0.17474     H
C       0.0888   0.4252   0.5509     C
C       0.0893   0.4145   0.6207     C
C       0.0896   0.1735   0.4757     C
C         0.09   0.6593   0.1294     C
H      0.09075  0.14952  0.27684     H
H      0.09094  0.62373  0.93304     H
C        0.091   0.2091   0.3611     C
C       0.0916   0.6343   0.9891     C
H      0.09183  0.66991  0.18595     H
C       0.0927   0.5272   0.6324     C
C       0.0934   0.5256    0.506     C
C        0.094   0.8849   0.6496     C
C       0.0944   0.6702   0.5387     C
H      0.09466   0.3519   0.4004     H
C       0.1004   0.6213   0.4479     C
C       0.1005   0.4072   0.9967     C
O       0.1061   0.5795   0.3538     O
H      0.10638  0.68622  0.87399     H
C       0.1064   0.2908   0.3622     C
C       0.1071   0.9605   0.4716     C
H      0.10728  0.76533  0.87686     H
C       0.1074   0.8024    0.666     C
C       0.1106   0.8697   0.9456     C
H      0.11331  0.76948   0.6729     H
H      0.11448  0.69546  0.58073     H
H      0.11643  0.01894  0.63086     H
H      0.11656  0.15938  0.53451     H
C       0.1197   0.6192   0.8127     C
C       0.1204   0.4092   0.0772     C
C       0.1211    0.333   0.3715     C
H      0.12249  0.53446  0.69575     H
C       0.1238   0.5329   0.5862     C
C       0.1246    0.187   0.4339     C
H      0.12505  0.53263  0.47185     H
O       0.1278   0.4134   0.8925     O
C        0.128   0.5772   0.8214     C
H      0.12915  0.44731  0.54938     H
C       0.1298   0.8273   0.8488     C
C       0.1301   0.2233   0.3174     C
C       0.1311    0.646   0.4988     C
C       0.1324   0.9974   0.5962     C
H      0.13374  0.88909  0.99839     H
C       0.1352   0.2687   0.3231     C
C       0.1352   0.6277   0.1285     C
C       0.1357    0.747   0.8493     C
O       0.1364   0.4239   0.7505     O
C        0.137   0.8692   0.7212     C
C        0.138   0.7036   0.8488     C
C       0.1389   0.6027    0.409     C
C       0.1411    0.827   0.7306     C
C       0.1421   0.6149   0.0655     C
C       0.1443   0.4327   0.6982     C
C       0.1447   0.4228   0.9505     C
O       0.1537   0.4977    0.858     O
C       0.1565   0.8528   0.9164     C
C       0.1635   0.3483   0.3471     C
H      0.16866  0.88885  0.77195     H
H      0.16873  0.61132   0.1835     H
C       0.1721    0.765   0.8123     C
H      0.17336  0.42358  0.11539     H
C       0.1739   0.8096   0.8108     C
H      0.17406  0.39127  0.47337     H
C       0.1777   0.9459   0.5076     C
C       0.1786   0.6843   0.8177     C
C       0.1821   0.6408   0.8221     C
C       0.1822   0.2849    0.294     C
H      0.18299  0.59144  0.07131     H
H      0.18407  0.17995  0.45948     H
C       0.1864   0.3906   0.3638     C
H      0.18641  0.88291  0.55392     H
C       0.1876   0.4079   0.4304     C
O       0.1887    0.454   0.6833     O
H      0.19049  0.65006  0.51528     H
C       0.1909   0.5615   0.8334     C
Co      0.1914  0.44364  0.85774    Co
H      0.19557  0.92661  0.47118     H
H       0.1958  0.16862  0.25552     H
O       0.1959   0.4411   0.0005     O
H      0.19752  0.81004   0.5681     H
C       0.1976   0.3242   0.3083     C
C       0.1987   0.5163   0.8435     C
H      0.19969  0.39906  0.25772     H
C       0.2004   0.5498   0.6186     C
C       0.2017   0.9796   0.6295     C
C       0.2023   0.4142   0.3112     C
H      0.20449  0.26571  0.26136     H
O       0.2064  0.60816   0.4314     O
C       0.2071   0.4486    0.443     C
C       0.2082    0.207   0.3494     C
H      0.20916  0.46278  0.49709     H
C       0.2119   0.7461   0.7811     C
C       0.2133    0.706     0.78     C
H      0.21596  0.85965  0.94739     H
O       0.2183  0.57035   0.5771     O
C       0.2207   0.4548   0.3236     C
C       0.2233   0.4707   0.3909     C
C       0.2275   0.9544   0.5879     C
H      0.23277  0.47378  0.28234     H
C       0.2332   0.1809   0.3137     C
Co     0.23564  0.59125  0.35004    Co
H      0.23682  0.98634  0.69219     H
H      0.23752  0.33791  0.28946     H
C       0.2386   0.5127   0.4079     C
O         0.24  0.53147   0.3546     O
C       0.2412   0.8699   0.5903     C
H      0.24177  0.69009  0.74941     H
O       0.2425  0.54128   0.6894     O
H      0.24366  0.76356   0.7562     H
H       0.2439  0.24697  0.45333     H
C       0.2454   0.6234   0.8334     C
C       0.2475   0.8285   0.5986     C
C       0.2488   0.5809   0.8413     C
O       0.2502   0.5018   0.8372     O
O       0.2529  0.52302    0.474     O
C        0.258   0.2228   0.4219     C
C       0.2582   0.8227   0.8576     C
H      0.25839  0.78865  0.95244     H
H      0.26812  0.76517  0.51876     H
H      0.26849  0.84769  0.75979     H
Co     0.27923  0.48386  0.75011    Co
H      0.28122  0.68729   0.5165     H
H       0.2858  0.00887  0.54653     H
H      0.28593  0.91892   0.7439     H
Co     0.28715  0.57638  0.52931    Co
O       0.2879   0.4185   0.9036     O
C       0.2896   0.8087   0.9309     C
H      0.29215  0.64188  0.83625     H
C       0.2929   0.7484   0.5749     C
C       0.2953   0.8413   0.8237     C
C        0.297   0.7059     0.57     C
H      0.30058  0.56459   0.8541     H
C        0.301   0.8945    0.626     C
C        0.304   0.9376   0.6216     C
C       0.3042   0.1679   0.3452     C
C       0.3101   0.8114   0.6409     C
C       0.3181   0.7686   0.6453     C
O       0.3227   0.6276   0.5792     O
C       0.3228   0.9885   0.5339     C
C       0.3231   0.6889   0.6395     C
C       0.3242   0.6427   0.6401     C
H      0.32597   0.1485  0.31237     H
O       0.3266  0.43404   0.8129     O
C       0.3274   0.4178   0.8683     C
C       0.3276   0.2066   0.4538     C
O       0.3283  0.62711   0.6999     O
O       0.3293   0.6168   0.3787     O
C       0.3307   0.9409   0.7561     C
C       0.3369   0.9484   0.5659     C
Co     0.33956  0.57047  0.71608    Co
H      0.34145  0.03092  0.46044     H
C       0.3464   0.9527   0.7005     C
C       0.3465    0.179   0.4159     C
C       0.3486   0.7483    0.713     C
C       0.3494   0.7075   0.7119     C
H      0.34944   0.0218  0.34707     H
H      0.35385  0.94255  0.88143     H
C       0.3551    0.001   0.4884     C
O       0.3592  0.54206   0.6305     O
O       0.3596  0.58252   0.4849     O
C       0.3631   0.8205   0.9786     C
C       0.3652   0.8758   0.6758     C
H      0.36577  0.37842  0.00915     H
C       0.3665   0.8524   0.8683     C
C       0.3684   0.9547   0.8352     C
H      0.36871  0.21674  0.51219     H
C       0.3698   0.6057   0.4444     C
H      0.37014  0.68932  0.76637     H
C       0.3714   0.8347   0.6796     C
H      0.37307  0.76465  0.76964     H
O       0.3749   0.5145   0.7928     O
H      0.37915  0.49429  0.55307     H
C       0.3809   0.9258   0.5491     C
H      0.38925  0.81263  0.04188     H
H      0.39261   0.8948  0.57206     H
C       0.3948   0.3921   0.9158     C
C       0.3949   0.9836   0.7093     C
H      0.39641  0.87027  0.84178     H
O       0.3973   0.5748   0.8331     O
H      0.39969  0.99603  0.65715     H
C       0.3997   0.8419   0.9428     C
C       0.4023   0.9781   0.4771     C
C       0.4024   0.5405   0.8457     C
H      0.40625  0.12795  0.35038     H
C       0.4087   0.3773   0.9872     C
C       0.4098   0.0183   0.3702     C
H      0.41345  0.89389  0.71405     H
C       0.4138   0.9379   0.5047     C
C       0.4237   0.9842   0.8471     C
C       0.4243   0.1643   0.4501     C
H      0.42456   0.6651  0.37921     H
H      0.42564  0.82056  0.71375     H
C        0.428   0.5465   0.6628     C
H       0.4298  0.39683  0.82322     H
H      0.43115  0.05681  0.29422     H
C       0.4368    0.998   0.7864     C
C       0.4376   0.5018   0.5702     C
H      0.44209  0.46411  0.88817     H
C       0.4427   0.6287    0.479     C
C       0.4439   0.3868   0.8841     C
C       0.4444   0.1363   0.4113     C
H      0.44581  0.86299  0.08856     H
C       0.4482   0.9938   0.4366     C
H      0.44919  0.91773  0.48915     H
C       0.4503   0.5249   0.9237     C
H      0.45102  0.46927  0.48114     H
H      0.45435   0.1973  0.55648     H
O       0.4549   0.5683   0.7197     O
C       0.4559    0.035   0.3429     C
H      0.45667  0.58398    0.972     H
C       0.4627   0.6567   0.4401     C
C       0.4661   0.4859    0.937     C
C       0.4672   0.9986   0.9284     C
H      0.46724  0.94369  0.97857     H
C       0.4708  0.17443   0.5245     C
H      0.47092  0.05752   0.8873     H
C       0.4717   0.5263   0.6281     C
C       0.4717    0.856   0.9927     C
C       0.4718    0.552   0.9844     C
H      0.47262  0.59557  0.58513     H
C       0.4765   0.3602   0.0359     C
C       0.4775   0.4874   0.5354     C
H      0.48038  0.02058  0.79728     H
C        0.487   0.0374   0.9388     C
C       0.4873    0.975    0.987     C
C        0.488   0.8681   0.0665     C
C       0.4891   0.6185   0.5533     C
C       0.5109   0.1185   0.4467     C
C        0.512   0.3681   0.9335     C
C       0.5127    0.475    0.013     C
C        0.513   0.5374   0.0612     C
H      0.51962  0.52058  0.20272     H
C       0.5225   0.9874   0.4646     C
C       0.5235   0.8602   0.9641     C
H      0.52738  0.09557  0.41487     H
C       0.5282    0.052   0.0156     C
C       0.5283   0.0263   0.3719     C
C       0.5283    0.356   0.0073     C
H      0.52908  0.55752   0.1127     H
C       0.5292  0.67443   0.4755     C
H      0.53276  0.44369  0.02143     H
C       0.5328   0.4986   0.0716     C
C       0.5339   0.9859    0.063     C
C       0.5373   0.1567   0.5599     C
H      0.54333  0.08398    0.028     H
C       0.5441    0.535   0.6571     C
O       0.5451   0.0683   0.2803     O
H      0.54565   0.6973  0.44352     H
H      0.54898  0.96927  0.51886     H
C       0.5497   0.0249   0.0763     C
H      0.55081  0.41773  0.51085     H
C       0.5518   0.4938   0.5634     C
H      0.55419  0.36299  0.91144     H
C       0.5556   0.6363   0.5887     C
C       0.5561   0.8868   0.1159     C
C       0.5573   0.1287    0.521     C
H      0.55791  0.96411  0.11183     H
C       0.5624   0.0018   0.4298     C
C       0.5632    0.498   0.2136     C
H      0.56885  0.55681  0.70578     H
H       0.5702  0.89683  0.17678     H
C        0.572   0.0465   0.3372     C
H      0.57436  0.32056  0.28625     H
H      0.57544   0.1651  0.62079     H
C       0.5757   0.6643   0.5499     C
C       0.5763   0.4842   0.1529     C
C       0.5862   0.4379   0.4953     C
H      0.58655  0.39389  0.28595     H
C       0.5902   0.5183   0.6298     C
C       0.5913   0.8773   0.0128     C
H      0.59375  0.62795  0.64962     H
C       0.5976   0.0405   0.1543     C
C       0.5977   0.4781   0.5229     C
C       0.6003   0.3419   0.0572     C
H      0.60031  0.49603  0.34285     H
O       0.6027   0.0748   0.1669     O
H      0.60359  0.37027  0.15822     H
C       0.6051   0.4836   0.2907     C
C       0.6052   0.8921   0.0842     C
H      0.60739   0.3948  0.42794     H
H      0.61075  0.31263  0.95812     H
C       0.6191   0.4258   0.4509     C
H      0.62085  0.99429  0.44693     H
O       0.6251   0.0145   0.2072     O
H      0.62693  0.26465  0.23036     H
C       0.6286   0.3347   0.3204     C
H      0.62986  0.18932  0.23363     H
C       0.6302   0.1057   0.5556     C
H      0.63129  0.71674  0.48781     H
C       0.6316   0.4547   0.1648     C
C       0.6335   0.3524   0.1317     C
H      0.63423  0.87842  0.99085     H
C       0.6348   0.3758   0.3242     C
C       0.6369   0.3205   0.0214     C
O       0.6404  0.08252   0.5151     O
O       0.6408  0.04206   0.3695     O
C       0.6449    0.501   0.5116     C
H      0.64615  0.44255  0.11857     H
H      0.65056   0.5218  0.65293     H
C       0.6506   0.2075   0.2881     C
C       0.6514   0.2483    0.287     C
C       0.6535    0.679   0.5841     C
C       0.6536   0.4527   0.2995     C
H      0.65855  0.53092  0.53956     H
Co     0.66044  0.07047  0.28392    Co
C       0.6631   0.4484   0.4341     C
C       0.6693   0.4409   0.2439     C
O       0.6707   0.1168   0.6213     O
O       0.6717  0.12711   0.3001     O
C       0.6724   0.7066   0.5462     C
C       0.6726   0.9178   0.1317     C
O       0.6734  0.93404   0.1871     O
H      0.67403   0.6485  0.68763     H
C       0.6758   0.1427   0.3599     C
C       0.6769   0.1889   0.3605     C
C       0.6772   0.4885   0.4661     C
O       0.6773   0.1276   0.4208     O
C       0.6819   0.2686   0.3547     C
C       0.6899   0.3114   0.3591     C
C       0.6958   0.6679   0.6548     C
C        0.696   0.4376   0.3784     C
C        0.699   0.3945    0.374     C
H      0.69942  0.06459   0.1459     H
C        0.703   0.2059     0.43     C
C       0.7047   0.3413   0.1763     C
C       0.7071   0.2484   0.4251     C
H      0.70785  0.14188  0.16375     H
C       0.7104   0.3087   0.0691     C
O       0.7121   0.9185   0.0964     O
Co     0.71285  0.07638  0.47069    Co
H      0.71407  0.41892   0.2561     H
H       0.7142  0.50887  0.45347     H
H      0.71878  0.18729   0.4835     H
Co     0.72077  0.98386  0.24989    Co
H      0.73151  0.34769  0.24021     H
H      0.73188  0.26517  0.48124     H
H      0.74161  0.28865  0.04756     H
C       0.7418   0.3227   0.1424     C
C        0.742   0.7228   0.5781     C
O       0.7471  0.02302    0.526     O
O       0.7498   0.0018   0.1628     O
C       0.7512   0.0809   0.1587     C
C       0.7525   0.3285   0.4014     C
C       0.7546   0.1234   0.1666     C
H       0.7561  0.74697  0.54667     H
H      0.75634  0.26356   0.2438     H
O       0.7575  0.04128   0.3106     O
H      0.75823  0.19009  0.25059     H
C       0.7588   0.3699   0.4097     C
O         0.76  0.03147   0.6454     O
C       0.7614   0.0127   0.5921     C
H      0.76248  0.83791  0.71054     H
H      0.76318  0.48634  0.30781     H
Co     0.76436  0.09125  0.64996    Co
C       0.7668   0.6809   0.6863     C
H      0.76723  0.97378  0.71766     H
C       0.7725   0.4544   0.4121     C
C       0.7767   0.9707   0.6091     C
C       0.7793   0.9548   0.6764     C
O       0.7817  0.07035   0.4229     O
H      0.78404  0.35965  0.05261     H
C       0.7867    0.206     0.22     C
C       0.7881   0.2461   0.2189     C
H      0.79084  0.96278  0.50291     H
C       0.7918    0.707   0.6506     C
C       0.7929   0.9486    0.557     C
O       0.7936  0.10816   0.5686     O
H      0.79551  0.76571  0.73864     H
C       0.7977   0.9142   0.6888     C
C       0.7983   0.4796   0.3705     C
C       0.7996   0.0498   0.3814     C
H      0.80031  0.89906  0.74228     H
C       0.8013   0.0163   0.1565     C
C       0.8024   0.8242   0.6917     C
H      0.80248  0.31004   0.4319     H
O       0.8041   0.9411   0.9995     O
H       0.8042  0.66862  0.74448     H
H      0.80443  0.42661  0.52882     H
Co      0.8086  0.94364  0.14226    Co
C       0.8091   0.0615   0.1666     C
H      0.80951  0.15006  0.48472     H
O       0.8113    0.954   0.3167     O
C       0.8124   0.9079   0.5696     C
H      0.81359  0.38291  0.44608     H
C       0.8136   0.8906   0.6362     C
H      0.81593  0.67995  0.54052     H
H      0.81701  0.09144  0.92869     H
C       0.8178   0.7849    0.706     C
C       0.8179   0.1408   0.1779     C
C       0.8214   0.1843   0.1823     C
C       0.8223   0.4459   0.4924     C
H      0.82594  0.89127  0.52663     H
C       0.8261   0.3096   0.1892     C
H      0.82664  0.92358  0.88461     H
C       0.8279    0.265   0.1877     C
H      0.83127  0.11132   0.8165     H
H      0.83134  0.38885  0.22805     H
C       0.8365   0.8483   0.6529     C
C       0.8435   0.3528   0.0836     C
O       0.8463   0.9977    0.142     O
C       0.8553   0.9228   0.0495     C
C       0.8557   0.9327   0.3018     C
C       0.8579   0.1149   0.9345     C
C       0.8589    0.327   0.2694     C
C       0.8611   0.1027    0.591     C
C        0.862   0.2036   0.1512     C
C        0.863   0.3692   0.2788     C
O       0.8636   0.9239   0.2495     O
C       0.8643    0.247   0.1507     C
C       0.8648   0.1277   0.8715     C
C       0.8648   0.7687   0.6769     C
H      0.86626  0.38909  0.00161     H
C       0.8676   0.4974   0.4038     C
C       0.8689    0.146   0.5012     C
C       0.8699   0.7233   0.6826     C
C       0.8702   0.3273   0.1512     C
H      0.87085  0.94731  0.45062     H
C        0.872   0.0772   0.1786     C
O       0.8722   0.9134   0.1075     O
H      0.87495  0.03263  0.52815     H
C       0.8754    0.687   0.5661     C
C       0.8762   0.0329   0.4138     C
H      0.87751  0.03446  0.30425     H
C       0.8789    0.833   0.6285     C
C       0.8796   0.9092   0.9228     C
C       0.8803   0.1192   0.1873     C
H      0.88344  0.65938  0.46549     H
H      0.88357  0.51894  0.36914     H
H      0.88552  0.19546  0.41927     H
H      0.88669  0.26948   0.3271     H
C       0.8894   0.3697   0.0544     C
C       0.8926   0.3024    0.334     C
H      0.89272  0.26533  0.12314     H
C       0.8929   0.4605   0.5284     C
C       0.8936   0.7908   0.6378     C
H      0.89362  0.18622  0.12601     H
O       0.8939   0.0795   0.6462     O
C       0.8995   0.9072   0.0033     C
C       0.8996   0.1213   0.5521     C
H      0.90534   0.8519   0.5996     H
C       0.9056   0.1702   0.4613     C
C        0.906   0.3849   0.3504     C
C       0.9066   0.0256    0.494     C
C       0.9073   0.0272   0.3676     C
H      0.90817  0.16991  0.81405     H
C       0.9084   0.1343   0.0109     C
C        0.909   0.7091   0.6389     C
H      0.90906  0.12373  0.06696     H
H      0.90925  0.64952  0.72316     H
C         0.91   0.1593   0.8706     C
C       0.9104   0.6735   0.5243     C
C       0.9107   0.9145   0.3793     C
C       0.9112   0.9252   0.4491     C
H      0.91147   0.8923  0.82526     H
H      0.91223  0.41785  0.35628     H
C       0.9141   0.7095   0.7638     C
C       0.9148   0.4869   0.4814     C
H      0.91862  0.05842  0.18207     H
H      0.91911  0.20279   0.3471     H
C       0.9258   0.8932    0.889     C
H      0.92853  0.77651  0.61286     H
C       0.9293     0.67   0.7744     C
H      0.93138  0.76888  0.82372     H
H       0.9322  0.45319  0.58948     H
H      0.93267  0.13504  0.20083     H
C       0.9335   0.3197   0.4068     C
H      0.93391  0.36547  0.93946     H
H      0.93531  0.62425  0.44626     H
C       0.9406   0.3614   0.4133     C
C       0.9406   0.7361   0.8273     C
C       0.9456   0.3235   0.1887     C
H      0.94668   0.8735  0.31307     H
H       0.9491  0.83348  0.81079     H
C       0.9518   0.1644   0.0082     C
C       0.9539   0.8834   0.3721     C
H      0.95774  0.34402  0.55572     H
H      0.96041  0.30055  0.45955     H
C       0.9607   0.9088   0.5155     C
C       0.9617   0.3618   0.0919     C
C       0.9633   0.1802   0.9474     C
H      0.96417  0.91881  0.57308     H
C       0.9674   0.8938   0.0537     C
H      0.96885  0.30693  0.24513     H
C       0.9709   0.6548   0.8511     C
C       0.9733    0.109    0.582     C
C       0.9741   0.1566   0.4843     C
C       0.9758   0.0097   0.5272     C
C       0.9779   0.0119   0.4037     C
C       0.9794   0.1987   0.3709     C
H      0.98186  0.62226  0.86014     H
C       0.9829   0.6781   0.5586     C
C       0.9829   0.7176   0.9018     C
H      0.98441  0.22876  0.27786     H
H      0.98507  0.89548  0.11804     H
C       0.9857   0.7127   0.6658     C
C       0.9876   0.3781   0.9805     C
C       0.9885    0.505   0.5178     C
C       0.9909    0.339   0.1594     C
H       0.9916  0.50497  0.63171     H
C       0.9928   0.3798   0.4866     C
C       0.9933    0.878   0.9432     C
C       0.9937   0.6298   0.4596     C
H      0.99479  0.08662     0.63     H
H      0.99516  0.23775  0.04648     H
C       0.9961   0.6794   0.9108     C
C       0.9967   0.3677   0.5569     C
H      0.99766  0.50078  0.41008     H
H      0.99843  0.70353  0.05451     H
