# generated using pymatgen
data_MgH6(C3O)4
_symmetry_space_group_name_H-M   'P 1'
_cell_length_a   11.25261215
_cell_length_b   11.25261215
_cell_length_c   20.97460000
_cell_angle_alpha   95.74169747
_cell_angle_beta   95.74169747
_cell_angle_gamma   106.79413026
_symmetry_Int_Tables_number   1
_chemical_formula_structural   MgH6(C3O)4
_chemical_formula_sum   'Mg6 H36 C72 O24'
_cell_volume   2506.51330307
_cell_formula_units_Z   6
loop_
 _symmetry_equiv_pos_site_id
 _symmetry_equiv_pos_as_xyz
  1  'x, y, z'
loop_
 _atom_site_type_symbol
 _atom_site_label
 _atom_site_symmetry_multiplicity
 _atom_site_fract_x
 _atom_site_fract_y
 _atom_site_fract_z
 _atom_site_occupancy
  C  C0  1  0.88653000  0.06447000  0.90551000  1
  C  C1  1  0.06447000  0.88653000  0.40551000  1
  C  C2  1  0.50070000  0.42690000  0.60972000  1
  C  C3  1  0.42690000  0.50070000  0.10972000  1
  C  C4  1  0.55144000  0.37516000  0.90518000  1
  C  C5  1  0.37516000  0.55144000  0.40518000  1
  C  C6  1  0.48830000  0.43810000  0.00765000  1
  C  C7  1  0.43810000  0.48830000  0.50765000  1
  C  C8  1  0.94434000  0.95066000  0.98938000  1
  C  C9  1  0.95066000  0.94434000  0.48938000  1
  C  C10  1  0.79486000  0.07754000  0.85057000  1
  C  C11  1  0.07754000  0.79486000  0.35057000  1
  C  C12  1  0.58424000  0.27776000  0.85994000  1
  C  C13  1  0.27776000  0.58424000  0.35994000  1
  C  C14  1  0.44640000  0.41100000  0.06759000  1
  C  C15  1  0.41100000  0.44640000  0.56759000  1
  C  C16  1  0.50870000  0.34570000  0.96216000  1
  C  C17  1  0.34570000  0.50870000  0.46216000  1
  C  C18  1  0.83671000  0.99989000  0.57328000  1
  C  C19  1  0.99989000  0.83671000  0.07328000  1
  C  C20  1  0.86129000  0.96011000  0.93679000  1
  C  C21  1  0.96011000  0.86129000  0.43679000  1
  C  C22  1  0.84410000  0.91810000  0.52275000  1
  C  C23  1  0.91810000  0.84410000  0.02275000  1
  C  C24  1  0.51203000  0.16217000  0.48254000  1
  C  C25  1  0.16217000  0.51203000  0.98254000  1
  C  C26  1  0.49453000  0.14667000  0.41682000  1
  C  C27  1  0.14667000  0.49453000  0.91682000  1
  C  C28  1  0.53221000  0.07479000  0.58630000  1
  C  C29  1  0.07479000  0.53221000  0.08630000  1
  C  C30  1  0.51088000  0.06032000  0.51723000  1
  C  C31  1  0.06032000  0.51088000  0.01723000  1
  C  C32  1  0.53976000  0.98844000  0.69027000  1
  C  C33  1  0.98844000  0.53976000  0.19027000  1
  C  C34  1  0.52824000  0.97416000  0.61799000  1
  C  C35  1  0.97416000  0.52824000  0.11799000  1
  C  C36  1  0.47176000  0.02584000  0.38201000  1
  C  C37  1  0.02584000  0.47176000  0.88201000  1
  C  C38  1  0.46024000  0.01156000  0.30973000  1
  C  C39  1  0.01156000  0.46024000  0.80973000  1
  C  C40  1  0.48912000  0.93968000  0.48277000  1
  C  C41  1  0.93968000  0.48912000  0.98277000  1
  C  C42  1  0.46779000  0.92521000  0.41370000  1
  C  C43  1  0.92521000  0.46779000  0.91370000  1
  C  C44  1  0.50547000  0.85333000  0.58318000  1
  C  C45  1  0.85333000  0.50547000  0.08318000  1
  C  C46  1  0.48797000  0.83783000  0.51746000  1
  C  C47  1  0.83783000  0.48797000  0.01746000  1
  C  C48  1  0.15590000  0.08190000  0.47725000  1
  C  C49  1  0.08190000  0.15590000  0.97725000  1
  C  C50  1  0.13871000  0.03989000  0.06321000  1
  C  C51  1  0.03989000  0.13871000  0.56321000  1
  C  C52  1  0.16329000  0.00011000  0.42672000  1
  C  C53  1  0.00011000  0.16329000  0.92672000  1
  C  C54  1  0.49130000  0.65430000  0.03784000  1
  C  C55  1  0.65430000  0.49130000  0.53784000  1
  C  C56  1  0.55360000  0.58900000  0.93241000  1
  C  C57  1  0.58900000  0.55360000  0.43241000  1
  C  C58  1  0.41576000  0.72224000  0.14006000  1
  C  C59  1  0.72224000  0.41576000  0.64006000  1
  C  C60  1  0.20514000  0.92246000  0.14943000  1
  C  C61  1  0.92246000  0.20514000  0.64943000  1
  C  C62  1  0.05566000  0.04934000  0.01062000  1
  C  C63  1  0.04934000  0.05566000  0.51062000  1
  C  C64  1  0.51170000  0.56190000  0.99235000  1
  C  C65  1  0.56190000  0.51170000  0.49235000  1
  C  C66  1  0.44856000  0.62484000  0.09482000  1
  C  C67  1  0.62484000  0.44856000  0.59482000  1
  C  C68  1  0.49930000  0.57310000  0.39028000  1
  C  C69  1  0.57310000  0.49930000  0.89028000  1
  C  C70  1  0.11347000  0.93553000  0.09449000  1
  C  C71  1  0.93553000  0.11347000  0.59449000  1
  H  H72  1  0.48060000  0.39900000  0.64870000  1
  H  H73  1  0.39900000  0.48060000  0.14870000  1
  H  H74  1  0.52500000  0.24120000  0.50520000  1
  H  H75  1  0.24120000  0.52500000  0.00520000  1
  H  H76  1  0.43220000  0.33020000  0.07820000  1
  H  H77  1  0.33020000  0.43220000  0.57820000  1
  H  H78  1  0.49280000  0.26380000  0.97140000  1
  H  H79  1  0.26380000  0.49280000  0.47140000  1
  H  H80  1  0.76610000  0.98150000  0.59440000  1
  H  H81  1  0.98150000  0.76610000  0.09440000  1
  H  H82  1  0.49760000  0.21500000  0.39480000  1
  H  H83  1  0.21500000  0.49760000  0.89480000  1
  H  H84  1  0.54900000  0.15380000  0.60980000  1
  H  H85  1  0.15380000  0.54900000  0.10980000  1
  H  H86  1  0.78800000  0.89460000  0.92290000  1
  H  H87  1  0.89460000  0.78800000  0.42290000  1
  H  H88  1  0.77880000  0.84440000  0.50990000  1
  H  H89  1  0.84440000  0.77880000  0.00990000  1
  H  H90  1  0.22120000  0.15560000  0.49010000  1
  H  H91  1  0.15560000  0.22120000  0.99010000  1
  H  H92  1  0.21200000  0.10540000  0.07710000  1
  H  H93  1  0.10540000  0.21200000  0.57710000  1
  H  H94  1  0.45100000  0.84620000  0.39020000  1
  H  H95  1  0.84620000  0.45100000  0.89020000  1
  H  H96  1  0.50240000  0.78500000  0.60520000  1
  H  H97  1  0.78500000  0.50240000  0.10520000  1
  H  H98  1  0.23390000  0.01850000  0.40560000  1
  H  H99  1  0.01850000  0.23390000  0.90560000  1
  H  H100  1  0.50720000  0.73620000  0.02860000  1
  H  H101  1  0.73620000  0.50720000  0.52860000  1
  H  H102  1  0.56780000  0.66980000  0.92180000  1
  H  H103  1  0.66980000  0.56780000  0.42180000  1
  H  H104  1  0.47500000  0.75880000  0.49480000  1
  H  H105  1  0.75880000  0.47500000  0.99480000  1
  H  H106  1  0.51940000  0.60100000  0.35130000  1
  H  H107  1  0.60100000  0.51940000  0.85130000  1
  Mg  Mg108  1  0.74754000  0.25246000  0.75000000  1
  Mg  Mg109  1  0.25246000  0.74754000  0.25000000  1
  Mg  Mg110  1  0.51876000  0.00076000  0.80882000  1
  Mg  Mg111  1  0.00076000  0.51876000  0.30882000  1
  Mg  Mg112  1  0.48124000  0.99924000  0.19118000  1
  Mg  Mg113  1  0.99924000  0.48124000  0.69118000  1
  O  O114  1  0.82631000  0.16867000  0.82132000  1
  O  O115  1  0.16867000  0.82631000  0.32132000  1
  O  O116  1  0.64659000  0.31901000  0.81661000  1
  O  O117  1  0.31901000  0.64659000  0.31661000  1
  O  O118  1  0.54728000  0.16752000  0.86985000  1
  O  O119  1  0.16752000  0.54728000  0.36985000  1
  O  O120  1  0.69016000  0.99376000  0.84121000  1
  O  O121  1  0.99376000  0.69016000  0.34121000  1
  O  O122  1  0.58490000  0.09506000  0.72330000  1
  O  O123  1  0.09506000  0.58490000  0.22330000  1
  O  O124  1  0.50224000  0.10742000  0.28278000  1
  O  O125  1  0.10742000  0.50224000  0.78278000  1
  O  O126  1  0.49776000  0.89258000  0.71722000  1
  O  O127  1  0.89258000  0.49776000  0.21722000  1
  O  O128  1  0.41510000  0.90494000  0.27670000  1
  O  O129  1  0.90494000  0.41510000  0.77670000  1
  O  O130  1  0.30984000  0.00624000  0.15879000  1
  O  O131  1  0.00624000  0.30984000  0.65879000  1
  O  O132  1  0.45272000  0.83248000  0.13015000  1
  O  O133  1  0.83248000  0.45272000  0.63015000  1
  O  O134  1  0.35341000  0.68099000  0.18339000  1
  O  O135  1  0.68099000  0.35341000  0.68339000  1
  O  O136  1  0.17369000  0.83133000  0.17868000  1
  O  O137  1  0.83133000  0.17369000  0.67868000  1
