# generated using pymatgen
data_Co3H27C44S3NO18
_symmetry_space_group_name_H-M   'P 1'
_cell_length_a   16.70330000
_cell_length_b   17.46020000
_cell_length_c   20.01950000
_cell_angle_alpha   90.00000000
_cell_angle_beta   90.00000000
_cell_angle_gamma   100.42300000
_symmetry_Int_Tables_number   1
_chemical_formula_structural   Co3H27C44S3NO18
_chemical_formula_sum   'Co12 H108 C176 S12 N4 O72'
_cell_volume   5742.20393096
_cell_formula_units_Z   4
loop_
 _symmetry_equiv_pos_site_id
 _symmetry_equiv_pos_as_xyz
  1  'x, y, z'
loop_
 _atom_site_type_symbol
 _atom_site_label
 _atom_site_symmetry_multiplicity
 _atom_site_fract_x
 _atom_site_fract_y
 _atom_site_fract_z
 _atom_site_occupancy
  Co  Co0  1  0.96116000  0.74535000  0.83505000  1
  Co  Co1  1  0.91311000  0.05737000  0.14345000  1
  Co  Co2  1  0.85644000  0.55527000  0.87458000  1
  Co  Co3  1  0.64356000  0.94473000  0.37458000  1
  Co  Co4  1  0.58689000  0.44263000  0.64345000  1
  Co  Co5  1  0.53884000  0.75465000  0.33505000  1
  Co  Co6  1  0.46116000  0.24535000  0.66495000  1
  Co  Co7  1  0.41311000  0.55737000  0.35655000  1
  Co  Co8  1  0.35644000  0.05527000  0.62542000  1
  Co  Co9  1  0.14356000  0.44473000  0.12542000  1
  Co  Co10  1  0.08689000  0.94263000  0.85655000  1
  Co  Co11  1  0.03884000  0.25465000  0.16495000  1
  H  H12  1  0.99970000  0.56190000  0.06880000  1
  H  H13  1  0.99150000  0.74580000  0.53810000  1
  H  H14  1  0.98920000  0.77440000  0.99500000  1
  H  H15  1  0.98730000  0.76190000  0.65330000  1
  H  H16  1  0.98330000  0.60970000  0.37220000  1
  H  H17  1  0.97920000  0.90170000  0.24490000  1
  H  H18  1  0.96900000  0.17020000  0.90190000  1
  H  H19  1  0.96600000  0.44080000  0.72370000  1
  H  H20  1  0.95960000  0.38260000  0.82830000  1
  H  H21  1  0.93550000  0.34160000  0.33500000  1
  H  H22  1  0.90560000  0.66870000  0.25900000  1
  H  H23  1  0.90510000  0.30930000  0.55570000  1
  H  H24  1  0.88680000  0.39080000  0.43050000  1
  H  H25  1  0.88530000  0.03280000  0.95150000  1
  H  H26  1  0.88220000  0.02150000  0.36420000  1
  H  H27  1  0.88000000  0.86140000  0.50840000  1
  H  H28  1  0.87950000  0.03620000  0.47870000  1
  H  H29  1  0.87470000  0.84250000  0.43180000  1
  H  H30  1  0.85070000  0.92100000  0.27720000  1
  H  H31  1  0.83380000  0.67200000  0.44010000  1
  H  H32  1  0.82720000  0.34890000  0.13520000  1
  H  H33  1  0.81530000  0.79170000  0.48180000  1
  H  H34  1  0.79520000  0.80690000  0.91290000  1
  H  H35  1  0.78900000  0.09940000  0.61730000  1
  H  H36  1  0.78840000  0.36060000  0.57310000  1
  H  H37  1  0.77510000  0.68750000  0.28630000  1
  H  H38  1  0.75910000  0.05230000  0.98460000  1
  H  H39  1  0.74090000  0.44770000  0.48460000  1
  H  H40  1  0.72490000  0.81250000  0.78630000  1
  H  H41  1  0.71160000  0.13940000  0.07310000  1
  H  H42  1  0.71100000  0.40060000  0.11730000  1
  H  H43  1  0.70480000  0.69310000  0.41290000  1
  H  H44  1  0.68470000  0.70830000  0.98180000  1
  H  H45  1  0.67280000  0.15110000  0.63520000  1
  H  H46  1  0.66620000  0.82800000  0.94010000  1
  H  H47  1  0.64930000  0.57900000  0.77720000  1
  H  H48  1  0.62530000  0.65750000  0.93180000  1
  H  H49  1  0.62050000  0.46380000  0.97870000  1
  H  H50  1  0.62000000  0.63860000  0.00840000  1
  H  H51  1  0.61780000  0.47850000  0.86420000  1
  H  H52  1  0.61470000  0.46720000  0.45150000  1
  H  H53  1  0.61320000  0.10920000  0.93050000  1
  H  H54  1  0.59490000  0.19070000  0.05570000  1
  H  H55  1  0.59440000  0.83130000  0.75900000  1
  H  H56  1  0.56450000  0.15840000  0.83500000  1
  H  H57  1  0.54040000  0.11740000  0.32830000  1
  H  H58  1  0.53400000  0.05920000  0.22370000  1
  H  H59  1  0.53100000  0.32980000  0.40190000  1
  H  H60  1  0.52080000  0.59830000  0.74490000  1
  H  H61  1  0.51670000  0.89030000  0.87220000  1
  H  H62  1  0.51270000  0.73810000  0.15330000  1
  H  H63  1  0.51080000  0.72560000  0.49500000  1
  H  H64  1  0.50850000  0.75420000  0.03810000  1
  H  H65  1  0.50030000  0.93810000  0.56880000  1
  H  H66  1  0.49970000  0.06190000  0.43120000  1
  H  H67  1  0.49150000  0.24580000  0.96190000  1
  H  H68  1  0.48920000  0.27440000  0.50500000  1
  H  H69  1  0.48730000  0.26190000  0.84670000  1
  H  H70  1  0.48330000  0.10970000  0.12780000  1
  H  H71  1  0.47920000  0.40170000  0.25510000  1
  H  H72  1  0.46900000  0.67020000  0.59810000  1
  H  H73  1  0.46600000  0.94080000  0.77630000  1
  H  H74  1  0.45960000  0.88260000  0.67170000  1
  H  H75  1  0.43550000  0.84160000  0.16500000  1
  H  H76  1  0.40560000  0.16870000  0.24100000  1
  H  H77  1  0.40510000  0.80930000  0.94430000  1
  H  H78  1  0.38680000  0.89080000  0.06950000  1
  H  H79  1  0.38530000  0.53280000  0.54850000  1
  H  H80  1  0.38220000  0.52150000  0.13580000  1
  H  H81  1  0.38000000  0.36140000  0.99160000  1
  H  H82  1  0.37950000  0.53620000  0.02130000  1
  H  H83  1  0.37470000  0.34250000  0.06820000  1
  H  H84  1  0.35070000  0.42100000  0.22280000  1
  H  H85  1  0.33380000  0.17200000  0.05990000  1
  H  H86  1  0.32720000  0.84890000  0.36480000  1
  H  H87  1  0.31530000  0.29170000  0.01820000  1
  H  H88  1  0.29520000  0.30690000  0.58710000  1
  H  H89  1  0.28900000  0.59940000  0.88270000  1
  H  H90  1  0.28840000  0.86060000  0.92690000  1
  H  H91  1  0.27510000  0.18750000  0.21370000  1
  H  H92  1  0.25910000  0.55230000  0.51540000  1
  H  H93  1  0.24090000  0.94770000  0.01540000  1
  H  H94  1  0.22490000  0.31250000  0.71370000  1
  H  H95  1  0.21160000  0.63940000  0.42690000  1
  H  H96  1  0.21100000  0.90060000  0.38270000  1
  H  H97  1  0.20480000  0.19310000  0.08710000  1
  H  H98  1  0.18470000  0.20830000  0.51820000  1
  H  H99  1  0.17280000  0.65110000  0.86480000  1
  H  H100  1  0.16620000  0.32800000  0.55990000  1
  H  H101  1  0.14930000  0.07900000  0.72280000  1
  H  H102  1  0.12530000  0.15750000  0.56820000  1
  H  H103  1  0.12050000  0.96380000  0.52130000  1
  H  H104  1  0.12000000  0.13860000  0.49160000  1
  H  H105  1  0.11780000  0.97850000  0.63580000  1
  H  H106  1  0.11470000  0.96720000  0.04850000  1
  H  H107  1  0.11320000  0.60920000  0.56950000  1
  H  H108  1  0.09490000  0.69070000  0.44430000  1
  H  H109  1  0.09440000  0.33130000  0.74100000  1
  H  H110  1  0.06450000  0.65840000  0.66500000  1
  H  H111  1  0.04040000  0.61740000  0.17170000  1
  H  H112  1  0.03400000  0.55920000  0.27630000  1
  H  H113  1  0.03100000  0.82980000  0.09810000  1
  H  H114  1  0.02080000  0.09830000  0.75510000  1
  H  H115  1  0.01670000  0.39030000  0.62780000  1
  H  H116  1  0.01270000  0.23810000  0.34670000  1
  H  H117  1  0.01080000  0.22560000  0.00500000  1
  H  H118  1  0.00850000  0.25420000  0.46190000  1
  H  H119  1  0.00030000  0.43810000  0.93120000  1
  C  C120  1  0.99790000  0.74290000  0.03070000  1
  C  C121  1  0.99590000  0.38480000  0.92480000  1
  C  C122  1  0.99550000  0.47420000  0.69270000  1
  C  C123  1  0.99030000  0.44490000  0.29610000  1
  C  C124  1  0.98640000  0.66250000  0.02280000  1
  C  C125  1  0.98620000  0.19770000  0.37330000  1
  C  C126  1  0.98410000  0.20760000  0.44230000  1
  C  C127  1  0.97750000  0.22390000  0.90760000  1
  C  C128  1  0.97450000  0.58870000  0.76400000  1
  C  C129  1  0.97430000  0.55620000  0.36470000  1
  C  C130  1  0.97170000  0.35170000  0.86340000  1
  C  C131  1  0.96580000  0.27260000  0.85490000  1
  C  C132  1  0.95600000  0.12020000  0.26890000  1
  C  C133  1  0.95340000  0.78360000  0.25010000  1
  C  C134  1  0.94910000  0.12790000  0.34360000  1
  C  C135  1  0.94700000  0.62400000  0.96140000  1
  C  C136  1  0.94550000  0.39500000  0.34260000  1
  C  C137  1  0.94450000  0.14620000  0.48100000  1
  C  C138  1  0.93830000  0.85940000  0.25430000  1
  C  C139  1  0.93370000  0.90500000  0.90600000  1
  C  C140  1  0.93120000  0.50570000  0.41000000  1
  C  C141  1  0.91620000  0.42420000  0.39930000  1
  C  C142  1  0.90820000  0.06770000  0.38380000  1
  C  C143  1  0.90620000  0.07650000  0.45210000  1
  C  C144  1  0.89380000  0.71870000  0.26210000  1
  C  C145  1  0.86170000  0.87090000  0.27270000  1
  C  C146  1  0.85790000  0.27760000  0.57110000  1
  C  C147  1  0.85710000  0.20510000  0.11650000  1
  C  C148  1  0.85700000  0.19940000  0.58390000  1
  C  C149  1  0.85260000  0.91780000  0.92760000  1
  C  C150  1  0.84390000  0.84330000  0.47220000  1
  C  C151  1  0.84120000  0.99190000  0.94990000  1
  C  C152  1  0.81650000  0.73000000  0.27880000  1
  C  C153  1  0.80110000  0.80620000  0.28450000  1
  C  C154  1  0.79870000  0.55770000  0.46460000  1
  C  C155  1  0.78920000  0.63170000  0.44290000  1
  C  C156  1  0.78860000  0.15160000  0.60810000  1
  C  C157  1  0.78820000  0.30810000  0.58140000  1
  C  C158  1  0.78730000  0.85620000  0.92570000  1
  C  C159  1  0.78240000  0.67970000  0.80470000  1
  C  C160  1  0.78170000  0.23940000  0.10400000  1
  C  C161  1  0.78060000  0.31740000  0.11840000  1
  C  C162  1  0.77750000  0.90260000  0.46260000  1
  C  C163  1  0.76650000  0.00390000  0.96900000  1
  C  C164  1  0.73350000  0.49610000  0.46900000  1
  C  C165  1  0.72250000  0.59740000  0.96260000  1
  C  C166  1  0.71940000  0.18260000  0.61840000  1
  C  C167  1  0.71830000  0.26060000  0.60400000  1
  C  C168  1  0.71760000  0.82030000  0.30470000  1
  C  C169  1  0.71270000  0.64380000  0.42570000  1
  C  C170  1  0.71180000  0.19190000  0.08140000  1
  C  C171  1  0.71140000  0.34840000  0.10810000  1
  C  C172  1  0.71080000  0.86830000  0.94290000  1
  C  C173  1  0.70130000  0.94230000  0.96460000  1
  C  C174  1  0.69890000  0.69380000  0.78450000  1
  C  C175  1  0.68350000  0.77000000  0.77880000  1
  C  C176  1  0.65880000  0.50810000  0.44990000  1
  C  C177  1  0.65610000  0.65670000  0.97220000  1
  C  C178  1  0.64740000  0.58220000  0.42760000  1
  C  C179  1  0.64300000  0.30060000  0.08390000  1
  C  C180  1  0.64290000  0.29490000  0.61650000  1
  C  C181  1  0.64210000  0.22240000  0.07110000  1
  C  C182  1  0.63830000  0.62910000  0.77270000  1
  C  C183  1  0.60620000  0.78130000  0.76210000  1
  C  C184  1  0.59380000  0.42350000  0.95210000  1
  C  C185  1  0.59180000  0.43230000  0.88380000  1
  C  C186  1  0.58380000  0.07580000  0.89930000  1
  C  C187  1  0.56880000  0.99430000  0.91000000  1
  C  C188  1  0.56630000  0.59500000  0.40600000  1
  C  C189  1  0.56170000  0.64060000  0.75430000  1
  C  C190  1  0.55550000  0.35380000  0.98100000  1
  C  C191  1  0.55450000  0.10500000  0.84260000  1
  C  C192  1  0.55300000  0.87600000  0.46140000  1
  C  C193  1  0.55090000  0.37210000  0.84360000  1
  C  C194  1  0.54660000  0.71640000  0.75010000  1
  C  C195  1  0.54400000  0.37980000  0.76890000  1
  C  C196  1  0.53420000  0.22740000  0.35490000  1
  C  C197  1  0.52830000  0.14830000  0.36340000  1
  C  C198  1  0.52570000  0.94380000  0.86470000  1
  C  C199  1  0.52550000  0.91130000  0.26400000  1
  C  C200  1  0.52250000  0.27610000  0.40760000  1
  C  C201  1  0.51590000  0.29240000  0.94230000  1
  C  C202  1  0.51380000  0.30230000  0.87330000  1
  C  C203  1  0.51360000  0.83750000  0.52280000  1
  C  C204  1  0.50970000  0.05510000  0.79610000  1
  C  C205  1  0.50450000  0.02580000  0.19270000  1
  C  C206  1  0.50410000  0.11520000  0.42480000  1
  C  C207  1  0.50210000  0.75710000  0.53070000  1
  C  C208  1  0.49790000  0.24290000  0.46930000  1
  C  C209  1  0.49590000  0.88480000  0.57520000  1
  C  C210  1  0.49550000  0.97420000  0.80730000  1
  C  C211  1  0.49030000  0.94490000  0.20390000  1
  C  C212  1  0.48640000  0.16250000  0.47720000  1
  C  C213  1  0.48620000  0.69770000  0.12670000  1
  C  C214  1  0.48410000  0.70760000  0.05770000  1
  C  C215  1  0.47750000  0.72390000  0.59240000  1
  C  C216  1  0.47450000  0.08870000  0.73600000  1
  C  C217  1  0.47430000  0.05620000  0.13530000  1
  C  C218  1  0.47170000  0.85170000  0.63660000  1
  C  C219  1  0.46580000  0.77260000  0.64510000  1
  C  C220  1  0.45600000  0.62020000  0.23110000  1
  C  C221  1  0.45340000  0.28360000  0.24990000  1
  C  C222  1  0.44910000  0.62790000  0.15640000  1
  C  C223  1  0.44700000  0.12400000  0.53860000  1
  C  C224  1  0.44550000  0.89500000  0.15740000  1
  C  C225  1  0.44450000  0.64620000  0.01900000  1
  C  C226  1  0.43830000  0.35940000  0.24570000  1
  C  C227  1  0.43370000  0.40500000  0.59400000  1
  C  C228  1  0.43120000  0.00570000  0.09000000  1
  C  C229  1  0.41620000  0.92420000  0.10070000  1
  C  C230  1  0.40820000  0.56770000  0.11620000  1
  C  C231  1  0.40620000  0.57650000  0.04790000  1
  C  C232  1  0.39380000  0.21870000  0.23790000  1
  C  C233  1  0.36170000  0.37090000  0.22730000  1
  C  C234  1  0.35790000  0.77760000  0.92890000  1
  C  C235  1  0.35710000  0.70510000  0.38350000  1
  C  C236  1  0.35700000  0.69940000  0.91610000  1
  C  C237  1  0.35260000  0.41780000  0.57240000  1
  C  C238  1  0.34390000  0.34330000  0.02780000  1
  C  C239  1  0.34120000  0.49190000  0.55010000  1
  C  C240  1  0.31650000  0.23000000  0.22120000  1
  C  C241  1  0.30110000  0.30620000  0.21550000  1
  C  C242  1  0.29870000  0.05770000  0.03540000  1
  C  C243  1  0.28920000  0.13170000  0.05710000  1
  C  C244  1  0.28860000  0.65160000  0.89190000  1
  C  C245  1  0.28820000  0.80810000  0.91860000  1
  C  C246  1  0.28730000  0.35620000  0.57430000  1
  C  C247  1  0.28240000  0.17970000  0.69530000  1
  C  C248  1  0.28170000  0.73940000  0.39600000  1
  C  C249  1  0.28060000  0.81740000  0.38160000  1
  C  C250  1  0.27750000  0.40260000  0.03740000  1
  C  C251  1  0.26650000  0.50390000  0.53100000  1
  C  C252  1  0.23350000  0.99610000  0.03100000  1
  C  C253  1  0.22250000  0.09740000  0.53740000  1
  C  C254  1  0.21940000  0.68260000  0.88160000  1
  C  C255  1  0.21830000  0.76060000  0.89600000  1
  C  C256  1  0.21760000  0.32030000  0.19530000  1
  C  C257  1  0.21270000  0.14380000  0.07430000  1
  C  C258  1  0.21180000  0.69190000  0.41860000  1
  C  C259  1  0.21140000  0.84840000  0.39190000  1
  C  C260  1  0.21080000  0.36830000  0.55710000  1
  C  C261  1  0.20130000  0.44230000  0.53540000  1
  C  C262  1  0.19890000  0.19380000  0.71550000  1
  C  C263  1  0.18350000  0.27000000  0.72120000  1
  C  C264  1  0.15880000  0.00810000  0.05010000  1
  C  C265  1  0.15610000  0.15670000  0.52780000  1
  C  C266  1  0.14740000  0.08220000  0.07240000  1
  C  C267  1  0.14300000  0.80060000  0.41610000  1
  C  C268  1  0.14290000  0.79490000  0.88350000  1
  C  C269  1  0.14210000  0.72240000  0.42890000  1
  C  C270  1  0.13830000  0.12910000  0.72730000  1
  C  C271  1  0.10620000  0.28130000  0.73790000  1
  C  C272  1  0.09380000  0.92350000  0.54790000  1
  C  C273  1  0.09180000  0.93230000  0.61620000  1
  C  C274  1  0.08380000  0.57580000  0.60070000  1
  C  C275  1  0.06880000  0.49430000  0.59000000  1
  C  C276  1  0.06630000  0.09500000  0.09400000  1
  C  C277  1  0.06170000  0.14060000  0.74570000  1
  C  C278  1  0.05550000  0.85380000  0.51900000  1
  C  C279  1  0.05450000  0.60500000  0.65740000  1
  C  C280  1  0.05300000  0.37600000  0.03860000  1
  C  C281  1  0.05090000  0.87210000  0.65640000  1
  C  C282  1  0.04660000  0.21640000  0.74990000  1
  C  C283  1  0.04400000  0.87980000  0.73110000  1
  C  C284  1  0.03420000  0.72740000  0.14510000  1
  C  C285  1  0.02830000  0.64830000  0.13660000  1
  C  C286  1  0.02570000  0.44380000  0.63530000  1
  C  C287  1  0.02550000  0.41130000  0.23600000  1
  C  C288  1  0.02250000  0.77610000  0.09240000  1
  C  C289  1  0.01590000  0.79240000  0.55770000  1
  C  C290  1  0.01380000  0.80230000  0.62670000  1
  C  C291  1  0.01360000  0.33750000  0.97720000  1
  C  C292  1  0.00970000  0.55510000  0.70390000  1
  C  C293  1  0.00450000  0.52580000  0.30730000  1
  C  C294  1  0.00410000  0.61520000  0.07520000  1
  C  C295  1  0.00210000  0.25710000  0.96930000  1
  S  S296  1  0.94897000  0.23212000  0.77362000  1
  S  S297  1  0.94437000  0.15856000  0.56881000  1
  S  S298  1  0.89628000  0.54112000  0.48467000  1
  S  S299  1  0.60372000  0.95888000  0.98467000  1
  S  S300  1  0.55563000  0.34144000  0.06881000  1
  S  S301  1  0.55103000  0.26788000  0.27362000  1
  S  S302  1  0.44897000  0.73212000  0.72638000  1
  S  S303  1  0.44437000  0.65856000  0.93119000  1
  S  S304  1  0.39628000  0.04112000  0.01533000  1
  S  S305  1  0.10372000  0.45888000  0.51533000  1
  S  S306  1  0.05563000  0.84144000  0.43119000  1
  S  S307  1  0.05103000  0.76788000  0.22638000  1
  N  N308  1  0.76660000  0.56570000  0.95080000  1
  N  N309  1  0.73340000  0.93430000  0.45080000  1
  N  N310  1  0.26660000  0.06570000  0.54920000  1
  N  N311  1  0.23340000  0.43430000  0.04920000  1
  O  O312  1  0.99440000  0.83020000  0.76030000  1
  O  O313  1  0.98630000  0.78390000  0.41400000  1
  O  O314  1  0.98610000  0.96500000  0.89350000  1
  O  O315  1  0.97850000  0.66200000  0.76590000  1
  O  O316  1  0.94520000  0.83580000  0.90070000  1
  O  O317  1  0.94510000  0.61620000  0.49970000  1
  O  O318  1  0.94250000  0.53960000  0.80730000  1
  O  O319  1  0.93370000  0.08200000  0.59900000  1
  O  O320  1  0.92820000  0.55130000  0.96020000  1
  O  O321  1  0.92790000  0.66570000  0.91410000  1
  O  O322  1  0.92640000  0.29130000  0.73080000  1
  O  O323  1  0.91760000  0.25100000  0.13730000  1
  O  O324  1  0.91060000  0.06250000  0.24180000  1
  O  O325  1  0.89700000  0.15660000  0.77870000  1
  O  O326  1  0.88760000  0.47900000  0.53340000  1
  O  O327  1  0.85120000  0.13220000  0.10540000  1
  O  O328  1  0.83860000  0.73750000  0.80860000  1
  O  O329  1  0.78640000  0.60870000  0.81660000  1
  O  O330  1  0.71360000  0.89130000  0.31660000  1
  O  O331  1  0.66140000  0.76250000  0.30860000  1
  O  O332  1  0.64880000  0.36780000  0.60540000  1
  O  O333  1  0.61240000  0.02100000  0.03340000  1
  O  O334  1  0.60300000  0.34340000  0.27870000  1
  O  O335  1  0.58940000  0.43750000  0.74180000  1
  O  O336  1  0.58240000  0.24900000  0.63730000  1
  O  O337  1  0.57360000  0.20870000  0.23080000  1
  O  O338  1  0.57210000  0.83430000  0.41410000  1
  O  O339  1  0.57180000  0.94870000  0.46020000  1
  O  O340  1  0.56630000  0.41800000  0.09900000  1
  O  O341  1  0.55750000  0.96040000  0.30730000  1
  O  O342  1  0.55490000  0.88380000  0.99970000  1
  O  O343  1  0.55480000  0.66420000  0.40070000  1
  O  O344  1  0.52150000  0.83800000  0.26590000  1
  O  O345  1  0.51390000  0.53500000  0.39350000  1
  O  O346  1  0.51370000  0.71610000  0.91400000  1
  O  O347  1  0.50560000  0.66980000  0.26030000  1
  O  O348  1  0.49440000  0.33020000  0.73970000  1
  O  O349  1  0.48630000  0.28390000  0.08600000  1
  O  O350  1  0.48610000  0.46500000  0.60650000  1
  O  O351  1  0.47850000  0.16200000  0.73410000  1
  O  O352  1  0.44520000  0.33580000  0.59930000  1
  O  O353  1  0.44510000  0.11620000  0.00030000  1
  O  O354  1  0.44250000  0.03960000  0.69270000  1
  O  O355  1  0.43370000  0.58200000  0.90100000  1
  O  O356  1  0.42820000  0.05130000  0.53980000  1
  O  O357  1  0.42790000  0.16570000  0.58590000  1
  O  O358  1  0.42640000  0.79130000  0.76920000  1
  O  O359  1  0.41760000  0.75100000  0.36270000  1
  O  O360  1  0.41060000  0.56250000  0.25820000  1
  O  O361  1  0.39700000  0.65660000  0.72130000  1
  O  O362  1  0.38760000  0.97900000  0.96660000  1
  O  O363  1  0.35120000  0.63220000  0.39460000  1
  O  O364  1  0.33860000  0.23750000  0.69140000  1
  O  O365  1  0.28640000  0.10870000  0.68340000  1
  O  O366  1  0.21360000  0.39130000  0.18340000  1
  O  O367  1  0.16140000  0.26250000  0.19140000  1
  O  O368  1  0.14880000  0.86780000  0.89460000  1
  O  O369  1  0.11240000  0.52100000  0.46660000  1
  O  O370  1  0.10300000  0.84340000  0.22130000  1
  O  O371  1  0.08940000  0.93750000  0.75820000  1
  O  O372  1  0.08240000  0.74900000  0.86270000  1
  O  O373  1  0.07360000  0.70870000  0.26920000  1
  O  O374  1  0.07210000  0.33430000  0.08590000  1
  O  O375  1  0.07180000  0.44870000  0.03980000  1
  O  O376  1  0.06630000  0.91800000  0.40100000  1
  O  O377  1  0.05750000  0.46040000  0.19270000  1
  O  O378  1  0.05490000  0.38380000  0.50030000  1
  O  O379  1  0.05480000  0.16420000  0.09930000  1
  O  O380  1  0.02150000  0.33800000  0.23410000  1
  O  O381  1  0.01390000  0.03500000  0.10650000  1
  O  O382  1  0.01370000  0.21610000  0.58600000  1
  O  O383  1  0.00560000  0.16980000  0.23970000  1
