# generated using pymatgen
data_MnH22C24(NO2)2
_symmetry_space_group_name_H-M   'P 1'
_cell_length_a   13.55830000
_cell_length_b   13.90940000
_cell_length_c   16.28000000
_cell_angle_alpha   107.80200000
_cell_angle_beta   90.00000000
_cell_angle_gamma   119.16900000
_symmetry_Int_Tables_number   1
_chemical_formula_structural   MnH22C24(NO2)2
_chemical_formula_sum   'Mn4 H88 C96 N8 O16'
_cell_volume   2511.16818438
_cell_formula_units_Z   4
loop_
 _symmetry_equiv_pos_site_id
 _symmetry_equiv_pos_as_xyz
  1  'x, y, z'
loop_
 _atom_site_type_symbol
 _atom_site_label
 _atom_site_symmetry_multiplicity
 _atom_site_fract_x
 _atom_site_fract_y
 _atom_site_fract_z
 _atom_site_occupancy
  Mn  Mn0  1  0.02978000  0.58918000  0.13576000  1
  Mn  Mn1  1  0.44060000  0.41082000  0.36424000  1
  Mn  Mn2  1  0.55940000  0.58918000  0.63576000  1
  Mn  Mn3  1  0.97022000  0.41082000  0.86424000  1
  H  H4  1  0.01040000  0.25220000  0.29250000  1
  H  H5  1  0.01370000  0.37140000  0.31170000  1
  H  H6  1  0.07520000  0.69120000  0.91170000  1
  H  H7  1  0.09190000  0.74620000  0.75060000  1
  H  H8  1  0.09940000  0.57380000  0.57700000  1
  H  H9  1  0.09990000  0.84500000  0.13730000  1
  H  H10  1  0.11980000  0.71060000  0.45650000  1
  H  H11  1  0.13320000  0.34400000  0.40550000  1
  H  H12  1  0.14880000  0.90240000  0.65430000  1
  H  H13  1  0.19490000  0.40500000  0.66170000  1
  H  H14  1  0.19680000  0.67000000  0.65750000  1
  H  H15  1  0.20780000  0.68000000  0.56420000  1
  H  H16  1  0.21010000  0.40500000  0.16170000  1
  H  H17  1  0.21080000  0.34400000  0.90550000  1
  H  H18  1  0.22250000  0.86420000  0.59340000  1
  H  H19  1  0.23000000  0.51520000  0.84200000  1
  H  H20  1  0.23000000  0.98120000  0.36220000  1
  H  H21  1  0.23180000  0.85800000  0.91900000  1
  H  H22  1  0.23900000  0.88080000  0.69310000  1
  H  H23  1  0.24180000  0.25220000  0.79250000  1
  H  H24  1  0.24640000  0.09760000  0.84570000  1
  H  H25  1  0.24880000  0.01880000  0.13780000  1
  H  H26  1  0.25490000  0.15500000  0.36270000  1
  H  H27  1  0.28520000  0.51520000  0.34200000  1
  H  H28  1  0.28580000  0.67940000  0.34630000  1
  H  H29  1  0.29710000  0.71580000  0.13190000  1
  H  H30  1  0.30420000  0.84920000  0.35170000  1
  H  H31  1  0.34570000  0.25380000  0.74940000  1
  H  H32  1  0.35770000  0.37140000  0.81170000  1
  H  H33  1  0.35820000  0.11920000  0.80690000  1
  H  H34  1  0.35830000  0.13580000  0.90660000  1
  H  H35  1  0.37380000  0.14200000  0.58100000  1
  H  H36  1  0.38400000  0.30880000  0.58830000  1
  H  H37  1  0.39360000  0.67940000  0.84630000  1
  H  H38  1  0.40920000  0.28940000  0.04350000  1
  H  H39  1  0.41870000  0.71580000  0.63190000  1
  H  H40  1  0.42410000  0.96260000  0.89920000  1
  H  H41  1  0.43140000  0.88000000  0.62980000  1
  H  H42  1  0.44860000  0.88000000  0.12980000  1
  H  H43  1  0.45500000  0.15080000  0.14830000  1
  H  H44  1  0.46150000  0.03740000  0.60080000  1
  H  H45  1  0.47220000  0.68000000  0.06420000  1
  H  H46  1  0.47320000  0.67000000  0.15750000  1
  H  H47  1  0.47440000  0.57380000  0.07700000  1
  H  H48  1  0.52560000  0.42620000  0.92300000  1
  H  H49  1  0.52680000  0.33000000  0.84250000  1
  H  H50  1  0.52780000  0.32000000  0.93580000  1
  H  H51  1  0.53850000  0.96260000  0.39920000  1
  H  H52  1  0.54500000  0.84920000  0.85170000  1
  H  H53  1  0.55140000  0.12000000  0.87020000  1
  H  H54  1  0.56860000  0.12000000  0.37020000  1
  H  H55  1  0.57590000  0.03740000  0.10080000  1
  H  H56  1  0.58130000  0.28420000  0.36810000  1
  H  H57  1  0.59080000  0.71060000  0.95650000  1
  H  H58  1  0.60640000  0.32060000  0.15370000  1
  H  H59  1  0.61600000  0.69120000  0.41170000  1
  H  H60  1  0.62620000  0.85800000  0.41900000  1
  H  H61  1  0.64170000  0.86420000  0.09340000  1
  H  H62  1  0.64180000  0.88080000  0.19310000  1
  H  H63  1  0.64230000  0.62860000  0.18830000  1
  H  H64  1  0.65430000  0.74620000  0.25060000  1
  H  H65  1  0.69580000  0.15080000  0.64830000  1
  H  H66  1  0.70290000  0.28420000  0.86810000  1
  H  H67  1  0.71420000  0.32060000  0.65370000  1
  H  H68  1  0.71480000  0.48480000  0.65800000  1
  H  H69  1  0.74510000  0.84500000  0.63730000  1
  H  H70  1  0.75120000  0.98120000  0.86220000  1
  H  H71  1  0.75360000  0.90240000  0.15430000  1
  H  H72  1  0.75820000  0.74780000  0.20750000  1
  H  H73  1  0.76100000  0.11920000  0.30690000  1
  H  H74  1  0.76820000  0.14200000  0.08100000  1
  H  H75  1  0.77000000  0.01880000  0.63780000  1
  H  H76  1  0.77000000  0.48480000  0.15800000  1
  H  H77  1  0.77750000  0.13580000  0.40660000  1
  H  H78  1  0.78920000  0.65600000  0.09450000  1
  H  H79  1  0.78990000  0.59500000  0.83830000  1
  H  H80  1  0.79220000  0.32000000  0.43580000  1
  H  H81  1  0.80320000  0.33000000  0.34250000  1
  H  H82  1  0.80510000  0.59500000  0.33830000  1
  H  H83  1  0.85120000  0.09760000  0.34570000  1
  H  H84  1  0.86680000  0.65600000  0.59450000  1
  H  H85  1  0.88020000  0.28940000  0.54350000  1
  H  H86  1  0.90010000  0.15500000  0.86270000  1
  H  H87  1  0.90060000  0.42620000  0.42300000  1
  H  H88  1  0.90810000  0.25380000  0.24940000  1
  H  H89  1  0.92480000  0.30880000  0.08830000  1
  H  H90  1  0.98630000  0.62860000  0.68830000  1
  H  H91  1  0.98960000  0.74780000  0.70750000  1
  C  C92  1  0.00570000  0.68420000  0.53940000  1
  C  C93  1  0.01110000  0.65640000  0.29960000  1
  C  C94  1  0.03190000  0.34740000  0.61530000  1
  C  C95  1  0.03500000  0.71100000  0.69900000  1
  C  C96  1  0.04320000  0.68620000  0.45950000  1
  C  C97  1  0.09340000  0.72780000  0.62160000  1
  C  C98  1  0.10740000  0.34860000  0.45870000  1
  C  C99  1  0.12590000  0.43600000  0.03170000  1
  C  C100  1  0.14070000  0.68860000  0.89830000  1
  C  C101  1  0.14480000  0.38380000  0.61190000  1
  C  C102  1  0.15530000  0.65600000  0.60330000  1
  C  C103  1  0.17170000  0.85220000  0.13540000  1
  C  C104  1  0.18420000  0.38900000  0.53480000  1
  C  C105  1  0.18420000  0.85540000  0.64250000  1
  C  C106  1  0.20480000  0.38900000  0.03480000  1
  C  C107  1  0.23030000  0.58560000  0.85760000  1
  C  C108  1  0.23350000  0.78880000  0.90230000  1
  C  C109  1  0.23900000  0.38380000  0.11190000  1
  C  C110  1  0.24120000  0.34860000  0.95870000  1
  C  C111  1  0.26100000  0.95800000  0.13570000  1
  C  C112  1  0.28610000  0.77680000  0.13200000  1
  C  C113  1  0.30300000  0.04200000  0.36430000  1
  C  C114  1  0.31010000  0.43600000  0.53170000  1
  C  C115  1  0.31550000  0.34740000  0.11530000  1
  C  C116  1  0.31950000  0.14780000  0.36460000  1
  C  C117  1  0.32150000  0.31580000  0.96060000  1
  C  C118  1  0.32400000  0.28900000  0.80100000  1
  C  C119  1  0.32880000  0.14460000  0.85750000  1
  C  C120  1  0.32900000  0.68400000  0.85970000  1
  C  C121  1  0.33420000  0.78900000  0.88120000  1
  C  C122  1  0.35470000  0.34360000  0.20040000  1
  C  C123  1  0.35500000  0.68400000  0.35970000  1
  C  C124  1  0.35530000  0.58560000  0.35760000  1
  C  C125  1  0.35700000  0.31380000  0.04050000  1
  C  C126  1  0.36560000  0.27220000  0.87840000  1
  C  C127  1  0.36930000  0.97240000  0.13270000  1
  C  C128  1  0.37800000  0.87560000  0.13130000  1
  C  C129  1  0.37890000  0.91300000  0.36570000  1
  C  C130  1  0.39690000  0.02760000  0.36730000  1
  C  C131  1  0.43210000  0.89700000  0.88360000  1
  C  C132  1  0.44470000  0.21120000  0.59770000  1
  C  C133  1  0.45210000  0.31140000  0.60170000  1
  C  C134  1  0.45480000  0.78900000  0.38120000  1
  C  C135  1  0.46490000  0.89700000  0.38360000  1
  C  C136  1  0.46590000  0.08700000  0.13430000  1
  C  C137  1  0.49070000  0.77680000  0.63200000  1
  C  C138  1  0.49760000  0.87560000  0.63130000  1
  C  C139  1  0.49930000  0.34400000  0.89670000  1
  C  C140  1  0.50070000  0.65600000  0.10330000  1
  C  C141  1  0.50240000  0.12440000  0.36870000  1
  C  C142  1  0.50930000  0.22320000  0.36800000  1
  C  C143  1  0.53410000  0.91300000  0.86570000  1
  C  C144  1  0.53510000  0.10300000  0.61640000  1
  C  C145  1  0.54520000  0.21100000  0.61880000  1
  C  C146  1  0.54790000  0.68860000  0.39830000  1
  C  C147  1  0.55530000  0.78880000  0.40230000  1
  C  C148  1  0.56790000  0.10300000  0.11640000  1
  C  C149  1  0.60310000  0.97240000  0.63270000  1
  C  C150  1  0.62110000  0.08700000  0.63430000  1
  C  C151  1  0.62200000  0.12440000  0.86870000  1
  C  C152  1  0.63070000  0.02760000  0.86730000  1
  C  C153  1  0.63440000  0.72780000  0.12160000  1
  C  C154  1  0.64300000  0.68620000  0.95950000  1
  C  C155  1  0.64470000  0.41440000  0.64240000  1
  C  C156  1  0.64500000  0.31600000  0.64030000  1
  C  C157  1  0.64530000  0.65640000  0.79960000  1
  C  C158  1  0.66580000  0.21100000  0.11880000  1
  C  C159  1  0.67100000  0.31600000  0.14030000  1
  C  C160  1  0.67120000  0.85540000  0.14250000  1
  C  C161  1  0.67600000  0.71100000  0.19900000  1
  C  C162  1  0.67850000  0.68420000  0.03940000  1
  C  C163  1  0.68050000  0.85220000  0.63540000  1
  C  C164  1  0.68450000  0.65260000  0.88470000  1
  C  C165  1  0.68990000  0.56400000  0.46830000  1
  C  C166  1  0.69700000  0.95800000  0.63570000  1
  C  C167  1  0.71390000  0.22320000  0.86800000  1
  C  C168  1  0.73900000  0.04200000  0.86430000  1
  C  C169  1  0.75880000  0.65140000  0.04130000  1
  C  C170  1  0.76100000  0.61620000  0.88810000  1
  C  C171  1  0.76650000  0.21120000  0.09770000  1
  C  C172  1  0.76970000  0.41440000  0.14240000  1
  C  C173  1  0.79520000  0.61100000  0.96520000  1
  C  C174  1  0.81580000  0.14460000  0.35750000  1
  C  C175  1  0.81580000  0.61100000  0.46520000  1
  C  C176  1  0.82830000  0.14780000  0.86460000  1
  C  C177  1  0.84470000  0.34400000  0.39670000  1
  C  C178  1  0.85520000  0.61620000  0.38810000  1
  C  C179  1  0.85930000  0.31140000  0.10170000  1
  C  C180  1  0.87410000  0.56400000  0.96830000  1
  C  C181  1  0.89260000  0.65140000  0.54130000  1
  C  C182  1  0.90660000  0.27220000  0.37840000  1
  C  C183  1  0.95680000  0.31380000  0.54050000  1
  C  C184  1  0.96500000  0.28900000  0.30100000  1
  C  C185  1  0.96810000  0.65260000  0.38470000  1
  C  C186  1  0.98890000  0.34360000  0.70040000  1
  C  C187  1  0.99430000  0.31580000  0.46060000  1
  N  N188  1  0.13370000  0.58400000  0.87650000  1
  N  N189  1  0.17900000  0.75800000  0.13280000  1
  N  N190  1  0.42100000  0.24200000  0.36720000  1
  N  N191  1  0.45030000  0.58400000  0.37650000  1
  N  N192  1  0.54970000  0.41600000  0.62350000  1
  N  N193  1  0.57900000  0.75800000  0.63280000  1
  N  N194  1  0.82100000  0.24200000  0.86720000  1
  N  N195  1  0.86630000  0.41600000  0.12350000  1
  O  O196  1  0.04100000  0.33000000  0.75670000  1
  O  O197  1  0.06490000  0.40000000  0.95780000  1
  O  O198  1  0.09200000  0.63920000  0.28360000  1
  O  O199  1  0.12360000  0.50420000  0.10250000  1
  O  O200  1  0.28900000  0.33000000  0.25670000  1
  O  O201  1  0.33510000  0.40000000  0.45780000  1
  O  O202  1  0.38060000  0.50420000  0.60250000  1
  O  O203  1  0.45280000  0.36080000  0.21640000  1
  O  O204  1  0.54720000  0.63920000  0.78360000  1
  O  O205  1  0.61940000  0.49580000  0.39750000  1
  O  O206  1  0.66490000  0.60000000  0.54220000  1
  O  O207  1  0.71100000  0.67000000  0.74330000  1
  O  O208  1  0.87640000  0.49580000  0.89750000  1
  O  O209  1  0.90800000  0.36080000  0.71640000  1
  O  O210  1  0.93510000  0.60000000  0.04220000  1
  O  O211  1  0.95900000  0.67000000  0.24330000  1
