# generated using pymatgen
data_Co2H3(C3N4)3
_symmetry_space_group_name_H-M   'P 1'
_cell_length_a   18.64000000
_cell_length_b   18.64000000
_cell_length_c   18.64000000
_cell_angle_alpha   90.00000000
_cell_angle_beta   90.00000000
_cell_angle_gamma   90.00000000
_symmetry_Int_Tables_number   1
_chemical_formula_structural   Co2H3(C3N4)3
_chemical_formula_sum   'Co8 H12 C36 N48'
_cell_volume   6476.46054400
_cell_formula_units_Z   4
loop_
 _symmetry_equiv_pos_site_id
 _symmetry_equiv_pos_as_xyz
  1  'x, y, z'
loop_
 _atom_site_type_symbol
 _atom_site_label
 _atom_site_symmetry_multiplicity
 _atom_site_fract_x
 _atom_site_fract_y
 _atom_site_fract_z
 _atom_site_occupancy
  Co  Co0  1  0.06672000  0.93328000  0.43328000  1
  Co  Co1  1  0.18328000  0.81672000  0.31672000  1
  Co  Co2  1  0.31672000  0.18328000  0.81672000  1
  Co  Co3  1  0.43328000  0.06672000  0.93328000  1
  Co  Co4  1  0.56672000  0.56672000  0.56672000  1
  Co  Co5  1  0.68328000  0.68328000  0.68328000  1
  Co  Co6  1  0.81672000  0.31672000  0.18328000  1
  Co  Co7  1  0.93328000  0.43328000  0.06672000  1
  H  H8  1  0.03820000  0.12500000  0.21180000  1
  H  H9  1  0.12500000  0.21180000  0.03820000  1
  H  H10  1  0.21180000  0.03820000  0.12500000  1
  H  H11  1  0.28820000  0.96180000  0.62500000  1
  H  H12  1  0.37500000  0.78820000  0.53820000  1
  H  H13  1  0.46180000  0.87500000  0.71180000  1
  H  H14  1  0.53820000  0.37500000  0.78820000  1
  H  H15  1  0.62500000  0.28820000  0.96180000  1
  H  H16  1  0.71180000  0.46180000  0.87500000  1
  H  H17  1  0.78820000  0.53820000  0.37500000  1
  H  H18  1  0.87500000  0.71180000  0.46180000  1
  H  H19  1  0.96180000  0.62500000  0.28820000  1
  C  C20  1  0.01633000  0.23367000  0.12500000  1
  C  C21  1  0.07255000  0.17745000  0.12500000  1
  C  C22  1  0.07350000  0.12500000  0.17650000  1
  C  C23  1  0.12500000  0.01633000  0.23367000  1
  C  C24  1  0.12500000  0.07255000  0.17745000  1
  C  C25  1  0.12500000  0.17650000  0.07350000  1
  C  C26  1  0.17650000  0.07350000  0.12500000  1
  C  C27  1  0.17745000  0.12500000  0.07255000  1
  C  C28  1  0.23367000  0.12500000  0.01633000  1
  C  C29  1  0.26633000  0.87500000  0.51633000  1
  C  C30  1  0.32255000  0.87500000  0.57255000  1
  C  C31  1  0.32350000  0.92650000  0.62500000  1
  C  C32  1  0.37500000  0.82350000  0.57350000  1
  C  C33  1  0.37500000  0.92745000  0.67745000  1
  C  C34  1  0.37500000  0.98367000  0.73367000  1
  C  C35  1  0.42650000  0.87500000  0.67650000  1
  C  C36  1  0.42745000  0.82255000  0.62500000  1
  C  C37  1  0.48367000  0.76633000  0.62500000  1
  C  C38  1  0.51633000  0.26633000  0.87500000  1
  C  C39  1  0.57255000  0.32255000  0.87500000  1
  C  C40  1  0.57350000  0.37500000  0.82350000  1
  C  C41  1  0.62500000  0.32350000  0.92650000  1
  C  C42  1  0.62500000  0.42745000  0.82255000  1
  C  C43  1  0.62500000  0.48367000  0.76633000  1
  C  C44  1  0.67650000  0.42650000  0.87500000  1
  C  C45  1  0.67745000  0.37500000  0.92745000  1
  C  C46  1  0.73367000  0.37500000  0.98367000  1
  C  C47  1  0.76633000  0.62500000  0.48367000  1
  C  C48  1  0.82255000  0.62500000  0.42745000  1
  C  C49  1  0.82350000  0.57350000  0.37500000  1
  C  C50  1  0.87500000  0.51633000  0.26633000  1
  C  C51  1  0.87500000  0.57255000  0.32255000  1
  C  C52  1  0.87500000  0.67650000  0.42650000  1
  C  C53  1  0.92650000  0.62500000  0.32350000  1
  C  C54  1  0.92745000  0.67745000  0.37500000  1
  C  C55  1  0.98367000  0.73367000  0.37500000  1
  N  N56  1  0.02192000  0.29449000  0.08737000  1
  N  N57  1  0.03855000  0.82939000  0.39679000  1
  N  N58  1  0.04449000  0.72808000  0.33737000  1
  N  N59  1  0.07939000  0.78855000  0.35321000  1
  N  N60  1  0.08737000  0.02192000  0.29449000  1
  N  N61  1  0.10321000  0.96145000  0.32939000  1
  N  N62  1  0.14679000  0.92061000  0.28855000  1
  N  N63  1  0.16263000  0.95551000  0.22808000  1
  N  N64  1  0.17061000  0.89679000  0.46145000  1
  N  N65  1  0.20551000  0.91263000  0.52192000  1
  N  N66  1  0.21145000  0.85321000  0.42061000  1
  N  N67  1  0.22808000  0.16263000  0.95551000  1
  N  N68  1  0.27192000  0.83737000  0.45551000  1
  N  N69  1  0.28855000  0.14679000  0.92061000  1
  N  N70  1  0.29449000  0.08737000  0.02192000  1
  N  N71  1  0.32939000  0.10321000  0.96145000  1
  N  N72  1  0.33737000  0.04449000  0.72808000  1
  N  N73  1  0.35321000  0.07939000  0.78855000  1
  N  N74  1  0.39679000  0.03855000  0.82939000  1
  N  N75  1  0.41263000  0.97808000  0.79449000  1
  N  N76  1  0.42061000  0.21145000  0.85321000  1
  N  N77  1  0.45551000  0.27192000  0.83737000  1
  N  N78  1  0.46145000  0.17061000  0.89679000  1
  N  N79  1  0.47808000  0.70551000  0.58737000  1
  N  N80  1  0.52192000  0.20551000  0.91263000  1
  N  N81  1  0.53855000  0.67061000  0.60321000  1
  N  N82  1  0.54449000  0.77192000  0.66263000  1
  N  N83  1  0.57939000  0.71145000  0.64679000  1
  N  N84  1  0.58737000  0.47808000  0.70551000  1
  N  N85  1  0.60321000  0.53855000  0.67061000  1
  N  N86  1  0.64679000  0.57939000  0.71145000  1
  N  N87  1  0.66263000  0.54449000  0.77192000  1
  N  N88  1  0.67061000  0.60321000  0.53855000  1
  N  N89  1  0.70551000  0.58737000  0.47808000  1
  N  N90  1  0.71145000  0.64679000  0.57939000  1
  N  N91  1  0.72808000  0.33737000  0.04449000  1
  N  N92  1  0.77192000  0.66263000  0.54449000  1
  N  N93  1  0.78855000  0.35321000  0.07939000  1
  N  N94  1  0.79449000  0.41263000  0.97808000  1
  N  N95  1  0.82939000  0.39679000  0.03855000  1
  N  N96  1  0.83737000  0.45551000  0.27192000  1
  N  N97  1  0.85321000  0.42061000  0.21145000  1
  N  N98  1  0.89679000  0.46145000  0.17061000  1
  N  N99  1  0.91263000  0.52192000  0.20551000  1
  N  N100  1  0.92061000  0.28855000  0.14679000  1
  N  N101  1  0.95551000  0.22808000  0.16263000  1
  N  N102  1  0.96145000  0.32939000  0.10321000  1
  N  N103  1  0.97808000  0.79449000  0.41263000  1
