# generated using pymatgen
data_ZnH7C13NO4
_symmetry_space_group_name_H-M   'P 1'
_cell_length_a   11.87700000
_cell_length_b   13.85500000
_cell_length_c   13.92100000
_cell_angle_alpha   90.00000000
_cell_angle_beta   114.40300000
_cell_angle_gamma   90.00000000
_symmetry_Int_Tables_number   1
_chemical_formula_structural   ZnH7C13NO4
_chemical_formula_sum   'Zn4 H28 C52 N4 O16'
_cell_volume   2086.12798395
_cell_formula_units_Z   4
loop_
 _symmetry_equiv_pos_site_id
 _symmetry_equiv_pos_as_xyz
  1  'x, y, z'
loop_
 _atom_site_type_symbol
 _atom_site_label
 _atom_site_symmetry_multiplicity
 _atom_site_fract_x
 _atom_site_fract_y
 _atom_site_fract_z
 _atom_site_occupancy
  Zn  Zn0  1  0.38482000  0.05975000  0.95038000  1
  Zn  Zn1  1  0.38482000  0.44025000  0.45038000  1
  Zn  Zn2  1  0.61518000  0.55975000  0.54962000  1
  Zn  Zn3  1  0.61518000  0.94025000  0.04962000  1
  H  H4  1  0.03500000  0.20360000  0.34340000  1
  H  H5  1  0.03500000  0.29640000  0.84340000  1
  H  H6  1  0.05990000  0.52060000  0.65130000  1
  H  H7  1  0.05990000  0.97940000  0.15130000  1
  H  H8  1  0.14080000  0.52150000  0.39410000  1
  H  H9  1  0.14080000  0.97850000  0.89410000  1
  H  H10  1  0.17830000  0.69310000  0.27820000  1
  H  H11  1  0.17830000  0.80690000  0.77820000  1
  H  H12  1  0.19890000  0.58960000  0.59620000  1
  H  H13  1  0.19890000  0.91040000  0.09620000  1
  H  H14  1  0.23400000  0.24760000  0.89010000  1
  H  H15  1  0.23400000  0.25240000  0.39010000  1
  H  H16  1  0.49990000  0.24680000  0.73910000  1
  H  H17  1  0.49990000  0.25320000  0.23910000  1
  H  H18  1  0.50010000  0.74680000  0.76090000  1
  H  H19  1  0.50010000  0.75320000  0.26090000  1
  H  H20  1  0.76600000  0.74760000  0.60990000  1
  H  H21  1  0.76600000  0.75240000  0.10990000  1
  H  H22  1  0.80110000  0.08960000  0.90380000  1
  H  H23  1  0.80110000  0.41040000  0.40380000  1
  H  H24  1  0.82170000  0.19310000  0.22180000  1
  H  H25  1  0.82170000  0.30690000  0.72180000  1
  H  H26  1  0.85920000  0.02150000  0.10590000  1
  H  H27  1  0.85920000  0.47850000  0.60590000  1
  H  H28  1  0.94010000  0.02060000  0.84870000  1
  H  H29  1  0.94010000  0.47940000  0.34870000  1
  H  H30  1  0.96500000  0.70360000  0.15660000  1
  H  H31  1  0.96500000  0.79640000  0.65660000  1
  C  C32  1  0.00140000  0.56824000  0.64270000  1
  C  C33  1  0.00140000  0.93176000  0.14270000  1
  C  C34  1  0.03690000  0.66461000  0.65771000  1
  C  C35  1  0.03690000  0.83539000  0.15771000  1
  C  C36  1  0.05450000  0.23118000  0.85420000  1
  C  C37  1  0.05450000  0.26882000  0.35420000  1
  C  C38  1  0.11920000  0.04346000  0.88450000  1
  C  C39  1  0.11920000  0.45654000  0.38450000  1
  C  C40  1  0.16760000  0.69219000  0.68492000  1
  C  C41  1  0.16760000  0.80781000  0.18492000  1
  C  C42  1  0.17410000  0.20128000  0.88203000  1
  C  C43  1  0.17410000  0.29872000  0.38203000  1
  C  C44  1  0.22400000  0.73120000  0.25240000  1
  C  C45  1  0.22400000  0.76880000  0.75240000  1
  C  C46  1  0.23630000  0.63987000  0.64282000  1
  C  C47  1  0.23630000  0.86013000  0.14282000  1
  C  C48  1  0.34890000  0.71144000  0.28141000  1
  C  C49  1  0.34890000  0.78856000  0.78141000  1
  C  C50  1  0.35970000  0.66107000  0.66884000  1
  C  C51  1  0.35970000  0.83893000  0.16884000  1
  C  C52  1  0.41000000  0.63242000  0.35957000  1
  C  C53  1  0.41000000  0.86758000  0.85957000  1
  C  C54  1  0.41640000  0.73419000  0.74037000  1
  C  C55  1  0.41640000  0.76581000  0.24037000  1
  C  C56  1  0.42820000  0.60435000  0.61732000  1
  C  C57  1  0.42820000  0.89565000  0.11732000  1
  C  C58  1  0.57180000  0.10435000  0.88268000  1
  C  C59  1  0.57180000  0.39565000  0.38268000  1
  C  C60  1  0.58360000  0.23419000  0.75963000  1
  C  C61  1  0.58360000  0.26581000  0.25963000  1
  C  C62  1  0.59000000  0.13242000  0.14043000  1
  C  C63  1  0.59000000  0.36758000  0.64043000  1
  C  C64  1  0.64030000  0.16107000  0.83116000  1
  C  C65  1  0.64030000  0.33893000  0.33116000  1
  C  C66  1  0.65110000  0.21144000  0.21859000  1
  C  C67  1  0.65110000  0.28856000  0.71859000  1
  C  C68  1  0.76370000  0.13987000  0.85718000  1
  C  C69  1  0.76370000  0.36013000  0.35718000  1
  C  C70  1  0.77600000  0.23120000  0.24760000  1
  C  C71  1  0.77600000  0.26880000  0.74760000  1
  C  C72  1  0.82590000  0.70128000  0.61797000  1
  C  C73  1  0.82590000  0.79872000  0.11797000  1
  C  C74  1  0.83240000  0.19219000  0.81508000  1
  C  C75  1  0.83240000  0.30781000  0.31508000  1
  C  C76  1  0.88080000  0.54346000  0.61550000  1
  C  C77  1  0.88080000  0.95654000  0.11550000  1
  C  C78  1  0.94550000  0.73118000  0.64580000  1
  C  C79  1  0.94550000  0.76882000  0.14580000  1
  C  C80  1  0.96310000  0.16461000  0.84229000  1
  C  C81  1  0.96310000  0.33539000  0.34229000  1
  C  C82  1  0.99860000  0.06824000  0.85730000  1
  C  C83  1  0.99860000  0.43176000  0.35730000  1
  N  N84  1  0.20819000  0.10894000  0.89797000  1
  N  N85  1  0.20819000  0.39106000  0.39797000  1
  N  N86  1  0.79181000  0.60894000  0.60203000  1
  N  N87  1  0.79181000  0.89106000  0.10203000  1
  O  O88  1  0.34662000  0.55809000  0.35318000  1
  O  O89  1  0.34662000  0.94191000  0.85318000  1
  O  O90  1  0.37033000  0.53607000  0.55868000  1
  O  O91  1  0.37033000  0.96393000  0.05868000  1
  O  O92  1  0.46351000  0.12984000  0.86519000  1
  O  O93  1  0.46351000  0.37016000  0.36519000  1
  O  O94  1  0.48104000  0.14698000  0.07517000  1
  O  O95  1  0.48104000  0.35302000  0.57517000  1
  O  O96  1  0.51896000  0.64698000  0.42483000  1
  O  O97  1  0.51896000  0.85302000  0.92483000  1
  O  O98  1  0.53649000  0.62984000  0.63481000  1
  O  O99  1  0.53649000  0.87016000  0.13481000  1
  O  O100  1  0.62967000  0.03607000  0.94132000  1
  O  O101  1  0.62967000  0.46393000  0.44132000  1
  O  O102  1  0.65338000  0.05809000  0.14682000  1
  O  O103  1  0.65338000  0.44191000  0.64682000  1
