# generated using pymatgen
data_Zn3H6C12N6O7
_symmetry_space_group_name_H-M   'P 1'
_cell_length_a   20.07870000
_cell_length_b   20.07870000
_cell_length_c   20.07870000
_cell_angle_alpha   90.00000000
_cell_angle_beta   90.00000000
_cell_angle_gamma   90.00000000
_symmetry_Int_Tables_number   1
_chemical_formula_structural   Zn3H6C12N6O7
_chemical_formula_sum   'Zn24 H48 C96 N48 O56'
_cell_volume   8094.81210884
_cell_formula_units_Z   8
loop_
 _symmetry_equiv_pos_site_id
 _symmetry_equiv_pos_as_xyz
  1  'x, y, z'
loop_
 _atom_site_type_symbol
 _atom_site_label
 _atom_site_symmetry_multiplicity
 _atom_site_fract_x
 _atom_site_fract_y
 _atom_site_fract_z
 _atom_site_occupancy
  Zn  Zn0  1  0.14570000  0.24881000  0.77053000  1
  Zn  Zn1  1  0.14570000  0.25119000  0.27053000  1
  Zn  Zn2  1  0.22947000  0.64570000  0.25119000  1
  Zn  Zn3  1  0.22947000  0.85430000  0.75119000  1
  Zn  Zn4  1  0.24881000  0.72947000  0.64570000  1
  Zn  Zn5  1  0.24881000  0.77053000  0.14570000  1
  Zn  Zn6  1  0.25119000  0.22947000  0.64570000  1
  Zn  Zn7  1  0.25119000  0.27053000  0.14570000  1
  Zn  Zn8  1  0.27053000  0.14570000  0.25119000  1
  Zn  Zn9  1  0.27053000  0.35430000  0.75119000  1
  Zn  Zn10  1  0.35430000  0.74881000  0.77053000  1
  Zn  Zn11  1  0.35430000  0.75119000  0.27053000  1
  Zn  Zn12  1  0.64570000  0.24881000  0.72947000  1
  Zn  Zn13  1  0.64570000  0.25119000  0.22947000  1
  Zn  Zn14  1  0.72947000  0.64570000  0.24881000  1
  Zn  Zn15  1  0.72947000  0.85430000  0.74881000  1
  Zn  Zn16  1  0.74881000  0.72947000  0.85430000  1
  Zn  Zn17  1  0.74881000  0.77053000  0.35430000  1
  Zn  Zn18  1  0.75119000  0.22947000  0.85430000  1
  Zn  Zn19  1  0.75119000  0.27053000  0.35430000  1
  Zn  Zn20  1  0.77053000  0.14570000  0.24881000  1
  Zn  Zn21  1  0.77053000  0.35430000  0.74881000  1
  Zn  Zn22  1  0.85430000  0.74881000  0.72947000  1
  Zn  Zn23  1  0.85430000  0.75119000  0.22947000  1
  H  H24  1  0.06700000  0.65960000  0.26290000  1
  H  H25  1  0.06700000  0.84040000  0.76290000  1
  H  H26  1  0.08950000  0.69640000  0.62990000  1
  H  H27  1  0.08950000  0.80360000  0.12990000  1
  H  H28  1  0.12990000  0.08950000  0.80360000  1
  H  H29  1  0.12990000  0.41050000  0.30360000  1
  H  H30  1  0.15960000  0.23710000  0.93300000  1
  H  H31  1  0.15960000  0.26290000  0.43300000  1
  H  H32  1  0.19640000  0.62990000  0.41050000  1
  H  H33  1  0.19640000  0.87010000  0.91050000  1
  H  H34  1  0.23710000  0.56700000  0.65960000  1
  H  H35  1  0.23710000  0.93300000  0.15960000  1
  H  H36  1  0.26290000  0.06700000  0.65960000  1
  H  H37  1  0.26290000  0.43300000  0.15960000  1
  H  H38  1  0.30360000  0.12990000  0.41050000  1
  H  H39  1  0.30360000  0.37010000  0.91050000  1
  H  H40  1  0.34040000  0.73710000  0.93300000  1
  H  H41  1  0.34040000  0.76290000  0.43300000  1
  H  H42  1  0.37010000  0.58950000  0.80360000  1
  H  H43  1  0.37010000  0.91050000  0.30360000  1
  H  H44  1  0.41050000  0.19640000  0.62990000  1
  H  H45  1  0.41050000  0.30360000  0.12990000  1
  H  H46  1  0.43300000  0.15960000  0.26290000  1
  H  H47  1  0.43300000  0.34040000  0.76290000  1
  H  H48  1  0.56700000  0.65960000  0.23710000  1
  H  H49  1  0.56700000  0.84040000  0.73710000  1
  H  H50  1  0.58950000  0.69640000  0.87010000  1
  H  H51  1  0.58950000  0.80360000  0.37010000  1
  H  H52  1  0.62990000  0.08950000  0.69640000  1
  H  H53  1  0.62990000  0.41050000  0.19640000  1
  H  H54  1  0.65960000  0.23710000  0.56700000  1
  H  H55  1  0.65960000  0.26290000  0.06700000  1
  H  H56  1  0.69640000  0.62990000  0.08950000  1
  H  H57  1  0.69640000  0.87010000  0.58950000  1
  H  H58  1  0.73710000  0.56700000  0.84040000  1
  H  H59  1  0.73710000  0.93300000  0.34040000  1
  H  H60  1  0.76290000  0.06700000  0.84040000  1
  H  H61  1  0.76290000  0.43300000  0.34040000  1
  H  H62  1  0.80360000  0.12990000  0.08950000  1
  H  H63  1  0.80360000  0.37010000  0.58950000  1
  H  H64  1  0.84040000  0.73710000  0.56700000  1
  H  H65  1  0.84040000  0.76290000  0.06700000  1
  H  H66  1  0.87010000  0.58950000  0.69640000  1
  H  H67  1  0.87010000  0.91050000  0.19640000  1
  H  H68  1  0.91050000  0.19640000  0.87010000  1
  H  H69  1  0.91050000  0.30360000  0.37010000  1
  H  H70  1  0.93300000  0.15960000  0.23710000  1
  H  H71  1  0.93300000  0.34040000  0.73710000  1
  C  C72  1  0.02180000  0.24970000  0.79930000  1
  C  C73  1  0.02180000  0.25030000  0.29930000  1
  C  C74  1  0.04985000  0.73670000  0.19730000  1
  C  C75  1  0.04985000  0.76330000  0.69730000  1
  C  C76  1  0.08530000  0.68970000  0.23280000  1
  C  C77  1  0.08530000  0.81030000  0.73280000  1
  C  C78  1  0.09790000  0.73110000  0.65940000  1
  C  C79  1  0.09790000  0.76890000  0.15940000  1
  C  C80  1  0.15940000  0.09790000  0.76890000  1
  C  C81  1  0.15940000  0.40210000  0.26890000  1
  C  C82  1  0.18970000  0.23280000  0.41470000  1
  C  C83  1  0.18970000  0.26720000  0.91470000  1
  C  C84  1  0.19730000  0.04985000  0.73670000  1
  C  C85  1  0.19730000  0.45015000  0.23670000  1
  C  C86  1  0.20070000  0.52180000  0.25030000  1
  C  C87  1  0.20070000  0.97820000  0.75030000  1
  C  C88  1  0.23110000  0.65940000  0.40210000  1
  C  C89  1  0.23110000  0.84060000  0.90210000  1
  C  C90  1  0.23280000  0.08530000  0.68970000  1
  C  C91  1  0.23280000  0.41470000  0.18970000  1
  C  C92  1  0.23670000  0.19730000  0.45015000  1
  C  C93  1  0.23670000  0.30270000  0.95015000  1
  C  C94  1  0.24970000  0.70070000  0.52180000  1
  C  C95  1  0.24970000  0.79930000  0.02180000  1
  C  C96  1  0.25030000  0.20070000  0.52180000  1
  C  C97  1  0.25030000  0.29930000  0.02180000  1
  C  C98  1  0.26330000  0.69730000  0.45015000  1
  C  C99  1  0.26330000  0.80270000  0.95015000  1
  C  C100  1  0.26720000  0.58530000  0.68970000  1
  C  C101  1  0.26720000  0.91470000  0.18970000  1
  C  C102  1  0.26890000  0.15940000  0.40210000  1
  C  C103  1  0.26890000  0.34060000  0.90210000  1
  C  C104  1  0.29930000  0.02180000  0.25030000  1
  C  C105  1  0.29930000  0.47820000  0.75030000  1
  C  C106  1  0.30270000  0.54985000  0.73670000  1
  C  C107  1  0.30270000  0.95015000  0.23670000  1
  C  C108  1  0.31030000  0.73280000  0.41470000  1
  C  C109  1  0.31030000  0.76720000  0.91470000  1
  C  C110  1  0.34060000  0.59790000  0.76890000  1
  C  C111  1  0.34060000  0.90210000  0.26890000  1
  C  C112  1  0.40210000  0.23110000  0.65940000  1
  C  C113  1  0.40210000  0.26890000  0.15940000  1
  C  C114  1  0.41470000  0.18970000  0.23280000  1
  C  C115  1  0.41470000  0.31030000  0.73280000  1
  C  C116  1  0.45015000  0.23670000  0.19730000  1
  C  C117  1  0.45015000  0.26330000  0.69730000  1
  C  C118  1  0.47820000  0.74970000  0.79930000  1
  C  C119  1  0.47820000  0.75030000  0.29930000  1
  C  C120  1  0.52180000  0.24970000  0.70070000  1
  C  C121  1  0.52180000  0.25030000  0.20070000  1
  C  C122  1  0.54985000  0.73670000  0.30270000  1
  C  C123  1  0.54985000  0.76330000  0.80270000  1
  C  C124  1  0.58530000  0.68970000  0.26720000  1
  C  C125  1  0.58530000  0.81030000  0.76720000  1
  C  C126  1  0.59790000  0.73110000  0.84060000  1
  C  C127  1  0.59790000  0.76890000  0.34060000  1
  C  C128  1  0.65940000  0.09790000  0.73110000  1
  C  C129  1  0.65940000  0.40210000  0.23110000  1
  C  C130  1  0.68970000  0.23280000  0.08530000  1
  C  C131  1  0.68970000  0.26720000  0.58530000  1
  C  C132  1  0.69730000  0.04985000  0.76330000  1
  C  C133  1  0.69730000  0.45015000  0.26330000  1
  C  C134  1  0.70070000  0.52180000  0.24970000  1
  C  C135  1  0.70070000  0.97820000  0.74970000  1
  C  C136  1  0.73110000  0.65940000  0.09790000  1
  C  C137  1  0.73110000  0.84060000  0.59790000  1
  C  C138  1  0.73280000  0.08530000  0.81030000  1
  C  C139  1  0.73280000  0.41470000  0.31030000  1
  C  C140  1  0.73670000  0.19730000  0.04985000  1
  C  C141  1  0.73670000  0.30270000  0.54985000  1
  C  C142  1  0.74970000  0.70070000  0.97820000  1
  C  C143  1  0.74970000  0.79930000  0.47820000  1
  C  C144  1  0.75030000  0.20070000  0.97820000  1
  C  C145  1  0.75030000  0.29930000  0.47820000  1
  C  C146  1  0.76330000  0.69730000  0.04985000  1
  C  C147  1  0.76330000  0.80270000  0.54985000  1
  C  C148  1  0.76720000  0.58530000  0.81030000  1
  C  C149  1  0.76720000  0.91470000  0.31030000  1
  C  C150  1  0.76890000  0.15940000  0.09790000  1
  C  C151  1  0.76890000  0.34060000  0.59790000  1
  C  C152  1  0.79930000  0.02180000  0.24970000  1
  C  C153  1  0.79930000  0.47820000  0.74970000  1
  C  C154  1  0.80270000  0.54985000  0.76330000  1
  C  C155  1  0.80270000  0.95015000  0.26330000  1
  C  C156  1  0.81030000  0.73280000  0.08530000  1
  C  C157  1  0.81030000  0.76720000  0.58530000  1
  C  C158  1  0.84060000  0.59790000  0.73110000  1
  C  C159  1  0.84060000  0.90210000  0.23110000  1
  C  C160  1  0.90210000  0.23110000  0.84060000  1
  C  C161  1  0.90210000  0.26890000  0.34060000  1
  C  C162  1  0.91470000  0.18970000  0.26720000  1
  C  C163  1  0.91470000  0.31030000  0.76720000  1
  C  C164  1  0.95015000  0.23670000  0.30270000  1
  C  C165  1  0.95015000  0.26330000  0.80270000  1
  C  C166  1  0.97820000  0.74970000  0.70070000  1
  C  C167  1  0.97820000  0.75030000  0.20070000  1
  N  N168  1  0.14974000  0.69397000  0.21748000  1
  N  N169  1  0.14974000  0.80603000  0.71748000  1
  N  N170  1  0.15736000  0.74318000  0.17105000  1
  N  N171  1  0.15736000  0.75682000  0.67105000  1
  N  N172  1  0.17105000  0.15736000  0.74318000  1
  N  N173  1  0.17105000  0.34264000  0.24318000  1
  N  N174  1  0.19397000  0.21748000  0.35026000  1
  N  N175  1  0.19397000  0.28252000  0.85026000  1
  N  N176  1  0.21748000  0.14974000  0.69397000  1
  N  N177  1  0.21748000  0.35026000  0.19397000  1
  N  N178  1  0.24318000  0.17105000  0.34264000  1
  N  N179  1  0.24318000  0.32895000  0.84264000  1
  N  N180  1  0.25682000  0.67105000  0.34264000  1
  N  N181  1  0.25682000  0.82895000  0.84264000  1
  N  N182  1  0.28252000  0.64974000  0.69397000  1
  N  N183  1  0.28252000  0.85026000  0.19397000  1
  N  N184  1  0.30603000  0.71748000  0.35026000  1
  N  N185  1  0.30603000  0.78252000  0.85026000  1
  N  N186  1  0.32895000  0.65736000  0.74318000  1
  N  N187  1  0.32895000  0.84264000  0.24318000  1
  N  N188  1  0.34264000  0.24318000  0.17105000  1
  N  N189  1  0.34264000  0.25682000  0.67105000  1
  N  N190  1  0.35026000  0.19397000  0.21748000  1
  N  N191  1  0.35026000  0.30603000  0.71748000  1
  N  N192  1  0.64974000  0.69397000  0.28252000  1
  N  N193  1  0.64974000  0.80603000  0.78252000  1
  N  N194  1  0.65736000  0.74318000  0.32895000  1
  N  N195  1  0.65736000  0.75682000  0.82895000  1
  N  N196  1  0.67105000  0.15736000  0.75682000  1
  N  N197  1  0.67105000  0.34264000  0.25682000  1
  N  N198  1  0.69397000  0.21748000  0.14974000  1
  N  N199  1  0.69397000  0.28252000  0.64974000  1
  N  N200  1  0.71748000  0.14974000  0.80603000  1
  N  N201  1  0.71748000  0.35026000  0.30603000  1
  N  N202  1  0.74318000  0.17105000  0.15736000  1
  N  N203  1  0.74318000  0.32895000  0.65736000  1
  N  N204  1  0.75682000  0.67105000  0.15736000  1
  N  N205  1  0.75682000  0.82895000  0.65736000  1
  N  N206  1  0.78252000  0.64974000  0.80603000  1
  N  N207  1  0.78252000  0.85026000  0.30603000  1
  N  N208  1  0.80603000  0.71748000  0.14974000  1
  N  N209  1  0.80603000  0.78252000  0.64974000  1
  N  N210  1  0.82895000  0.65736000  0.75682000  1
  N  N211  1  0.82895000  0.84264000  0.25682000  1
  N  N212  1  0.84264000  0.24318000  0.32895000  1
  N  N213  1  0.84264000  0.25682000  0.82895000  1
  N  N214  1  0.85026000  0.19397000  0.28252000  1
  N  N215  1  0.85026000  0.30603000  0.78252000  1
  O  O216  1  0.04899000  0.20765000  0.83520000  1
  O  O217  1  0.04899000  0.29235000  0.33520000  1
  O  O218  1  0.05496000  0.21668000  0.25683000  1
  O  O219  1  0.05496000  0.28332000  0.75683000  1
  O  O220  1  0.16480000  0.54899000  0.29235000  1
  O  O221  1  0.16480000  0.95101000  0.79235000  1
  O  O222  1  0.20120000  0.20120000  0.20120000  1
  O  O223  1  0.20120000  0.29880000  0.70120000  1
  O  O224  1  0.20765000  0.66480000  0.54899000  1
  O  O225  1  0.20765000  0.83520000  0.04899000  1
  O  O226  1  0.21668000  0.24317000  0.55496000  1
  O  O227  1  0.21668000  0.25683000  0.05496000  1
  O  O228  1  0.24317000  0.55496000  0.21668000  1
  O  O229  1  0.24317000  0.94504000  0.71668000  1
  O  O230  1  0.25683000  0.05496000  0.21668000  1
  O  O231  1  0.25683000  0.44504000  0.71668000  1
  O  O232  1  0.28332000  0.74317000  0.55496000  1
  O  O233  1  0.28332000  0.75683000  0.05496000  1
  O  O234  1  0.29235000  0.16480000  0.54899000  1
  O  O235  1  0.29235000  0.33520000  0.04899000  1
  O  O236  1  0.29880000  0.70120000  0.20120000  1
  O  O237  1  0.29880000  0.79880000  0.70120000  1
  O  O238  1  0.33520000  0.04899000  0.29235000  1
  O  O239  1  0.33520000  0.45101000  0.79235000  1
  O  O240  1  0.44504000  0.71668000  0.25683000  1
  O  O241  1  0.44504000  0.78332000  0.75683000  1
  O  O242  1  0.45101000  0.70765000  0.83520000  1
  O  O243  1  0.45101000  0.79235000  0.33520000  1
  O  O244  1  0.54899000  0.20765000  0.66480000  1
  O  O245  1  0.54899000  0.29235000  0.16480000  1
  O  O246  1  0.55496000  0.21668000  0.24317000  1
  O  O247  1  0.55496000  0.28332000  0.74317000  1
  O  O248  1  0.66480000  0.54899000  0.20765000  1
  O  O249  1  0.66480000  0.95101000  0.70765000  1
  O  O250  1  0.70120000  0.20120000  0.29880000  1
  O  O251  1  0.70120000  0.29880000  0.79880000  1
  O  O252  1  0.70765000  0.66480000  0.95101000  1
  O  O253  1  0.70765000  0.83520000  0.45101000  1
  O  O254  1  0.71668000  0.24317000  0.94504000  1
  O  O255  1  0.71668000  0.25683000  0.44504000  1
  O  O256  1  0.74317000  0.55496000  0.28332000  1
  O  O257  1  0.74317000  0.94504000  0.78332000  1
  O  O258  1  0.75683000  0.05496000  0.28332000  1
  O  O259  1  0.75683000  0.44504000  0.78332000  1
  O  O260  1  0.78332000  0.74317000  0.94504000  1
  O  O261  1  0.78332000  0.75683000  0.44504000  1
  O  O262  1  0.79235000  0.16480000  0.95101000  1
  O  O263  1  0.79235000  0.33520000  0.45101000  1
  O  O264  1  0.79880000  0.70120000  0.29880000  1
  O  O265  1  0.79880000  0.79880000  0.79880000  1
  O  O266  1  0.83520000  0.04899000  0.20765000  1
  O  O267  1  0.83520000  0.45101000  0.70765000  1
  O  O268  1  0.94504000  0.71668000  0.24317000  1
  O  O269  1  0.94504000  0.78332000  0.74317000  1
  O  O270  1  0.95101000  0.70765000  0.66480000  1
  O  O271  1  0.95101000  0.79235000  0.16480000  1
