# generated using pymatgen
data_Cd3H24(C7O2)8
_symmetry_space_group_name_H-M   'P 1'
_cell_length_a   26.58790000
_cell_length_b   26.58790000
_cell_length_c   27.19111955
_cell_angle_alpha   60.73118137
_cell_angle_beta   60.73118137
_cell_angle_gamma   60.00000000
_symmetry_Int_Tables_number   1
_chemical_formula_structural   Cd3H24(C7O2)8
_chemical_formula_sum   'Cd18 H144 C336 O96'
_cell_volume   13740.18293765
_cell_formula_units_Z   6
loop_
 _symmetry_equiv_pos_site_id
 _symmetry_equiv_pos_as_xyz
  1  'x, y, z'
loop_
 _atom_site_type_symbol
 _atom_site_label
 _atom_site_symmetry_multiplicity
 _atom_site_fract_x
 _atom_site_fract_y
 _atom_site_fract_z
 _atom_site_occupancy
  C  C0  1  0.12688000  0.56328000  0.96376000  1
  C  C1  1  0.06328000  0.62688000  0.46376000  1
  C  C2  1  0.66310000  0.94190000  0.58660000  1
  C  C3  1  0.44190000  0.16310000  0.08660000  1
  C  C4  1  0.40207000  0.89857000  0.04179000  1
  C  C5  1  0.39857000  0.90207000  0.54179000  1
  C  C6  1  0.39445000  0.93435000  0.98665000  1
  C  C7  1  0.43435000  0.89445000  0.48665000  1
  C  C8  1  0.15032000  0.56382000  0.90454000  1
  C  C9  1  0.06382000  0.65032000  0.40454000  1
  C  C10  1  0.63793000  0.73863000  0.90731000  1
  C  C11  1  0.23863000  0.13793000  0.40731000  1
  C  C12  1  0.24305000  0.34305000  0.09125000  1
  C  C13  1  0.84305000  0.74305000  0.59125000  1
  C  C14  1  0.92654000  0.29484000  0.63158000  1
  C  C15  1  0.79484000  0.42654000  0.13158000  1
  C  C16  1  0.43361000  0.35901000  0.26927000  1
  C  C17  1  0.85901000  0.93361000  0.76927000  1
  C  C18  1  0.94416000  0.41766000  0.41252000  1
  C  C19  1  0.91766000  0.44416000  0.91252000  1
  C  C20  1  0.57720000  0.77790000  0.91130000  1
  C  C21  1  0.27790000  0.07720000  0.41130000  1
  C  C22  1  0.74305000  0.82265000  0.59125000  1
  C  C23  1  0.32265000  0.24305000  0.09125000  1
  C  C24  1  0.18264000  0.38364000  0.09008000  1
  C  C25  1  0.88364000  0.68264000  0.59008000  1
  C  C26  1  0.13793000  0.21613000  0.40731000  1
  C  C27  1  0.71613000  0.63793000  0.90731000  1
  C  C28  1  0.35820000  0.34980000  0.37370000  1
  C  C29  1  0.84980000  0.85820000  0.87370000  1
  C  C30  1  0.94787000  0.44017000  0.35309000  1
  C  C31  1  0.94017000  0.44787000  0.85309000  1
  C  C32  1  0.41063000  0.32103000  0.33401000  1
  C  C33  1  0.82103000  0.91063000  0.83401000  1
  C  C34  1  0.90889000  0.74289000  0.95323000  1
  C  C35  1  0.24289000  0.40889000  0.45323000  1
  C  C36  1  0.40708000  0.83708000  0.06426000  1
  C  C37  1  0.33708000  0.90708000  0.56426000  1
  C  C38  1  0.57713000  0.09193000  0.42281000  1
  C  C39  1  0.59193000  0.07713000  0.92281000  1
  C  C40  1  0.09193000  0.90813000  0.42281000  1
  C  C41  1  0.40813000  0.59193000  0.92281000  1
  C  C42  1  0.92766000  0.34176000  0.51392000  1
  C  C43  1  0.84176000  0.42766000  0.01392000  1
  C  C44  1  0.93435000  0.68455000  0.98665000  1
  C  C45  1  0.18455000  0.43435000  0.48665000  1
  C  C46  1  0.78387000  0.76137000  0.59269000  1
  C  C47  1  0.26137000  0.28387000  0.09269000  1
  C  C48  1  0.17735000  0.15695000  0.40875000  1
  C  C49  1  0.65695000  0.67735000  0.90875000  1
  C  C50  1  0.33435000  0.31675000  0.43295000  1
  C  C51  1  0.81675000  0.83435000  0.93295000  1
  C  C52  1  0.39499000  0.90889000  0.95323000  1
  C  C53  1  0.40889000  0.89499000  0.45323000  1
  C  C54  1  0.64395000  0.90205000  0.58765000  1
  C  C55  1  0.40205000  0.14395000  0.08765000  1
  C  C56  1  0.84597000  0.77687000  0.97219000  1
  C  C57  1  0.27687000  0.34597000  0.47219000  1
  C  C58  1  0.44017000  0.25887000  0.35309000  1
  C  C59  1  0.75887000  0.94017000  0.85309000  1
  C  C60  1  0.10555000  0.81545000  0.51335000  1
  C  C61  1  0.31545000  0.60555000  0.01335000  1
  C  C62  1  0.92923000  0.36503000  0.45311000  1
  C  C63  1  0.86503000  0.42923000  0.95311000  1
  C  C64  1  0.11606000  0.55256000  0.88282000  1
  C  C65  1  0.05256000  0.61606000  0.38282000  1
  C  C66  1  0.55256000  0.44856000  0.88282000  1
  C  C67  1  0.94856000  0.05256000  0.38282000  1
  C  C68  1  0.91729000  0.26269000  0.61193000  1
  C  C69  1  0.76269000  0.41729000  0.11193000  1
  C  C70  1  0.36503000  0.25263000  0.45311000  1
  C  C71  1  0.75263000  0.86503000  0.95311000  1
  C  C72  1  0.68264000  0.84364000  0.59008000  1
  C  C73  1  0.34364000  0.18264000  0.09008000  1
  C  C74  1  0.07720000  0.23360000  0.41130000  1
  C  C75  1  0.41766000  0.22566000  0.41252000  1
  C  C76  1  0.72566000  0.91766000  0.91252000  1
  C  C77  1  0.73360000  0.57720000  0.91130000  1
  C  C78  1  0.89857000  0.65757000  0.04179000  1
  C  C79  1  0.15757000  0.39857000  0.54179000  1
  C  C80  1  0.81054000  0.75144000  0.02898000  1
  C  C81  1  0.25144000  0.31054000  0.52898000  1
  C  C82  1  0.09793000  0.84243000  0.45821000  1
  C  C83  1  0.34243000  0.59793000  0.95821000  1
  C  C84  1  0.40904000  0.81054000  0.02898000  1
  C  C85  1  0.31054000  0.90904000  0.52898000  1
  C  C86  1  0.83708000  0.69158000  0.06426000  1
  C  C87  1  0.19158000  0.33708000  0.56426000  1
  C  C88  1  0.91864000  0.28394000  0.55268000  1
  C  C89  1  0.78394000  0.41864000  0.05268000  1
  C  C90  1  0.14395000  0.36635000  0.08765000  1
  C  C91  1  0.86635000  0.64395000  0.58765000  1
  C  C92  1  0.34176000  0.21666000  0.51392000  1
  C  C93  1  0.71666000  0.84176000  0.01392000  1
  C  C94  1  0.93433000  0.41063000  0.33401000  1
  C  C95  1  0.91063000  0.43433000  0.83401000  1
  C  C96  1  0.92287000  0.59187000  0.07719000  1
  C  C97  1  0.09187000  0.42287000  0.57719000  1
  C  C98  1  0.40497000  0.84597000  0.97219000  1
  C  C99  1  0.34597000  0.90497000  0.47219000  1
  C  C100  1  0.28394000  0.24474000  0.55268000  1
  C  C101  1  0.74474000  0.78394000  0.05268000  1
  C  C102  1  0.58093000  0.92273000  0.58531000  1
  C  C103  1  0.42273000  0.08093000  0.08531000  1
  C  C104  1  0.10501000  0.75711000  0.54677000  1
  C  C105  1  0.25711000  0.60501000  0.04677000  1
  C  C106  1  0.55213000  0.24113000  0.14691000  1
  C  C107  1  0.74113000  0.05213000  0.64691000  1
  C  C108  1  0.92273000  0.91103000  0.58531000  1
  C  C109  1  0.41103000  0.42273000  0.08531000  1
  C  C110  1  0.55584000  0.27434000  0.08748000  1
  C  C111  1  0.77434000  0.05584000  0.58748000  1
  C  C112  1  0.56328000  0.34608000  0.96376000  1
  C  C113  1  0.84608000  0.06328000  0.46376000  1
  C  C114  1  0.93811000  0.43361000  0.26927000  1
  C  C115  1  0.93361000  0.43811000  0.76927000  1
  C  C116  1  0.37312000  0.15392000  0.53624000  1
  C  C117  1  0.65392000  0.87312000  0.03624000  1
  C  C118  1  0.08093000  0.41103000  0.08531000  1
  C  C119  1  0.91103000  0.58093000  0.58531000  1
  C  C120  1  0.56382000  0.38132000  0.90454000  1
  C  C121  1  0.88132000  0.06382000  0.40454000  1
  C  C122  1  0.76640000  0.72210000  0.58870000  1
  C  C123  1  0.22210000  0.26640000  0.08870000  1
  C  C124  1  0.15636000  0.11636000  0.40992000  1
  C  C125  1  0.61636000  0.65636000  0.90992000  1
  C  C126  1  0.26269000  0.20809000  0.61193000  1
  C  C127  1  0.70809000  0.76269000  0.11193000  1
  C  C128  1  0.91595000  0.33435000  0.43295000  1
  C  C129  1  0.83435000  0.41595000  0.93295000  1
  C  C130  1  0.41729000  0.70809000  0.11193000  1
  C  C131  1  0.20809000  0.91729000  0.61193000  1
  C  C132  1  0.34968000  0.11868000  0.59546000  1
  C  C133  1  0.61868000  0.84968000  0.09546000  1
  C  C134  1  0.41864000  0.74474000  0.05268000  1
  C  C135  1  0.24474000  0.91864000  0.55268000  1
  C  C136  1  0.29484000  0.14704000  0.63158000  1
  C  C137  1  0.64704000  0.79484000  0.13158000  1
  C  C138  1  0.16310000  0.30840000  0.08660000  1
  C  C139  1  0.80840000  0.66310000  0.58660000  1
  C  C140  1  0.91830000  0.35820000  0.37370000  1
  C  C141  1  0.85820000  0.41830000  0.87370000  1
  C  C142  1  0.69160000  0.55810000  0.91340000  1
  C  C143  1  0.05810000  0.19160000  0.41340000  1
  C  C144  1  0.09292000  0.80842000  0.43574000  1
  C  C145  1  0.30842000  0.59292000  0.93574000  1
  C  C146  1  0.56189000  0.14099000  0.23073000  1
  C  C147  1  0.64099000  0.06189000  0.73073000  1
  C  C148  1  0.56567000  0.17897000  0.16599000  1
  C  C149  1  0.67897000  0.06567000  0.66599000  1
  C  C150  1  0.41595000  0.81675000  0.93295000  1
  C  C151  1  0.31675000  0.91595000  0.43295000  1
  C  C152  1  0.41830000  0.84980000  0.87370000  1
  C  C153  1  0.34980000  0.91830000  0.37370000  1
  C  C154  1  0.57077000  0.24737000  0.04689000  1
  C  C155  1  0.74737000  0.07077000  0.54689000  1
  C  C156  1  0.38394000  0.05144000  0.61718000  1
  C  C157  1  0.55144000  0.88394000  0.11718000  1
  C  C158  1  0.90904000  0.25144000  0.52898000  1
  C  C159  1  0.75144000  0.40904000  0.02898000  1
  C  C160  1  0.57234000  0.28334000  0.98608000  1
  C  C161  1  0.78334000  0.07234000  0.48608000  1
  C  C162  1  0.63365000  0.59795000  0.91235000  1
  C  C163  1  0.09795000  0.13365000  0.41235000  1
  C  C164  1  0.57346000  0.35296000  0.86842000  1
  C  C165  1  0.85296000  0.07346000  0.36842000  1
  C  C166  1  0.09503000  0.72313000  0.52781000  1
  C  C167  1  0.22313000  0.59503000  0.02781000  1
  C  C168  1  0.90497000  0.27687000  0.47219000  1
  C  C169  1  0.77687000  0.40497000  0.97219000  1
  C  C170  1  0.42654000  0.64704000  0.13158000  1
  C  C171  1  0.14704000  0.92654000  0.63158000  1
  C  C172  1  0.90205000  0.86635000  0.58765000  1
  C  C173  1  0.36635000  0.40205000  0.08765000  1
  C  C174  1  0.42766000  0.71666000  0.01392000  1
  C  C175  1  0.21666000  0.92766000  0.51392000  1
  C  C176  1  0.09096000  0.74856000  0.47102000  1
  C  C177  1  0.24856000  0.59096000  0.97102000  1
  C  C178  1  0.61606000  0.94856000  0.38282000  1
  C  C179  1  0.44856000  0.11606000  0.88282000  1
  C  C180  1  0.42923000  0.75263000  0.95311000  1
  C  C181  1  0.25263000  0.92923000  0.45311000  1
  C  C182  1  0.58170000  0.15020000  0.12630000  1
  C  C183  1  0.65020000  0.08170000  0.62630000  1
  C  C184  1  0.58405000  0.18325000  0.06705000  1
  C  C185  1  0.68325000  0.08405000  0.56705000  1
  C  C186  1  0.43433000  0.82103000  0.83401000  1
  C  C187  1  0.32103000  0.93433000  0.33401000  1
  C  C188  1  0.43811000  0.85901000  0.76927000  1
  C  C189  1  0.35901000  0.93811000  0.26927000  1
  C  C190  1  0.90708000  0.19158000  0.56426000  1
  C  C191  1  0.69158000  0.40708000  0.06426000  1
  C  C192  1  0.94190000  0.80840000  0.58660000  1
  C  C193  1  0.30840000  0.44190000  0.08660000  1
  C  C194  1  0.08170000  0.64180000  0.62630000  1
  C  C195  1  0.14180000  0.58170000  0.12630000  1
  C  C196  1  0.83690000  0.69160000  0.91340000  1
  C  C197  1  0.19160000  0.33690000  0.41340000  1
  C  C198  1  0.35296000  0.20516000  0.86842000  1
  C  C199  1  0.70516000  0.85296000  0.36842000  1
  C  C200  1  0.58136000  0.25526000  0.94732000  1
  C  C201  1  0.75526000  0.08136000  0.44732000  1
  C  C202  1  0.65032000  0.88132000  0.40454000  1
  C  C203  1  0.38132000  0.15032000  0.90454000  1
  C  C204  1  0.58271000  0.29191000  0.88807000  1
  C  C205  1  0.79191000  0.08271000  0.38807000  1
  C  C206  1  0.08405000  0.66565000  0.56705000  1
  C  C207  1  0.16565000  0.58405000  0.06705000  1
  C  C208  1  0.29191000  0.23731000  0.88807000  1
  C  C209  1  0.73731000  0.79191000  0.38807000  1
  C  C210  1  0.38364000  0.34364000  0.09008000  1
  C  C211  1  0.84364000  0.88364000  0.59008000  1
  C  C212  1  0.77790000  0.73360000  0.91130000  1
  C  C213  1  0.23360000  0.27790000  0.41130000  1
  C  C214  1  0.11868000  0.93618000  0.59546000  1
  C  C215  1  0.43618000  0.61868000  0.09546000  1
  C  C216  1  0.91907000  0.58897000  0.91469000  1
  C  C217  1  0.08897000  0.41907000  0.41469000  1
  C  C218  1  0.62688000  0.84608000  0.46376000  1
  C  C219  1  0.34608000  0.12688000  0.96376000  1
  C  C220  1  0.06189000  0.56639000  0.73073000  1
  C  C221  1  0.06639000  0.56189000  0.23073000  1
  C  C222  1  0.15392000  0.93672000  0.53624000  1
  C  C223  1  0.43672000  0.65392000  0.03624000  1
  C  C224  1  0.44416000  0.72566000  0.91252000  1
  C  C225  1  0.22566000  0.94416000  0.41252000  1
  C  C226  1  0.58897000  0.57727000  0.91469000  1
  C  C227  1  0.07727000  0.08897000  0.41469000  1
  C  C228  1  0.44787000  0.75887000  0.85309000  1
  C  C229  1  0.25887000  0.94787000  0.35309000  1
  C  C230  1  0.89499000  0.24289000  0.45323000  1
  C  C231  1  0.74289000  0.39499000  0.95323000  1
  C  C232  1  0.41907000  0.07727000  0.41469000  1
  C  C233  1  0.57727000  0.91907000  0.91469000  1
  C  C234  1  0.25526000  0.21606000  0.94732000  1
  C  C235  1  0.71606000  0.75526000  0.44732000  1
  C  C236  1  0.59503000  0.15403000  0.02781000  1
  C  C237  1  0.65403000  0.09503000  0.52781000  1
  C  C238  1  0.07713000  0.40813000  0.92281000  1
  C  C239  1  0.90813000  0.57713000  0.42281000  1
  C  C240  1  0.06567000  0.58937000  0.66599000  1
  C  C241  1  0.08937000  0.56567000  0.16599000  1
  C  C242  1  0.28334000  0.15824000  0.98608000  1
  C  C243  1  0.65824000  0.78334000  0.48608000  1
  C  C244  1  0.85605000  0.63365000  0.91235000  1
  C  C245  1  0.13365000  0.35605000  0.41235000  1
  C  C246  1  0.08136000  0.71606000  0.44732000  1
  C  C247  1  0.21606000  0.58136000  0.94732000  1
  C  C248  1  0.80842000  0.66292000  0.43574000  1
  C  C249  1  0.16292000  0.30842000  0.93574000  1
  C  C250  1  0.59096000  0.18946000  0.97102000  1
  C  C251  1  0.68946000  0.09096000  0.47102000  1
  C  C252  1  0.90207000  0.15757000  0.54179000  1
  C  C253  1  0.65757000  0.40207000  0.04179000  1
  C  C254  1  0.74856000  0.68946000  0.47102000  1
  C  C255  1  0.18946000  0.24856000  0.97102000  1
  C  C256  1  0.84243000  0.60143000  0.45821000  1
  C  C257  1  0.10143000  0.34243000  0.95821000  1
  C  C258  1  0.27434000  0.08234000  0.08748000  1
  C  C259  1  0.58234000  0.77434000  0.58748000  1
  C  C260  1  0.92280000  0.76640000  0.58870000  1
  C  C261  1  0.26640000  0.42280000  0.08870000  1
  C  C262  1  0.31736000  0.15636000  0.40992000  1
  C  C263  1  0.65636000  0.81736000  0.90992000  1
  C  C264  1  0.24737000  0.13497000  0.04689000  1
  C  C265  1  0.63497000  0.74737000  0.54689000  1
  C  C266  1  0.08271000  0.73731000  0.38807000  1
  C  C267  1  0.23731000  0.58271000  0.88807000  1
  C  C268  1  0.05144000  0.94744000  0.61718000  1
  C  C269  1  0.44744000  0.55144000  0.11718000  1
  C  C270  1  0.88394000  0.44744000  0.11718000  1
  C  C271  1  0.94744000  0.38394000  0.61718000  1
  C  C272  1  0.07077000  0.63497000  0.54689000  1
  C  C273  1  0.13497000  0.57077000  0.04689000  1
  C  C274  1  0.89445000  0.18455000  0.48665000  1
  C  C275  1  0.68455000  0.39445000  0.98665000  1
  C  C276  1  0.24113000  0.05983000  0.14691000  1
  C  C277  1  0.55983000  0.74113000  0.64691000  1
  C  C278  1  0.72313000  0.65403000  0.52781000  1
  C  C279  1  0.15403000  0.22313000  0.02781000  1
  C  C280  1  0.35605000  0.09795000  0.41235000  1
  C  C281  1  0.59795000  0.85605000  0.91235000  1
  C  C282  1  0.60501000  0.09111000  0.04677000  1
  C  C283  1  0.59111000  0.10501000  0.54677000  1
  C  C284  1  0.18325000  0.16565000  0.06705000  1
  C  C285  1  0.66565000  0.68325000  0.56705000  1
  C  C286  1  0.34305000  0.32265000  0.09125000  1
  C  C287  1  0.82265000  0.84305000  0.59125000  1
  C  C288  1  0.73863000  0.71613000  0.90731000  1
  C  C289  1  0.21613000  0.23863000  0.40731000  1
  C  C290  1  0.81545000  0.56565000  0.51335000  1
  C  C291  1  0.06565000  0.31545000  0.01335000  1
  C  C292  1  0.07234000  0.65824000  0.48608000  1
  C  C293  1  0.15824000  0.57234000  0.98608000  1
  C  C294  1  0.59187000  0.40807000  0.07719000  1
  C  C295  1  0.90807000  0.09187000  0.57719000  1
  C  C296  1  0.42287000  0.90807000  0.57719000  1
  C  C297  1  0.40807000  0.92287000  0.07719000  1
  C  C298  1  0.59292000  0.16292000  0.93574000  1
  C  C299  1  0.66292000  0.09292000  0.43574000  1
  C  C300  1  0.75711000  0.59111000  0.54677000  1
  C  C301  1  0.09111000  0.25711000  0.04677000  1
  C  C302  1  0.17897000  0.08937000  0.16599000  1
  C  C303  1  0.58937000  0.67897000  0.66599000  1
  C  C304  1  0.05213000  0.55983000  0.64691000  1
  C  C305  1  0.05983000  0.55213000  0.14691000  1
  C  C306  1  0.15020000  0.14180000  0.12630000  1
  C  C307  1  0.64180000  0.65020000  0.62630000  1
  C  C308  1  0.86207000  0.78387000  0.59269000  1
  C  C309  1  0.28387000  0.36207000  0.09269000  1
  C  C310  1  0.81736000  0.61636000  0.90992000  1
  C  C311  1  0.11636000  0.31736000  0.40992000  1
  C  C312  1  0.25695000  0.17735000  0.40875000  1
  C  C313  1  0.67735000  0.75695000  0.90875000  1
  C  C314  1  0.42280000  0.22210000  0.08870000  1
  C  C315  1  0.72210000  0.92280000  0.58870000  1
  C  C316  1  0.05584000  0.58234000  0.58748000  1
  C  C317  1  0.08234000  0.55584000  0.08748000  1
  C  C318  1  0.14099000  0.06639000  0.23073000  1
  C  C319  1  0.56639000  0.64099000  0.73073000  1
  C  C320  1  0.07346000  0.70516000  0.36842000  1
  C  C321  1  0.20516000  0.57346000  0.86842000  1
  C  C322  1  0.75695000  0.65695000  0.90875000  1
  C  C323  1  0.15695000  0.25695000  0.40875000  1
  C  C324  1  0.36207000  0.26137000  0.09269000  1
  C  C325  1  0.76137000  0.86207000  0.59269000  1
  C  C326  1  0.84968000  0.43618000  0.09546000  1
  C  C327  1  0.93618000  0.34968000  0.59546000  1
  C  C328  1  0.60555000  0.06565000  0.01335000  1
  C  C329  1  0.56565000  0.10555000  0.51335000  1
  C  C330  1  0.59793000  0.10143000  0.95821000  1
  C  C331  1  0.60143000  0.09793000  0.45821000  1
  C  C332  1  0.33690000  0.05810000  0.41340000  1
  C  C333  1  0.55810000  0.83690000  0.91340000  1
  C  C334  1  0.87312000  0.43672000  0.03624000  1
  C  C335  1  0.93672000  0.37312000  0.53624000  1
  Cd  Cd336  1  0.50000000  0.50000000  1.00000000  1
  Cd  Cd337  1  0.00000000  0.00000000  0.50000000  1
  Cd  Cd338  1  0.07146667  0.02905667  0.34279000  1
  Cd  Cd339  1  0.52905667  0.57146667  0.84279000  1
  Cd  Cd340  1  0.55668667  0.07146667  0.34279000  1
  Cd  Cd341  1  0.57146667  0.05668667  0.84279000  1
  Cd  Cd342  1  0.94331333  0.47094333  0.15721000  1
  Cd  Cd343  1  0.97094333  0.44331333  0.65721000  1
  Cd  Cd344  1  0.00000000  0.50000000  1.00000000  1
  Cd  Cd345  1  0.50000000  0.00000000  0.50000000  1
  Cd  Cd346  1  0.50000000  1.00000000  1.00000000  1
  Cd  Cd347  1  1.00000000  0.50000000  0.50000000  1
  Cd  Cd348  1  0.05668667  0.52905667  0.84279000  1
  Cd  Cd349  1  0.02905667  0.55668667  0.34279000  1
  Cd  Cd350  1  0.44331333  0.92853333  0.65721000  1
  Cd  Cd351  1  0.42853333  0.94331333  0.15721000  1
  Cd  Cd352  1  0.47094333  0.42853333  0.15721000  1
  Cd  Cd353  1  0.92853333  0.97094333  0.65721000  1
  H  H354  1  0.06140000  0.54790000  0.07440000  1
  H  H355  1  0.04790000  0.56140000  0.57440000  1
  H  H356  1  0.51800000  0.86320000  0.91550000  1
  H  H357  1  0.36320000  0.01800000  0.41550000  1
  H  H358  1  0.52410000  0.11090000  0.52790000  1
  H  H359  1  0.61090000  0.02410000  0.02790000  1
  H  H360  1  0.16930000  0.42290000  0.09110000  1
  H  H361  1  0.92290000  0.66930000  0.59110000  1
  H  H362  1  0.92640000  0.27900000  0.67070000  1
  H  H363  1  0.77900000  0.42640000  0.17070000  1
  H  H364  1  0.95940000  0.47440000  0.32690000  1
  H  H365  1  0.97440000  0.45940000  0.82690000  1
  H  H366  1  0.93400000  0.76090000  0.91660000  1
  H  H367  1  0.26090000  0.43400000  0.41660000  1
  H  H368  1  0.08970000  0.55680000  0.98860000  1
  H  H369  1  0.05680000  0.58970000  0.48860000  1
  H  H370  1  0.89210000  0.83880000  0.86020000  1
  H  H371  1  0.33880000  0.39210000  0.36020000  1
  H  H372  1  0.11090000  0.83710000  0.52790000  1
  H  H373  1  0.33710000  0.61090000  0.02790000  1
  H  H374  1  0.40920000  0.81350000  0.10260000  1
  H  H375  1  0.31350000  0.90920000  0.60260000  1
  H  H376  1  0.97590000  0.66290000  0.97210000  1
  H  H377  1  0.16290000  0.47590000  0.47210000  1
  H  H378  1  0.38850000  0.93400000  0.91660000  1
  H  H379  1  0.43400000  0.88850000  0.41660000  1
  H  H380  1  0.47440000  0.23930000  0.32690000  1
  H  H381  1  0.73930000  0.97440000  0.82690000  1
  H  H382  1  0.04970000  0.27270000  0.41250000  1
  H  H383  1  0.77270000  0.54970000  0.91250000  1
  H  H384  1  0.54970000  0.76510000  0.91250000  1
  H  H385  1  0.26510000  0.04970000  0.41250000  1
  H  H386  1  0.54060000  0.26070000  0.17310000  1
  H  H387  1  0.76070000  0.04060000  0.67310000  1
  H  H388  1  0.55680000  0.36490000  0.98860000  1
  H  H389  1  0.86490000  0.05680000  0.48860000  1
  H  H390  1  0.54790000  0.31630000  0.07440000  1
  H  H391  1  0.81630000  0.04790000  0.57440000  1
  H  H392  1  0.11150000  0.73910000  0.58340000  1
  H  H393  1  0.23910000  0.61150000  0.08340000  1
  H  H394  1  0.43860000  0.18370000  0.42560000  1
  H  H395  1  0.68370000  0.93860000  0.92560000  1
  H  H396  1  0.91000000  0.22620000  0.63800000  1
  H  H397  1  0.72620000  0.41000000  0.13800000  1
  H  H398  1  0.41000000  0.72580000  0.13800000  1
  H  H399  1  0.22580000  0.91000000  0.63800000  1
  H  H400  1  0.81350000  0.67470000  0.10260000  1
  H  H401  1  0.17470000  0.31350000  0.60260000  1
  H  H402  1  0.41030000  0.13510000  0.51140000  1
  H  H403  1  0.63510000  0.91030000  0.01140000  1
  H  H404  1  0.66930000  0.81670000  0.59110000  1
  H  H405  1  0.31670000  0.16930000  0.09110000  1
  H  H406  1  0.22620000  0.22580000  0.63800000  1
  H  H407  1  0.72580000  0.72620000  0.13800000  1
  H  H408  1  0.40890000  0.89210000  0.86020000  1
  H  H409  1  0.39210000  0.90890000  0.36020000  1
  H  H410  1  0.18330000  0.07710000  0.40890000  1
  H  H411  1  0.57710000  0.68330000  0.90890000  1
  H  H412  1  0.23490000  0.22730000  0.08750000  1
  H  H413  1  0.72730000  0.73490000  0.58750000  1
  H  H414  1  0.27900000  0.12390000  0.67070000  1
  H  H415  1  0.62390000  0.77900000  0.17070000  1
  H  H416  1  0.09080000  0.82530000  0.39740000  1
  H  H417  1  0.32530000  0.59080000  0.89740000  1
  H  H418  1  0.09110000  0.66120000  0.63980000  1
  H  H419  1  0.16120000  0.59110000  0.13980000  1
  H  H420  1  0.86320000  0.70330000  0.91550000  1
  H  H421  1  0.20330000  0.36320000  0.41550000  1
  H  H422  1  0.57360000  0.37610000  0.82930000  1
  H  H423  1  0.87610000  0.07360000  0.32930000  1
  H  H424  1  0.98200000  0.79670000  0.58450000  1
  H  H425  1  0.29670000  0.48200000  0.08450000  1
  H  H426  1  0.01800000  0.20330000  0.41550000  1
  H  H427  1  0.70330000  0.51800000  0.91550000  1
  H  H428  1  0.42640000  0.62390000  0.17070000  1
  H  H429  1  0.12390000  0.92640000  0.67070000  1
  H  H430  1  0.79670000  0.63680000  0.58450000  1
  H  H431  1  0.13680000  0.29670000  0.08450000  1
  H  H432  1  0.90890000  0.33880000  0.36020000  1
  H  H433  1  0.83880000  0.40890000  0.86020000  1
  H  H434  1  0.90920000  0.17470000  0.60260000  1
  H  H435  1  0.67470000  0.40920000  0.10260000  1
  H  H436  1  0.37610000  0.22100000  0.82930000  1
  H  H437  1  0.72100000  0.87610000  0.32930000  1
  H  H438  1  0.27270000  0.26510000  0.41250000  1
  H  H439  1  0.76510000  0.77270000  0.91250000  1
  H  H440  1  0.42290000  0.31670000  0.09110000  1
  H  H441  1  0.81670000  0.92290000  0.59110000  1
  H  H442  1  0.59110000  0.10790000  0.13980000  1
  H  H443  1  0.60790000  0.09110000  0.63980000  1
  H  H444  1  0.27420000  0.27380000  0.86200000  1
  H  H445  1  0.77380000  0.77420000  0.36200000  1
  H  H446  1  0.33070000  0.18330000  0.40890000  1
  H  H447  1  0.68330000  0.83070000  0.90890000  1
  H  H448  1  0.58970000  0.86490000  0.48860000  1
  H  H449  1  0.36490000  0.08970000  0.98860000  1
  H  H450  1  0.82530000  0.68650000  0.39740000  1
  H  H451  1  0.18650000  0.32530000  0.89740000  1
  H  H452  1  0.59000000  0.27420000  0.86200000  1
  H  H453  1  0.77420000  0.09000000  0.36200000  1
  H  H454  1  0.09000000  0.77380000  0.36200000  1
  H  H455  1  0.27380000  0.59000000  0.86200000  1
  H  H456  1  0.56140000  0.81630000  0.57440000  1
  H  H457  1  0.31630000  0.06140000  0.07440000  1
  H  H458  1  0.88850000  0.26090000  0.41660000  1
  H  H459  1  0.76090000  0.38850000  0.91660000  1
  H  H460  1  0.18370000  0.95210000  0.42560000  1
  H  H461  1  0.45210000  0.68370000  0.92560000  1
  H  H462  1  0.13510000  0.94320000  0.51140000  1
  H  H463  1  0.44320000  0.63510000  0.01140000  1
  H  H464  1  0.45940000  0.73930000  0.82690000  1
  H  H465  1  0.23930000  0.95940000  0.32690000  1
  H  H466  1  0.45030000  0.23490000  0.08750000  1
  H  H467  1  0.73490000  0.95030000  0.58750000  1
  H  H468  1  0.95030000  0.72730000  0.58750000  1
  H  H469  1  0.22730000  0.45030000  0.08750000  1
  H  H470  1  0.26070000  0.02560000  0.17310000  1
  H  H471  1  0.52560000  0.76070000  0.67310000  1
  H  H472  1  0.61150000  0.06600000  0.08340000  1
  H  H473  1  0.56600000  0.11150000  0.58340000  1
  H  H474  1  0.02410000  0.33710000  0.02790000  1
  H  H475  1  0.83710000  0.52410000  0.52790000  1
  H  H476  1  0.59080000  0.18650000  0.89740000  1
  H  H477  1  0.68650000  0.09080000  0.39740000  1
  H  H478  1  0.66290000  0.38910000  0.97210000  1
  H  H479  1  0.88910000  0.16290000  0.47210000  1
  H  H480  1  0.66120000  0.60790000  0.63980000  1
  H  H481  1  0.10790000  0.16120000  0.13980000  1
  H  H482  1  0.91030000  0.44320000  0.01140000  1
  H  H483  1  0.94320000  0.41030000  0.51140000  1
  H  H484  1  0.73910000  0.56600000  0.58340000  1
  H  H485  1  0.06600000  0.23910000  0.08340000  1
  H  H486  1  0.04060000  0.52560000  0.67310000  1
  H  H487  1  0.02560000  0.54060000  0.17310000  1
  H  H488  1  0.07360000  0.72100000  0.32930000  1
  H  H489  1  0.22100000  0.57360000  0.82930000  1
  H  H490  1  0.83070000  0.57710000  0.90890000  1
  H  H491  1  0.07710000  0.33070000  0.40890000  1
  H  H492  1  0.47590000  0.88910000  0.47210000  1
  H  H493  1  0.38910000  0.97590000  0.97210000  1
  H  H494  1  0.48200000  0.13680000  0.08450000  1
  H  H495  1  0.63680000  0.98200000  0.58450000  1
  H  H496  1  0.93860000  0.45210000  0.92560000  1
  H  H497  1  0.95210000  0.43860000  0.42560000  1
  O  O498  1  0.08768000  0.94180000  0.44525000  1
  O  O499  1  0.44180000  0.58768000  0.94525000  1
  O  O500  1  0.91333000  0.90013000  0.75301000  1
  O  O501  1  0.40013000  0.41333000  0.25301000  1
  O  O502  1  0.48400000  0.33630000  0.23570000  1
  O  O503  1  0.83630000  0.98400000  0.73570000  1
  O  O504  1  0.54928000  0.47188000  0.91546000  1
  O  O505  1  0.97188000  0.04928000  0.41546000  1
  O  O506  1  0.61023000  0.09363000  0.36881000  1
  O  O507  1  0.59363000  0.11023000  0.86881000  1
  O  O508  1  0.09363000  0.92733000  0.36881000  1
  O  O509  1  0.42733000  0.59363000  0.86881000  1
  O  O510  1  0.94400000  0.48400000  0.23570000  1
  O  O511  1  0.98400000  0.44400000  0.73570000  1
  O  O512  1  0.54677000  0.47957000  0.83209000  1
  O  O513  1  0.97957000  0.04677000  0.33209000  1
  O  O514  1  0.42279000  0.40269000  0.13223000  1
  O  O515  1  0.90269000  0.92279000  0.63223000  1
  O  O516  1  0.95557000  0.93297000  0.53479000  1
  O  O517  1  0.43297000  0.45557000  0.03479000  1
  O  O518  1  0.52527000  0.08768000  0.44525000  1
  O  O519  1  0.58768000  0.02527000  0.94525000  1
  O  O520  1  0.14157000  0.54677000  0.83209000  1
  O  O521  1  0.04677000  0.64157000  0.33209000  1
  O  O522  1  0.97473000  0.55820000  0.05475000  1
  O  O523  1  0.05820000  0.47473000  0.55475000  1
  O  O524  1  0.55600000  0.16370000  0.26430000  1
  O  O525  1  0.66370000  0.05600000  0.76430000  1
  O  O526  1  0.06338000  0.54928000  0.91546000  1
  O  O527  1  0.04928000  0.56338000  0.41546000  1
  O  O528  1  0.57667000  0.95557000  0.53479000  1
  O  O529  1  0.45557000  0.07667000  0.03479000  1
  O  O530  1  0.04229000  0.42279000  0.13223000  1
  O  O531  1  0.92279000  0.54229000  0.63223000  1
  O  O532  1  0.88977000  0.57267000  0.13119000  1
  O  O533  1  0.07267000  0.38977000  0.63119000  1
  O  O534  1  0.54229000  0.90269000  0.63223000  1
  O  O535  1  0.40269000  0.04229000  0.13223000  1
  O  O536  1  0.07667000  0.43297000  0.03479000  1
  O  O537  1  0.93297000  0.57667000  0.53479000  1
  O  O538  1  0.43662000  0.02812000  0.58454000  1
  O  O539  1  0.52812000  0.93662000  0.08454000  1
  O  O540  1  0.43353000  0.91333000  0.75301000  1
  O  O541  1  0.41333000  0.93353000  0.25301000  1
  O  O542  1  0.64157000  0.97957000  0.33209000  1
  O  O543  1  0.47957000  0.14157000  0.83209000  1
  O  O544  1  0.93353000  0.40013000  0.25301000  1
  O  O545  1  0.90013000  0.43353000  0.75301000  1
  O  O546  1  0.06647000  0.59987000  0.74699000  1
  O  O547  1  0.09987000  0.56647000  0.24699000  1
  O  O548  1  0.35843000  0.02043000  0.66791000  1
  O  O549  1  0.52043000  0.85843000  0.16791000  1
  O  O550  1  0.56647000  0.08667000  0.24699000  1
  O  O551  1  0.58667000  0.06647000  0.74699000  1
  O  O552  1  0.56338000  0.97188000  0.41546000  1
  O  O553  1  0.47188000  0.06338000  0.91546000  1
  O  O554  1  0.92333000  0.56703000  0.96521000  1
  O  O555  1  0.06703000  0.42333000  0.46521000  1
  O  O556  1  0.45771000  0.09731000  0.36777000  1
  O  O557  1  0.59731000  0.95771000  0.86777000  1
  O  O558  1  0.11023000  0.42733000  0.86881000  1
  O  O559  1  0.92733000  0.61023000  0.36881000  1
  O  O560  1  0.95771000  0.57721000  0.86777000  1
  O  O561  1  0.07721000  0.45771000  0.36777000  1
  O  O562  1  0.42333000  0.04443000  0.46521000  1
  O  O563  1  0.54443000  0.92333000  0.96521000  1
  O  O564  1  0.93662000  0.45072000  0.08454000  1
  O  O565  1  0.95072000  0.43662000  0.58454000  1
  O  O566  1  0.44400000  0.83630000  0.73570000  1
  O  O567  1  0.33630000  0.94400000  0.23570000  1
  O  O568  1  0.02527000  0.44180000  0.94525000  1
  O  O569  1  0.94180000  0.52527000  0.44525000  1
  O  O570  1  0.85843000  0.45323000  0.16791000  1
  O  O571  1  0.95323000  0.35843000  0.66791000  1
  O  O572  1  0.47473000  0.91232000  0.55475000  1
  O  O573  1  0.41232000  0.97473000  0.05475000  1
  O  O574  1  0.56703000  0.54443000  0.96521000  1
  O  O575  1  0.04443000  0.06703000  0.46521000  1
  O  O576  1  0.09731000  0.07721000  0.36777000  1
  O  O577  1  0.57721000  0.59731000  0.86777000  1
  O  O578  1  0.02043000  0.95323000  0.66791000  1
  O  O579  1  0.45323000  0.52043000  0.16791000  1
  O  O580  1  0.05600000  0.51600000  0.76430000  1
  O  O581  1  0.01600000  0.55600000  0.26430000  1
  O  O582  1  0.57267000  0.40637000  0.13119000  1
  O  O583  1  0.90637000  0.07267000  0.63119000  1
  O  O584  1  0.38977000  0.90637000  0.63119000  1
  O  O585  1  0.40637000  0.88977000  0.13119000  1
  O  O586  1  0.02812000  0.95072000  0.58454000  1
  O  O587  1  0.45072000  0.52812000  0.08454000  1
  O  O588  1  0.16370000  0.01600000  0.26430000  1
  O  O589  1  0.51600000  0.66370000  0.76430000  1
  O  O590  1  0.59987000  0.58667000  0.74699000  1
  O  O591  1  0.08667000  0.09987000  0.24699000  1
  O  O592  1  0.55820000  0.41232000  0.05475000  1
  O  O593  1  0.91232000  0.05820000  0.55475000  1
