# generated using pymatgen
data_Fe3H24C42O13
_symmetry_space_group_name_H-M   'P 1'
_cell_length_a   21.75700000
_cell_length_b   21.75700000
_cell_length_c   35.29900000
_cell_angle_alpha   90.00000000
_cell_angle_beta   90.00000000
_cell_angle_gamma   90.00000000
_symmetry_Int_Tables_number   1
_chemical_formula_structural   Fe3H24C42O13
_chemical_formula_sum   'Fe24 H192 C336 O104'
_cell_volume   16709.38346265
_cell_formula_units_Z   8
loop_
 _symmetry_equiv_pos_site_id
 _symmetry_equiv_pos_as_xyz
  1  'x, y, z'
loop_
 _atom_site_type_symbol
 _atom_site_label
 _atom_site_symmetry_multiplicity
 _atom_site_fract_x
 _atom_site_fract_y
 _atom_site_fract_z
 _atom_site_occupancy
  Fe  Fe0  1  0.00024000  0.71656000  0.14968000  1
  Fe  Fe1  1  0.00239000  0.34314000  0.73610000  1
  Fe  Fe2  1  0.00546000  0.80623000  0.22588000  1
  Fe  Fe3  1  0.15686000  0.50239000  0.98610000  1
  Fe  Fe4  1  0.19377000  0.99454000  0.27412000  1
  Fe  Fe5  1  0.21656000  0.49976000  0.89968000  1
  Fe  Fe6  1  0.28344000  0.99976000  0.35032000  1
  Fe  Fe7  1  0.30623000  0.49454000  0.97588000  1
  Fe  Fe8  1  0.34314000  0.00239000  0.26390000  1
  Fe  Fe9  1  0.49454000  0.30623000  0.02412000  1
  Fe  Fe10  1  0.49761000  0.84314000  0.51390000  1
  Fe  Fe11  1  0.49976000  0.21656000  0.10032000  1
  Fe  Fe12  1  0.50024000  0.78344000  0.60032000  1
  Fe  Fe13  1  0.50239000  0.15686000  0.01390000  1
  Fe  Fe14  1  0.50546000  0.69377000  0.52412000  1
  Fe  Fe15  1  0.65686000  0.99761000  0.76390000  1
  Fe  Fe16  1  0.69377000  0.50546000  0.47588000  1
  Fe  Fe17  1  0.71656000  0.00024000  0.85032000  1
  Fe  Fe18  1  0.78344000  0.50024000  0.39968000  1
  Fe  Fe19  1  0.80623000  0.00546000  0.77412000  1
  Fe  Fe20  1  0.84314000  0.49761000  0.48610000  1
  Fe  Fe21  1  0.99454000  0.19377000  0.72588000  1
  Fe  Fe22  1  0.99761000  0.65686000  0.23610000  1
  Fe  Fe23  1  0.99976000  0.28344000  0.64968000  1
  H  H24  1  0.00100000  0.69540000  0.34450000  1
  H  H25  1  0.00370000  0.80180000  0.33900000  1
  H  H26  1  0.00980000  0.74560000  0.45490000  1
  H  H27  1  0.01300000  0.62460000  0.95530000  1
  H  H28  1  0.03860000  0.23850000  0.31780000  1
  H  H29  1  0.04570000  0.73170000  0.84210000  1
  H  H30  1  0.05750000  0.30070000  0.43560000  1
  H  H31  1  0.05910000  0.33300000  0.97060000  1
  H  H32  1  0.06790000  0.38330000  0.86020000  1
  H  H33  1  0.06980000  0.87960000  0.31800000  1
  H  H34  1  0.09440000  0.20990000  0.42600000  1
  H  H35  1  0.10560000  0.16140000  0.29700000  1
  H  H36  1  0.10960000  0.77820000  0.43230000  1
  H  H37  1  0.11140000  0.15900000  0.81920000  1
  H  H38  1  0.11610000  0.65700000  0.86180000  1
  H  H39  1  0.11670000  0.56790000  0.11020000  1
  H  H40  1  0.12040000  0.93020000  0.18200000  1
  H  H41  1  0.12460000  0.48700000  0.70530000  1
  H  H42  1  0.13190000  0.64860000  0.31840000  1
  H  H43  1  0.13280000  0.16130000  0.59490000  1
  H  H44  1  0.14400000  0.82430000  0.08870000  1
  H  H45  1  0.14860000  0.36810000  0.06840000  1
  H  H46  1  0.14890000  0.28550000  0.11090000  1
  H  H47  1  0.14910000  0.18010000  0.13020000  1
  H  H48  1  0.15190000  0.34040000  0.81170000  1
  H  H49  1  0.15700000  0.38390000  0.61180000  1
  H  H50  1  0.15900000  0.11140000  0.18080000  1
  H  H51  1  0.15960000  0.65190000  0.06170000  1
  H  H52  1  0.16130000  0.13280000  0.40510000  1
  H  H53  1  0.16140000  0.10560000  0.70300000  1
  H  H54  1  0.16700000  0.55910000  0.22060000  1
  H  H55  1  0.16940000  0.72060000  0.11230000  1
  H  H56  1  0.17570000  0.85600000  0.41130000  1
  H  H57  1  0.18010000  0.14910000  0.86980000  1
  H  H58  1  0.18100000  0.81820000  0.28180000  1
  H  H59  1  0.18160000  0.73640000  0.17580000  1
  H  H60  1  0.18180000  0.81900000  0.21820000  1
  H  H61  1  0.19540000  0.49900000  0.09450000  1
  H  H62  1  0.19820000  0.99630000  0.16100000  1
  H  H63  1  0.19930000  0.55750000  0.68560000  1
  H  H64  1  0.20990000  0.09440000  0.57400000  1
  H  H65  1  0.21450000  0.64890000  0.36090000  1
  H  H66  1  0.22060000  0.33060000  0.86230000  1
  H  H67  1  0.22180000  0.89040000  0.06770000  1
  H  H68  1  0.23170000  0.45430000  0.59210000  1
  H  H69  1  0.23640000  0.31840000  0.92580000  1
  H  H70  1  0.23850000  0.03860000  0.68220000  1
  H  H71  1  0.24560000  0.49020000  0.20490000  1
  H  H72  1  0.25440000  0.99020000  0.04510000  1
  H  H73  1  0.26150000  0.53860000  0.56780000  1
  H  H74  1  0.26360000  0.81840000  0.32420000  1
  H  H75  1  0.26830000  0.95430000  0.65790000  1
  H  H76  1  0.27820000  0.39040000  0.18230000  1
  H  H77  1  0.27940000  0.83060000  0.38770000  1
  H  H78  1  0.28550000  0.14890000  0.88910000  1
  H  H79  1  0.29010000  0.59440000  0.67600000  1
  H  H80  1  0.30070000  0.05750000  0.56440000  1
  H  H81  1  0.30180000  0.49630000  0.08900000  1
  H  H82  1  0.30460000  0.99900000  0.15550000  1
  H  H83  1  0.31820000  0.31900000  0.03180000  1
  H  H84  1  0.31840000  0.23640000  0.07420000  1
  H  H85  1  0.31900000  0.31820000  0.96820000  1
  H  H86  1  0.31990000  0.64910000  0.38020000  1
  H  H87  1  0.32430000  0.35600000  0.83870000  1
  H  H88  1  0.33060000  0.22060000  0.13770000  1
  H  H89  1  0.33300000  0.05910000  0.02940000  1
  H  H90  1  0.33860000  0.60560000  0.54700000  1
  H  H91  1  0.33870000  0.63280000  0.84490000  1
  H  H92  1  0.34040000  0.15190000  0.18830000  1
  H  H93  1  0.34100000  0.61140000  0.06920000  1
  H  H94  1  0.34300000  0.88390000  0.63820000  1
  H  H95  1  0.34810000  0.84040000  0.43830000  1
  H  H96  1  0.35090000  0.68010000  0.11980000  1
  H  H97  1  0.35110000  0.78550000  0.13910000  1
  H  H98  1  0.35140000  0.86810000  0.18160000  1
  H  H99  1  0.35600000  0.32430000  0.16130000  1
  H  H100  1  0.36720000  0.66130000  0.65510000  1
  H  H101  1  0.36810000  0.14860000  0.93160000  1
  H  H102  1  0.37540000  0.98700000  0.54470000  1
  H  H103  1  0.37960000  0.43020000  0.06800000  1
  H  H104  1  0.38330000  0.06790000  0.13980000  1
  H  H105  1  0.38390000  0.15700000  0.38820000  1
  H  H106  1  0.38860000  0.65900000  0.43080000  1
  H  H107  1  0.39040000  0.27820000  0.81770000  1
  H  H108  1  0.39440000  0.66140000  0.95300000  1
  H  H109  1  0.40560000  0.70990000  0.82400000  1
  H  H110  1  0.43020000  0.37960000  0.93200000  1
  H  H111  1  0.43210000  0.88330000  0.38980000  1
  H  H112  1  0.44090000  0.83300000  0.27940000  1
  H  H113  1  0.44250000  0.80070000  0.81440000  1
  H  H114  1  0.45430000  0.23170000  0.40790000  1
  H  H115  1  0.46140000  0.73850000  0.93220000  1
  H  H116  1  0.48700000  0.12460000  0.29470000  1
  H  H117  1  0.49020000  0.24560000  0.79510000  1
  H  H118  1  0.49630000  0.30180000  0.91100000  1
  H  H119  1  0.49900000  0.19540000  0.90550000  1
  H  H120  1  0.50100000  0.80460000  0.40550000  1
  H  H121  1  0.50370000  0.69820000  0.41100000  1
  H  H122  1  0.50980000  0.75440000  0.29510000  1
  H  H123  1  0.51300000  0.87540000  0.79470000  1
  H  H124  1  0.53860000  0.26150000  0.43220000  1
  H  H125  1  0.54570000  0.76830000  0.90790000  1
  H  H126  1  0.55750000  0.19930000  0.31440000  1
  H  H127  1  0.55910000  0.16700000  0.77940000  1
  H  H128  1  0.56790000  0.11670000  0.88980000  1
  H  H129  1  0.56980000  0.62040000  0.43200000  1
  H  H130  1  0.59440000  0.29010000  0.32400000  1
  H  H131  1  0.60560000  0.33860000  0.45300000  1
  H  H132  1  0.60960000  0.72180000  0.31770000  1
  H  H133  1  0.61140000  0.34100000  0.93080000  1
  H  H134  1  0.61610000  0.84300000  0.88820000  1
  H  H135  1  0.61670000  0.93210000  0.63980000  1
  H  H136  1  0.62040000  0.56980000  0.56800000  1
  H  H137  1  0.62460000  0.01300000  0.04470000  1
  H  H138  1  0.63190000  0.85140000  0.43160000  1
  H  H139  1  0.63280000  0.33870000  0.15510000  1
  H  H140  1  0.64400000  0.67570000  0.66130000  1
  H  H141  1  0.64860000  0.13190000  0.68160000  1
  H  H142  1  0.64890000  0.21450000  0.63910000  1
  H  H143  1  0.64910000  0.31990000  0.61980000  1
  H  H144  1  0.65190000  0.15960000  0.93830000  1
  H  H145  1  0.65700000  0.11610000  0.13820000  1
  H  H146  1  0.65900000  0.38860000  0.56920000  1
  H  H147  1  0.65960000  0.84810000  0.68830000  1
  H  H148  1  0.66130000  0.36720000  0.34490000  1
  H  H149  1  0.66140000  0.39440000  0.04700000  1
  H  H150  1  0.66700000  0.94090000  0.52940000  1
  H  H151  1  0.66940000  0.77940000  0.63770000  1
  H  H152  1  0.67570000  0.64400000  0.33870000  1
  H  H153  1  0.68010000  0.35090000  0.88020000  1
  H  H154  1  0.68100000  0.68180000  0.46820000  1
  H  H155  1  0.68160000  0.76360000  0.57420000  1
  H  H156  1  0.68180000  0.68100000  0.53180000  1
  H  H157  1  0.69540000  0.00100000  0.65550000  1
  H  H158  1  0.69820000  0.50370000  0.58900000  1
  H  H159  1  0.69930000  0.94250000  0.06440000  1
  H  H160  1  0.70990000  0.40560000  0.17600000  1
  H  H161  1  0.71450000  0.85110000  0.38910000  1
  H  H162  1  0.72060000  0.16940000  0.88770000  1
  H  H163  1  0.72180000  0.60960000  0.68230000  1
  H  H164  1  0.73170000  0.04570000  0.15790000  1
  H  H165  1  0.73640000  0.18160000  0.82420000  1
  H  H166  1  0.73850000  0.46140000  0.06780000  1
  H  H167  1  0.74560000  0.00980000  0.54510000  1
  H  H168  1  0.75440000  0.50980000  0.70490000  1
  H  H169  1  0.76150000  0.96140000  0.18220000  1
  H  H170  1  0.76360000  0.68160000  0.42580000  1
  H  H171  1  0.76830000  0.54570000  0.09210000  1
  H  H172  1  0.77820000  0.10960000  0.56770000  1
  H  H173  1  0.77940000  0.66940000  0.36230000  1
  H  H174  1  0.78550000  0.35110000  0.86090000  1
  H  H175  1  0.79010000  0.90560000  0.07400000  1
  H  H176  1  0.80070000  0.44250000  0.18560000  1
  H  H177  1  0.80180000  0.00370000  0.66100000  1
  H  H178  1  0.80460000  0.50100000  0.59450000  1
  H  H179  1  0.81820000  0.18100000  0.71820000  1
  H  H180  1  0.81840000  0.26360000  0.67580000  1
  H  H181  1  0.81900000  0.18180000  0.78180000  1
  H  H182  1  0.81990000  0.85090000  0.36980000  1
  H  H183  1  0.82430000  0.14400000  0.91130000  1
  H  H184  1  0.83060000  0.27940000  0.61230000  1
  H  H185  1  0.83300000  0.44090000  0.72060000  1
  H  H186  1  0.83860000  0.89440000  0.20300000  1
  H  H187  1  0.83870000  0.86720000  0.90510000  1
  H  H188  1  0.84040000  0.34810000  0.56170000  1
  H  H189  1  0.84100000  0.88860000  0.68080000  1
  H  H190  1  0.84300000  0.61610000  0.11180000  1
  H  H191  1  0.84810000  0.65960000  0.31170000  1
  H  H192  1  0.85090000  0.81990000  0.63020000  1
  H  H193  1  0.85110000  0.71450000  0.61090000  1
  H  H194  1  0.85140000  0.63190000  0.56840000  1
  H  H195  1  0.85600000  0.17570000  0.58870000  1
  H  H196  1  0.86720000  0.83870000  0.09490000  1
  H  H197  1  0.86810000  0.35140000  0.81840000  1
  H  H198  1  0.87540000  0.51300000  0.20530000  1
  H  H199  1  0.87960000  0.06980000  0.68200000  1
  H  H200  1  0.88330000  0.43210000  0.61020000  1
  H  H201  1  0.88390000  0.34300000  0.36180000  1
  H  H202  1  0.88860000  0.84100000  0.31920000  1
  H  H203  1  0.89040000  0.22180000  0.93230000  1
  H  H204  1  0.89440000  0.83860000  0.79700000  1
  H  H205  1  0.90560000  0.79010000  0.92600000  1
  H  H206  1  0.93020000  0.12040000  0.81800000  1
  H  H207  1  0.93210000  0.61670000  0.36020000  1
  H  H208  1  0.94090000  0.66700000  0.47060000  1
  H  H209  1  0.94250000  0.69930000  0.93560000  1
  H  H210  1  0.95430000  0.26830000  0.34210000  1
  H  H211  1  0.96140000  0.76150000  0.81780000  1
  H  H212  1  0.98700000  0.37540000  0.45530000  1
  H  H213  1  0.99020000  0.25440000  0.95490000  1
  H  H214  1  0.99630000  0.19820000  0.83900000  1
  H  H215  1  0.99900000  0.30460000  0.84450000  1
  C  C216  1  0.00600000  0.28060000  0.93569000  1
  C  C217  1  0.01120000  0.31040000  0.87009000  1
  C  C218  1  0.01180000  0.72788000  0.39824000  1
  C  C219  1  0.01250000  0.27740000  0.38705000  1
  C  C220  1  0.01960000  0.64630000  0.93236000  1
  C  C221  1  0.02220000  0.30930000  0.42067000  1
  C  C222  1  0.03863000  0.81280000  0.35364000  1
  C  C223  1  0.03900000  0.71000000  0.86512000  1
  C  C224  1  0.04690000  0.32730000  0.94500000  1
  C  C225  1  0.05050000  0.78268000  0.38759000  1
  C  C226  1  0.05210000  0.35710000  0.87940000  1
  C  C227  1  0.06020000  0.23140000  0.37386000  1
  C  C228  1  0.06350000  0.21700000  0.33555000  1
  C  C229  1  0.06990000  0.36550000  0.91685000  1
  C  C230  1  0.07120000  0.63380000  0.91044000  1
  C  C231  1  0.07790000  0.85900000  0.34118000  1
  C  C232  1  0.08060000  0.82710000  0.15470000  1
  C  C233  1  0.08070000  0.26120000  0.77890000  1
  C  C234  1  0.08090000  0.66560000  0.87682000  1
  C  C235  1  0.08520000  0.61450000  0.17680000  1
  C  C236  1  0.08580000  0.38600000  0.67310000  1
  C  C237  1  0.08690000  0.17530000  0.66666667  1
  C  C238  1  0.09360000  0.73600000  0.27370000  1
  C  C239  1  0.09670000  0.20000000  0.39978000  1
  C  C240  1  0.10150000  0.79880000  0.40908000  1
  C  C241  1  0.10330000  0.17130000  0.32315000  1
  C  C242  1  0.11400000  0.58580000  0.92310000  1
  C  C243  1  0.11450000  0.41480000  0.92680000  1
  C  C244  1  0.12490000  0.87110000  0.13733000  1
  C  C245  1  0.12520000  0.25060000  0.81067000  1
  C  C246  1  0.12890000  0.87510000  0.36267000  1
  C  C247  1  0.13360000  0.19381000  0.82793000  1
  C  C248  1  0.13380000  0.42880000  0.66044000  1
  C  C249  1  0.13450000  0.56990000  0.16685000  1
  C  C250  1  0.13640000  0.15430000  0.38738000  1
  C  C251  1  0.13980000  0.13990000  0.34907000  1
  C  C252  1  0.13990000  0.13980000  0.65093000  1
  C  C253  1  0.14076000  0.84500000  0.39662000  1
  C  C254  1  0.14100000  0.92210000  0.15882000  1
  C  C255  1  0.14290000  0.55210000  0.12940000  1
  C  C256  1  0.14630000  0.48040000  0.68236000  1
  C  C257  1  0.14870000  0.73340000  0.29609000  1
  C  C258  1  0.15430000  0.13640000  0.61262000  1
  C  C259  1  0.15500000  0.85924000  0.10338000  1
  C  C260  1  0.15760000  0.30158000  0.82348000  1
  C  C261  1  0.15860000  0.68308000  0.31958000  1
  C  C262  1  0.16560000  0.41910000  0.62682000  1
  C  C263  1  0.17130000  0.10330000  0.67685000  1
  C  C264  1  0.17270000  0.54690000  0.19500000  1
  C  C265  1  0.17290000  0.91940000  0.34530000  1
  C  C266  1  0.17440000  0.18797000  0.85800000  1
  C  C267  1  0.17530000  0.08690000  0.33340000  1
  C  C268  1  0.18308000  0.34140000  0.06958000  1
  C  C269  1  0.18323000  0.29230000  0.09480000  1
  C  C270  1  0.18720000  0.96137000  0.14636000  1
  C  C271  1  0.18780000  0.78382000  0.29781000  1
  C  C272  1  0.18797000  0.17440000  0.14200000  1
  C  C273  1  0.18960000  0.51120000  0.12009000  1
  C  C274  1  0.19070000  0.52220000  0.67067000  1
  C  C275  1  0.19381000  0.13360000  0.17207000  1
  C  C276  1  0.19842000  0.65760000  0.07348000  1
  C  C277  1  0.19850000  0.29574000  0.85355000  1
  C  C278  1  0.20000000  0.09670000  0.60022000  1
  C  C279  1  0.20120000  0.89850000  0.09092000  1
  C  C280  1  0.20426000  0.69850000  0.10355000  1
  C  C281  1  0.20680000  0.23890000  0.87081000  1
  C  C282  1  0.20770000  0.68323000  0.34480000  1
  C  C283  1  0.21000000  0.46100000  0.61512000  1
  C  C284  1  0.21604000  0.76320000  0.17697000  1
  C  C285  1  0.21618000  0.81220000  0.20219000  1
  C  C286  1  0.21700000  0.06350000  0.66445000  1
  C  C287  1  0.21732000  0.94950000  0.11241000  1
  C  C288  1  0.21940000  0.50600000  0.18569000  1
  C  C289  1  0.22260000  0.51250000  0.63705000  1
  C  C290  1  0.22788000  0.48820000  0.14824000  1
  C  C291  1  0.23140000  0.06020000  0.62614000  1
  C  C292  1  0.23340000  0.35130000  0.04609000  1
  C  C293  1  0.23370000  0.25320000  0.09653000  1
  C  C294  1  0.23600000  0.40640000  0.02370000  1
  C  C295  1  0.23680000  0.78396000  0.32303000  1
  C  C296  1  0.23880000  0.58070000  0.02890000  1
  C  C297  1  0.23890000  0.20680000  0.12919000  1
  C  C298  1  0.24680000  0.73370000  0.34653000  1
  C  C299  1  0.24940000  0.62520000  0.06067000  1
  C  C300  1  0.25060000  0.12520000  0.18933000  1
  C  C301  1  0.25320000  0.23370000  0.90347000  1
  C  C302  1  0.26110000  0.70680000  0.12081000  1
  C  C303  1  0.26120000  0.08070000  0.22110000  1
  C  C304  1  0.26320000  0.28396000  0.92697000  1
  C  C305  1  0.26400000  0.90640000  0.22630000  1
  C  C306  1  0.26630000  0.75320000  0.15347000  1
  C  C307  1  0.26660000  0.85130000  0.20391000  1
  C  C308  1  0.26860000  0.56020000  0.62386000  1
  C  C309  1  0.27212000  0.98820000  0.10176000  1
  C  C310  1  0.27740000  0.01250000  0.61295000  1
  C  C311  1  0.28060000  0.00600000  0.06431000  1
  C  C312  1  0.28268000  0.44950000  0.13759000  1
  C  C313  1  0.28300000  0.56350000  0.58555000  1
  C  C314  1  0.28382000  0.31220000  0.04781000  1
  C  C315  1  0.28396000  0.26320000  0.07303000  1
  C  C316  1  0.29000000  0.96100000  0.63488000  1
  C  C317  1  0.29230000  0.18323000  0.90520000  1
  C  C318  1  0.29320000  0.73890000  0.37919000  1
  C  C319  1  0.29574000  0.19850000  0.14645000  1
  C  C320  1  0.29880000  0.39850000  0.15908000  1
  C  C321  1  0.30000000  0.59670000  0.64978000  1
  C  C322  1  0.30150000  0.79574000  0.39645000  1
  C  C323  1  0.30158000  0.15760000  0.17652000  1
  C  C324  1  0.30619000  0.63360000  0.07793000  1
  C  C325  1  0.30930000  0.02220000  0.57933000  1
  C  C326  1  0.31040000  0.01120000  0.12991000  1
  C  C327  1  0.31203000  0.67440000  0.10800000  1
  C  C328  1  0.31220000  0.28382000  0.95219000  1
  C  C329  1  0.31280000  0.46137000  0.10364000  1
  C  C330  1  0.31677000  0.79230000  0.15520000  1
  C  C331  1  0.31692000  0.84140000  0.18042000  1
  C  C332  1  0.32470000  0.58690000  0.91660000  1
  C  C333  1  0.32560000  0.68797000  0.39200000  1
  C  C334  1  0.32710000  0.41940000  0.90470000  1
  C  C335  1  0.32730000  0.04690000  0.05500000  1
  C  C336  1  0.32870000  0.60330000  0.57315000  1
  C  C337  1  0.33440000  0.91910000  0.62318000  1
  C  C338  1  0.34140000  0.18308000  0.93042000  1
  C  C339  1  0.34240000  0.80158000  0.42652000  1
  C  C340  1  0.34500000  0.35924000  0.14662000  1
  C  C341  1  0.34570000  0.63640000  0.63738000  1
  C  C342  1  0.35130000  0.23340000  0.95391000  1
  C  C343  1  0.35370000  0.98040000  0.56764000  1
  C  C344  1  0.35710000  0.05210000  0.12060000  1
  C  C345  1  0.35900000  0.42210000  0.09118000  1
  C  C346  1  0.35924000  0.34500000  0.85338000  1
  C  C347  1  0.36010000  0.63980000  0.59907000  1
  C  C348  1  0.36020000  0.63990000  0.90093000  1
  C  C349  1  0.36360000  0.65430000  0.86262000  1
  C  C350  1  0.36550000  0.06990000  0.08315000  1
  C  C351  1  0.36620000  0.92880000  0.58956000  1
  C  C352  1  0.36640000  0.69381000  0.42207000  1
  C  C353  1  0.37110000  0.37510000  0.88733000  1
  C  C354  1  0.37480000  0.75060000  0.43933000  1
  C  C355  1  0.37510000  0.37110000  0.11267000  1
  C  C356  1  0.38550000  0.91480000  0.32320000  1
  C  C357  1  0.38600000  0.08580000  0.32690000  1
  C  C358  1  0.39670000  0.67130000  0.92685000  1
  C  C359  1  0.39850000  0.29880000  0.84092000  1
  C  C360  1  0.40330000  0.70000000  0.85022000  1
  C  C361  1  0.40640000  0.23600000  0.97630000  1
  C  C362  1  0.41310000  0.67530000  0.58340000  1
  C  C363  1  0.41420000  0.88600000  0.57690000  1
  C  C364  1  0.41480000  0.11450000  0.07320000  1
  C  C365  1  0.41910000  0.16560000  0.37318000  1
  C  C366  1  0.41930000  0.76120000  0.47110000  1
  C  C367  1  0.41940000  0.32710000  0.09530000  1
  C  C368  1  0.42210000  0.35900000  0.90882000  1
  C  C369  1  0.42880000  0.13380000  0.33956000  1
  C  C370  1  0.43010000  0.86550000  0.33315000  1
  C  C371  1  0.43650000  0.71700000  0.91445000  1
  C  C372  1  0.43980000  0.73140000  0.87614000  1
  C  C373  1  0.44790000  0.85710000  0.37060000  1
  C  C374  1  0.44950000  0.28268000  0.86241000  1
  C  C375  1  0.45310000  0.82730000  0.30500000  1
  C  C376  1  0.46100000  0.21000000  0.38488000  1
  C  C377  1  0.46137000  0.31280000  0.89636000  1
  C  C378  1  0.47780000  0.80930000  0.82933000  1
  C  C379  1  0.48040000  0.14630000  0.31764000  1
  C  C380  1  0.48750000  0.77740000  0.86295000  1
  C  C381  1  0.48820000  0.22788000  0.85176000  1
  C  C382  1  0.48880000  0.81040000  0.37991000  1
  C  C383  1  0.49400000  0.78060000  0.31431000  1
  C  C384  1  0.50600000  0.21940000  0.81431000  1
  C  C385  1  0.51120000  0.18960000  0.87991000  1
  C  C386  1  0.51180000  0.77212000  0.35176000  1
  C  C387  1  0.51250000  0.22260000  0.36295000  1
  C  C388  1  0.51960000  0.85370000  0.81764000  1
  C  C389  1  0.52220000  0.19070000  0.32933000  1
  C  C390  1  0.53863000  0.68720000  0.39636000  1
  C  C391  1  0.53900000  0.79000000  0.88488000  1
  C  C392  1  0.54690000  0.17270000  0.80500000  1
  C  C393  1  0.55050000  0.71732000  0.36241000  1
  C  C394  1  0.55210000  0.14290000  0.87060000  1
  C  C395  1  0.56020000  0.26860000  0.37614000  1
  C  C396  1  0.56350000  0.28300000  0.41445000  1
  C  C397  1  0.56990000  0.13450000  0.83315000  1
  C  C398  1  0.57120000  0.86620000  0.83956000  1
  C  C399  1  0.57790000  0.64100000  0.40882000  1
  C  C400  1  0.58060000  0.67290000  0.59530000  1
  C  C401  1  0.58070000  0.23880000  0.97110000  1
  C  C402  1  0.58090000  0.83440000  0.87318000  1
  C  C403  1  0.58520000  0.88550000  0.57320000  1
  C  C404  1  0.58580000  0.11400000  0.07690000  1
  C  C405  1  0.58690000  0.32470000  0.08340000  1
  C  C406  1  0.59360000  0.76400000  0.47630000  1
  C  C407  1  0.59670000  0.30000000  0.35022000  1
  C  C408  1  0.60150000  0.70120000  0.34092000  1
  C  C409  1  0.60330000  0.32870000  0.42685000  1
  C  C410  1  0.61400000  0.91420000  0.82690000  1
  C  C411  1  0.61450000  0.08520000  0.82320000  1
  C  C412  1  0.62490000  0.62890000  0.61267000  1
  C  C413  1  0.62520000  0.24940000  0.93933000  1
  C  C414  1  0.62890000  0.62490000  0.38733000  1
  C  C415  1  0.63360000  0.30619000  0.92207000  1
  C  C416  1  0.63380000  0.07120000  0.08956000  1
  C  C417  1  0.63450000  0.93010000  0.58315000  1
  C  C418  1  0.63640000  0.34570000  0.36262000  1
  C  C419  1  0.63980000  0.36010000  0.40093000  1
  C  C420  1  0.63990000  0.36020000  0.09907000  1
  C  C421  1  0.64076000  0.65500000  0.35338000  1
  C  C422  1  0.64100000  0.57790000  0.59118000  1
  C  C423  1  0.64290000  0.94790000  0.62060000  1
  C  C424  1  0.64630000  0.01960000  0.06764000  1
  C  C425  1  0.64870000  0.76660000  0.45391000  1
  C  C426  1  0.65430000  0.36360000  0.13738000  1
  C  C427  1  0.65500000  0.64076000  0.64662000  1
  C  C428  1  0.65760000  0.19842000  0.92652000  1
  C  C429  1  0.65860000  0.81692000  0.43042000  1
  C  C430  1  0.66560000  0.08090000  0.12318000  1
  C  C431  1  0.67130000  0.39670000  0.07315000  1
  C  C432  1  0.67270000  0.95310000  0.55500000  1
  C  C433  1  0.67290000  0.58060000  0.40470000  1
  C  C434  1  0.67440000  0.31203000  0.89200000  1
  C  C435  1  0.67530000  0.41310000  0.41660000  1
  C  C436  1  0.68308000  0.15860000  0.68042000  1
  C  C437  1  0.68323000  0.20770000  0.65520000  1
  C  C438  1  0.68720000  0.53863000  0.60364000  1
  C  C439  1  0.68780000  0.71618000  0.45219000  1
  C  C440  1  0.68797000  0.32560000  0.60800000  1
  C  C441  1  0.68960000  0.98880000  0.62991000  1
  C  C442  1  0.69070000  0.97780000  0.07933000  1
  C  C443  1  0.69381000  0.36640000  0.57793000  1
  C  C444  1  0.69842000  0.84240000  0.67652000  1
  C  C445  1  0.69850000  0.20426000  0.89645000  1
  C  C446  1  0.70000000  0.40330000  0.14978000  1
  C  C447  1  0.70120000  0.60150000  0.65908000  1
  C  C448  1  0.70426000  0.80150000  0.64645000  1
  C  C449  1  0.70680000  0.26110000  0.87919000  1
  C  C450  1  0.70770000  0.81677000  0.40520000  1
  C  C451  1  0.71000000  0.03900000  0.13488000  1
  C  C452  1  0.71604000  0.73680000  0.57303000  1
  C  C453  1  0.71618000  0.68780000  0.54781000  1
  C  C454  1  0.71700000  0.43650000  0.08555000  1
  C  C455  1  0.71732000  0.55050000  0.63759000  1
  C  C456  1  0.71940000  0.99400000  0.56431000  1
  C  C457  1  0.72260000  0.98750000  0.11295000  1
  C  C458  1  0.72788000  0.01180000  0.60176000  1
  C  C459  1  0.73140000  0.43980000  0.12386000  1
  C  C460  1  0.73340000  0.14870000  0.70391000  1
  C  C461  1  0.73370000  0.24680000  0.65347000  1
  C  C462  1  0.73600000  0.09360000  0.72630000  1
  C  C463  1  0.73680000  0.71604000  0.42697000  1
  C  C464  1  0.73880000  0.91930000  0.72110000  1
  C  C465  1  0.73890000  0.29320000  0.62081000  1
  C  C466  1  0.74680000  0.76630000  0.40347000  1
  C  C467  1  0.74940000  0.87480000  0.68933000  1
  C  C468  1  0.75060000  0.37480000  0.56067000  1
  C  C469  1  0.75320000  0.26630000  0.84653000  1
  C  C470  1  0.76110000  0.79320000  0.62919000  1
  C  C471  1  0.76120000  0.41930000  0.52890000  1
  C  C472  1  0.76320000  0.21604000  0.82303000  1
  C  C473  1  0.76400000  0.59360000  0.52370000  1
  C  C474  1  0.76630000  0.74680000  0.59653000  1
  C  C475  1  0.76660000  0.64870000  0.54609000  1
  C  C476  1  0.76860000  0.93980000  0.12614000  1
  C  C477  1  0.77212000  0.51180000  0.64824000  1
  C  C478  1  0.77740000  0.48750000  0.13705000  1
  C  C479  1  0.78060000  0.49400000  0.68569000  1
  C  C480  1  0.78268000  0.05050000  0.61241000  1
  C  C481  1  0.78300000  0.93650000  0.16445000  1
  C  C482  1  0.78382000  0.18780000  0.70219000  1
  C  C483  1  0.78396000  0.23680000  0.67697000  1
  C  C484  1  0.79000000  0.53900000  0.11512000  1
  C  C485  1  0.79230000  0.31677000  0.84480000  1
  C  C486  1  0.79320000  0.76110000  0.37081000  1
  C  C487  1  0.79574000  0.30150000  0.60355000  1
  C  C488  1  0.79880000  0.10150000  0.59092000  1
  C  C489  1  0.80000000  0.90330000  0.10022000  1
  C  C490  1  0.80150000  0.70426000  0.35355000  1
  C  C491  1  0.80158000  0.34240000  0.57348000  1
  C  C492  1  0.80619000  0.86640000  0.67207000  1
  C  C493  1  0.80930000  0.47780000  0.17067000  1
  C  C494  1  0.81040000  0.48880000  0.62009000  1
  C  C495  1  0.81203000  0.82560000  0.64200000  1
  C  C496  1  0.81220000  0.21618000  0.79781000  1
  C  C497  1  0.81280000  0.03863000  0.64636000  1
  C  C498  1  0.81677000  0.70770000  0.59480000  1
  C  C499  1  0.81692000  0.65860000  0.56958000  1
  C  C500  1  0.82470000  0.91310000  0.83340000  1
  C  C501  1  0.82560000  0.81203000  0.35800000  1
  C  C502  1  0.82710000  0.08060000  0.84530000  1
  C  C503  1  0.82730000  0.45310000  0.69500000  1
  C  C504  1  0.82870000  0.89670000  0.17685000  1
  C  C505  1  0.83440000  0.58090000  0.12682000  1
  C  C506  1  0.84140000  0.31692000  0.81958000  1
  C  C507  1  0.84240000  0.69842000  0.32348000  1
  C  C508  1  0.84500000  0.14076000  0.60338000  1
  C  C509  1  0.84570000  0.86360000  0.11262000  1
  C  C510  1  0.85130000  0.26660000  0.79609000  1
  C  C511  1  0.85370000  0.51960000  0.18236000  1
  C  C512  1  0.85710000  0.44790000  0.62940000  1
  C  C513  1  0.85900000  0.07790000  0.65882000  1
  C  C514  1  0.85924000  0.15500000  0.89662000  1
  C  C515  1  0.86010000  0.86020000  0.15093000  1
  C  C516  1  0.86020000  0.86010000  0.84907000  1
  C  C517  1  0.86360000  0.84570000  0.88738000  1
  C  C518  1  0.86550000  0.43010000  0.66685000  1
  C  C519  1  0.86620000  0.57120000  0.16044000  1
  C  C520  1  0.86640000  0.80619000  0.32793000  1
  C  C521  1  0.87110000  0.12490000  0.86267000  1
  C  C522  1  0.87480000  0.74940000  0.31067000  1
  C  C523  1  0.87510000  0.12890000  0.63733000  1
  C  C524  1  0.88550000  0.58520000  0.42680000  1
  C  C525  1  0.88600000  0.41420000  0.42310000  1
  C  C526  1  0.89670000  0.82870000  0.82315000  1
  C  C527  1  0.89850000  0.20120000  0.90908000  1
  C  C528  1  0.90330000  0.80000000  0.89978000  1
  C  C529  1  0.90640000  0.26400000  0.77370000  1
  C  C530  1  0.91310000  0.82470000  0.16660000  1
  C  C531  1  0.91420000  0.61400000  0.17310000  1
  C  C532  1  0.91480000  0.38550000  0.67680000  1
  C  C533  1  0.91910000  0.33440000  0.37682000  1
  C  C534  1  0.91930000  0.73880000  0.27890000  1
  C  C535  1  0.91940000  0.17290000  0.65470000  1
  C  C536  1  0.92210000  0.14100000  0.84118000  1
  C  C537  1  0.92880000  0.36620000  0.41044000  1
  C  C538  1  0.93010000  0.63450000  0.41685000  1
  C  C539  1  0.93650000  0.78300000  0.83555000  1
  C  C540  1  0.93980000  0.76860000  0.87386000  1
  C  C541  1  0.94790000  0.64290000  0.37940000  1
  C  C542  1  0.94950000  0.21732000  0.88759000  1
  C  C543  1  0.95310000  0.67270000  0.44500000  1
  C  C544  1  0.96100000  0.29000000  0.36512000  1
  C  C545  1  0.96137000  0.18720000  0.85364000  1
  C  C546  1  0.97780000  0.69070000  0.92067000  1
  C  C547  1  0.98040000  0.35370000  0.43236000  1
  C  C548  1  0.98750000  0.72260000  0.88705000  1
  C  C549  1  0.98820000  0.27212000  0.89824000  1
  C  C550  1  0.98880000  0.68960000  0.37009000  1
  C  C551  1  0.99400000  0.71940000  0.43569000  1
  O  O552  1  0.00250000  0.72650000  0.20320000  1
  O  O553  1  0.04650000  0.21320000  0.77152000  1
  O  O554  1  0.05210000  0.84400000  0.18428000  1
  O  O555  1  0.05670000  0.69150000  0.27505000  1
  O  O556  1  0.05920000  0.64500000  0.15061000  1
  O  O557  1  0.05970000  0.39300000  0.70346000  1
  O  O558  1  0.06190000  0.21270000  0.64232000  1
  O  O559  1  0.06950000  0.77490000  0.13805000  1
  O  O560  1  0.06970000  0.61690000  0.21255000  1
  O  O561  1  0.07240000  0.34230000  0.65092000  1
  O  O562  1  0.07280000  0.16960000  0.70085000  1
  O  O563  1  0.07530000  0.31230000  0.76445000  1
  O  O564  1  0.08390000  0.78560000  0.25371000  1
  O  O565  1  0.10700000  0.55970000  0.95346000  1
  O  O566  1  0.11690000  0.43030000  0.96255000  1
  O  O567  1  0.14500000  0.44080000  0.90061000  1
  O  O568  1  0.15600000  0.94790000  0.31572000  1
  O  O569  1  0.15770000  0.57240000  0.90092000  1
  O  O570  1  0.16960000  0.07280000  0.29915000  1
  O  O571  1  0.18770000  0.57530000  0.01445000  1
  O  O572  1  0.19150000  0.44330000  0.02505000  1
  O  O573  1  0.21270000  0.06190000  0.35768000  1
  O  O574  1  0.21320000  0.04650000  0.22848000  1
  O  O575  1  0.21440000  0.91610000  0.24629000  1
  O  O576  1  0.22510000  0.93050000  0.36195000  1
  O  O577  1  0.22650000  0.49750000  0.95320000  1
  O  O578  1  0.27350000  0.99750000  0.29680000  1
  O  O579  1  0.27490000  0.43050000  0.88805000  1
  O  O580  1  0.28560000  0.41610000  0.00371000  1
  O  O581  1  0.28680000  0.54650000  0.02152000  1
  O  O582  1  0.28730000  0.56190000  0.89232000  1
  O  O583  1  0.30850000  0.94330000  0.22495000  1
  O  O584  1  0.31230000  0.07530000  0.23555000  1
  O  O585  1  0.33040000  0.57280000  0.95085000  1
  O  O586  1  0.34230000  0.07240000  0.34908000  1
  O  O587  1  0.34400000  0.44790000  0.93428000  1
  O  O588  1  0.35500000  0.94080000  0.34939000  1
  O  O589  1  0.38310000  0.93030000  0.28745000  1
  O  O590  1  0.39300000  0.05970000  0.29654000  1
  O  O591  1  0.41610000  0.28560000  0.99629000  1
  O  O592  1  0.42470000  0.81230000  0.48555000  1
  O  O593  1  0.42720000  0.66960000  0.54915000  1
  O  O594  1  0.42760000  0.84230000  0.59908000  1
  O  O595  1  0.43030000  0.11690000  0.03745000  1
  O  O596  1  0.43050000  0.27490000  0.11195000  1
  O  O597  1  0.43810000  0.71270000  0.60768000  1
  O  O598  1  0.44030000  0.89300000  0.54654000  1
  O  O599  1  0.44080000  0.14500000  0.09939000  1
  O  O600  1  0.44330000  0.19150000  0.97495000  1
  O  O601  1  0.44790000  0.34400000  0.06572000  1
  O  O602  1  0.45350000  0.71320000  0.47848000  1
  O  O603  1  0.49750000  0.22650000  0.04680000  1
  O  O604  1  0.50250000  0.77350000  0.54680000  1
  O  O605  1  0.54650000  0.28680000  0.97848000  1
  O  O606  1  0.55210000  0.65600000  0.56572000  1
  O  O607  1  0.55670000  0.80850000  0.47495000  1
  O  O608  1  0.55920000  0.85500000  0.59939000  1
  O  O609  1  0.55970000  0.10700000  0.04654000  1
  O  O610  1  0.56190000  0.28730000  0.10768000  1
  O  O611  1  0.56950000  0.72510000  0.61195000  1
  O  O612  1  0.56970000  0.88310000  0.53745000  1
  O  O613  1  0.57240000  0.15770000  0.09908000  1
  O  O614  1  0.57280000  0.33040000  0.04915000  1
  O  O615  1  0.57530000  0.18770000  0.98555000  1
  O  O616  1  0.58390000  0.71440000  0.49629000  1
  O  O617  1  0.60700000  0.94030000  0.79654000  1
  O  O618  1  0.61690000  0.06970000  0.78745000  1
  O  O619  1  0.64500000  0.05920000  0.84939000  1
  O  O620  1  0.65600000  0.55210000  0.43428000  1
  O  O621  1  0.65770000  0.92760000  0.84908000  1
  O  O622  1  0.66960000  0.42720000  0.45085000  1
  O  O623  1  0.68770000  0.92470000  0.73555000  1
  O  O624  1  0.69150000  0.05670000  0.72495000  1
  O  O625  1  0.71270000  0.43810000  0.39232000  1
  O  O626  1  0.71320000  0.45350000  0.52152000  1
  O  O627  1  0.71440000  0.58390000  0.50371000  1
  O  O628  1  0.72510000  0.56950000  0.38805000  1
  O  O629  1  0.72650000  0.00250000  0.79680000  1
  O  O630  1  0.77350000  0.50250000  0.45320000  1
  O  O631  1  0.77490000  0.06950000  0.86195000  1
  O  O632  1  0.78560000  0.08390000  0.74629000  1
  O  O633  1  0.78680000  0.95350000  0.72848000  1
  O  O634  1  0.78730000  0.93810000  0.85768000  1
  O  O635  1  0.80850000  0.55670000  0.52505000  1
  O  O636  1  0.81230000  0.42470000  0.51445000  1
  O  O637  1  0.83040000  0.92720000  0.79915000  1
  O  O638  1  0.84230000  0.42760000  0.40092000  1
  O  O639  1  0.84400000  0.05210000  0.81572000  1
  O  O640  1  0.85500000  0.55920000  0.40061000  1
  O  O641  1  0.88310000  0.56970000  0.46255000  1
  O  O642  1  0.89300000  0.44030000  0.45346000  1
  O  O643  1  0.91610000  0.21440000  0.75371000  1
  O  O644  1  0.92470000  0.68770000  0.26445000  1
  O  O645  1  0.92720000  0.83040000  0.20085000  1
  O  O646  1  0.92760000  0.65770000  0.15092000  1
  O  O647  1  0.93030000  0.38310000  0.71255000  1
  O  O648  1  0.93050000  0.22510000  0.63805000  1
  O  O649  1  0.93810000  0.78730000  0.14232000  1
  O  O650  1  0.94030000  0.60700000  0.20346000  1
  O  O651  1  0.94080000  0.35500000  0.65061000  1
  O  O652  1  0.94330000  0.30850000  0.77505000  1
  O  O653  1  0.94790000  0.15600000  0.68428000  1
  O  O654  1  0.95350000  0.78680000  0.27152000  1
  O  O655  1  0.99750000  0.27350000  0.70320000  1
