# generated using pymatgen
data_Zn2Mo6H8C12NO14
_symmetry_space_group_name_H-M   'P 1'
_cell_length_a   29.44360000
_cell_length_b   29.44360000
_cell_length_c   34.31031190
_cell_angle_alpha   115.40906191
_cell_angle_beta   115.40906191
_cell_angle_gamma   90.00000000
_symmetry_Int_Tables_number   1
_chemical_formula_structural   Zn2Mo6H8C12NO14
_chemical_formula_sum   'Zn32 Mo96 H128 C192 N16 O224'
_cell_volume   23642.36098115
_cell_formula_units_Z   16
loop_
 _symmetry_equiv_pos_site_id
 _symmetry_equiv_pos_as_xyz
  1  'x, y, z'
loop_
 _atom_site_type_symbol
 _atom_site_label
 _atom_site_symmetry_multiplicity
 _atom_site_fract_x
 _atom_site_fract_y
 _atom_site_fract_z
 _atom_site_occupancy
  C  C0  1  0.20840000  0.32720000  0.40340000  1
  C  C1  1  0.70840000  0.07620000  0.40340000  1
  C  C2  1  0.80500000  0.42380000  0.59660000  1
  C  C3  1  0.30500000  0.17280000  0.59660000  1
  C  C4  1  0.74930000  0.84500000  0.44380000  1
  C  C5  1  0.24930000  0.59880000  0.44380000  1
  C  C6  1  0.30550000  0.90120000  0.55620000  1
  C  C7  1  0.80550000  0.65500000  0.55620000  1
  C  C8  1  0.77190000  0.89590000  0.47480000  1
  C  C9  1  0.27190000  0.57890000  0.47480000  1
  C  C10  1  0.29710000  0.92110000  0.52520000  1
  C  C11  1  0.79710000  0.60410000  0.52520000  1
  C  C12  1  0.77370000  0.81100000  0.45560000  1
  C  C13  1  0.27370000  0.64460000  0.45560000  1
  C  C14  1  0.31810000  0.85540000  0.54440000  1
  C  C15  1  0.81810000  0.68900000  0.54440000  1
  C  C16  1  0.82190000  0.91140000  0.51720000  1
  C  C17  1  0.32190000  0.60580000  0.51720000  1
  C  C18  1  0.30470000  0.89420000  0.48280000  1
  C  C19  1  0.80470000  0.58860000  0.48280000  1
  C  C20  1  0.82670000  0.82760000  0.49460000  1
  C  C21  1  0.32670000  0.66700000  0.49460000  1
  C  C22  1  0.33210000  0.83300000  0.50540000  1
  C  C23  1  0.83210000  0.67240000  0.50540000  1
  C  C24  1  0.84870000  0.87910000  0.52580000  1
  C  C25  1  0.34870000  0.64670000  0.52580000  1
  C  C26  1  0.32290000  0.85330000  0.47420000  1
  C  C27  1  0.82290000  0.62090000  0.47420000  1
  C  C28  1  0.60410000  0.72810000  0.02520000  1
  C  C29  1  0.10410000  0.29710000  0.02520000  1
  C  C30  1  0.57890000  0.20290000  0.97480000  1
  C  C31  1  0.07890000  0.77190000  0.97480000  1
  C  C32  1  0.58860000  0.67810000  0.98280000  1
  C  C33  1  0.08860000  0.30470000  0.98280000  1
  C  C34  1  0.60580000  0.19530000  0.01720000  1
  C  C35  1  0.10580000  0.82190000  0.01720000  1
  C  C36  1  0.56350000  0.58130000  0.89500000  1
  C  C37  1  0.06350000  0.31370000  0.89500000  1
  C  C38  1  0.66850000  0.18630000  0.10500000  1
  C  C39  1  0.16850000  0.91870000  0.10500000  1
  C  C40  1  0.91870000  0.93650000  0.60500000  1
  C  C41  1  0.41870000  0.66850000  0.60500000  1
  C  C42  1  0.31370000  0.83150000  0.39500000  1
  C  C43  1  0.81370000  0.56350000  0.39500000  1
  C  C44  1  0.90080000  0.89440000  0.56560000  1
  C  C45  1  0.40080000  0.67120000  0.56560000  1
  C  C46  1  0.33520000  0.82880000  0.43440000  1
  C  C47  1  0.83520000  0.60560000  0.43440000  1
  C  C48  1  0.54720000  0.52690000  0.85680000  1
  C  C49  1  0.04720000  0.32990000  0.85680000  1
  C  C50  1  0.69040000  0.17010000  0.14320000  1
  C  C51  1  0.19040000  0.97310000  0.14320000  1
  C  C52  1  0.17280000  0.29160000  0.09660000  1
  C  C53  1  0.67280000  0.80500000  0.09660000  1
  C  C54  1  0.07620000  0.69500000  0.90340000  1
  C  C55  1  0.57620000  0.20840000  0.90340000  1
  C  C56  1  0.65500000  0.75070000  0.05620000  1
  C  C57  1  0.15500000  0.30550000  0.05620000  1
  C  C58  1  0.59880000  0.19450000  0.94380000  1
  C  C59  1  0.09880000  0.74930000  0.94380000  1
  C  C60  1  0.62090000  0.65130000  0.97420000  1
  C  C61  1  0.12090000  0.32290000  0.97420000  1
  C  C62  1  0.64670000  0.17710000  0.02580000  1
  C  C63  1  0.14670000  0.84870000  0.02580000  1
  C  C64  1  0.60560000  0.59920000  0.93440000  1
  C  C65  1  0.10560000  0.33520000  0.93440000  1
  C  C66  1  0.67120000  0.16480000  0.06560000  1
  C  C67  1  0.17120000  0.90080000  0.06560000  1
  C  C68  1  0.93280000  0.86150000  0.56680000  1
  C  C69  1  0.43280000  0.70530000  0.56680000  1
  C  C70  1  0.36600000  0.79470000  0.43320000  1
  C  C71  1  0.86600000  0.63850000  0.43320000  1
  C  C72  1  0.97310000  0.95280000  0.64320000  1
  C  C73  1  0.47310000  0.69040000  0.64320000  1
  C  C74  1  0.32990000  0.80960000  0.35680000  1
  C  C75  1  0.82990000  0.54720000  0.35680000  1
  C  C76  1  0.68900000  0.72630000  0.04440000  1
  C  C77  1  0.18900000  0.31810000  0.04440000  1
  C  C78  1  0.64460000  0.18190000  0.95560000  1
  C  C79  1  0.14460000  0.77370000  0.95560000  1
  C  C80  1  0.67240000  0.67330000  0.00540000  1
  C  C81  1  0.17240000  0.33210000  0.00540000  1
  C  C82  1  0.66700000  0.16790000  0.99460000  1
  C  C83  1  0.16700000  0.82670000  0.99460000  1
  C  C84  1  0.63850000  0.56720000  0.93320000  1
  C  C85  1  0.13850000  0.36600000  0.93320000  1
  C  C86  1  0.70530000  0.13400000  0.06680000  1
  C  C87  1  0.20530000  0.93280000  0.06680000  1
  C  C88  1  0.62220000  0.51360000  0.89380000  1
  C  C89  1  0.12220000  0.38020000  0.89380000  1
  C  C90  1  0.72840000  0.11980000  0.10620000  1
  C  C91  1  0.22840000  0.98640000  0.10620000  1
  C  C92  1  0.98640000  0.87780000  0.60620000  1
  C  C93  1  0.48640000  0.72840000  0.60620000  1
  C  C94  1  0.38020000  0.77160000  0.39380000  1
  C  C95  1  0.88020000  0.62220000  0.39380000  1
  C  C96  1  0.51360000  0.27160000  0.39380000  1
  C  C97  1  0.01360000  0.12220000  0.39380000  1
  C  C98  1  0.11980000  0.37780000  0.60620000  1
  C  C99  1  0.61980000  0.22840000  0.60620000  1
  C  C100  1  0.87780000  0.61980000  0.10620000  1
  C  C101  1  0.37780000  0.48640000  0.10620000  1
  C  C102  1  0.77160000  0.01360000  0.89380000  1
  C  C103  1  0.27160000  0.88020000  0.89380000  1
  C  C104  1  0.86150000  0.63400000  0.06680000  1
  C  C105  1  0.36150000  0.43280000  0.06680000  1
  C  C106  1  0.79470000  0.06720000  0.93320000  1
  C  C107  1  0.29470000  0.86600000  0.93320000  1
  C  C108  1  0.82760000  0.66790000  0.99460000  1
  C  C109  1  0.32760000  0.32670000  0.99460000  1
  C  C110  1  0.83300000  0.17330000  0.00540000  1
  C  C111  1  0.33300000  0.83210000  0.00540000  1
  C  C112  1  0.81100000  0.68190000  0.95560000  1
  C  C113  1  0.31100000  0.27370000  0.95560000  1
  C  C114  1  0.85540000  0.22630000  0.04440000  1
  C  C115  1  0.35540000  0.81810000  0.04440000  1
  C  C116  1  0.52690000  0.30960000  0.35680000  1
  C  C117  1  0.02690000  0.04720000  0.35680000  1
  C  C118  1  0.17010000  0.45280000  0.64320000  1
  C  C119  1  0.67010000  0.19040000  0.64320000  1
  C  C120  1  0.56720000  0.29470000  0.43320000  1
  C  C121  1  0.06720000  0.13850000  0.43320000  1
  C  C122  1  0.13400000  0.36150000  0.56680000  1
  C  C123  1  0.63400000  0.20530000  0.56680000  1
  C  C124  1  0.89440000  0.66480000  0.06560000  1
  C  C125  1  0.39440000  0.40080000  0.06560000  1
  C  C126  1  0.82880000  0.09920000  0.93440000  1
  C  C127  1  0.32880000  0.83520000  0.93440000  1
  C  C128  1  0.87910000  0.67710000  0.02580000  1
  C  C129  1  0.37910000  0.34870000  0.02580000  1
  C  C130  1  0.85330000  0.15130000  0.97420000  1
  C  C131  1  0.35330000  0.82290000  0.97420000  1
  C  C132  1  0.84500000  0.69450000  0.94380000  1
  C  C133  1  0.34500000  0.24930000  0.94380000  1
  C  C134  1  0.90120000  0.25070000  0.05620000  1
  C  C135  1  0.40120000  0.80550000  0.05620000  1
  C  C136  1  0.32720000  0.19500000  0.90340000  1
  C  C137  1  0.82720000  0.70840000  0.90340000  1
  C  C138  1  0.42380000  0.79160000  0.09660000  1
  C  C139  1  0.92380000  0.30500000  0.09660000  1
  C  C140  1  0.95280000  0.67010000  0.14320000  1
  C  C141  1  0.45280000  0.47310000  0.14320000  1
  C  C142  1  0.80960000  0.02690000  0.85680000  1
  C  C143  1  0.30960000  0.82990000  0.85680000  1
  C  C144  1  0.59920000  0.32880000  0.43440000  1
  C  C145  1  0.09920000  0.10560000  0.43440000  1
  C  C146  1  0.16480000  0.39440000  0.56560000  1
  C  C147  1  0.66480000  0.17120000  0.56560000  1
  C  C148  1  0.58130000  0.33150000  0.39500000  1
  C  C149  1  0.08130000  0.06350000  0.39500000  1
  C  C150  1  0.18630000  0.43650000  0.60500000  1
  C  C151  1  0.68630000  0.16850000  0.60500000  1
  C  C152  1  0.93650000  0.68630000  0.10500000  1
  C  C153  1  0.43650000  0.41870000  0.10500000  1
  C  C154  1  0.83150000  0.08130000  0.89500000  1
  C  C155  1  0.33150000  0.81370000  0.89500000  1
  C  C156  1  0.91140000  0.69530000  0.01720000  1
  C  C157  1  0.41140000  0.32190000  0.01720000  1
  C  C158  1  0.89420000  0.17810000  0.98280000  1
  C  C159  1  0.39420000  0.80470000  0.98280000  1
  C  C160  1  0.89590000  0.70290000  0.97480000  1
  C  C161  1  0.39590000  0.27190000  0.97480000  1
  C  C162  1  0.92110000  0.22810000  0.02520000  1
  C  C163  1  0.42110000  0.79710000  0.02520000  1
  C  C164  1  0.65130000  0.35330000  0.47420000  1
  C  C165  1  0.15130000  0.12090000  0.47420000  1
  C  C166  1  0.17710000  0.37910000  0.52580000  1
  C  C167  1  0.67710000  0.14670000  0.52580000  1
  C  C168  1  0.67330000  0.33300000  0.50540000  1
  C  C169  1  0.17330000  0.17240000  0.50540000  1
  C  C170  1  0.16790000  0.32760000  0.49460000  1
  C  C171  1  0.66790000  0.16700000  0.49460000  1
  C  C172  1  0.67810000  0.39420000  0.48280000  1
  C  C173  1  0.17810000  0.08860000  0.48280000  1
  C  C174  1  0.19530000  0.41140000  0.51720000  1
  C  C175  1  0.69530000  0.10580000  0.51720000  1
  C  C176  1  0.72630000  0.35540000  0.54440000  1
  C  C177  1  0.22630000  0.18900000  0.54440000  1
  C  C178  1  0.18190000  0.31100000  0.45560000  1
  C  C179  1  0.68190000  0.14460000  0.45560000  1
  C  C180  1  0.72810000  0.42110000  0.52520000  1
  C  C181  1  0.22810000  0.10410000  0.52520000  1
  C  C182  1  0.20290000  0.39590000  0.47480000  1
  C  C183  1  0.70290000  0.07890000  0.47480000  1
  C  C184  1  0.75070000  0.40120000  0.55620000  1
  C  C185  1  0.25070000  0.15500000  0.55620000  1
  C  C186  1  0.19450000  0.34500000  0.44380000  1
  C  C187  1  0.69450000  0.09880000  0.44380000  1
  C  C188  1  0.29160000  0.92380000  0.59660000  1
  C  C189  1  0.79160000  0.67280000  0.59660000  1
  C  C190  1  0.69500000  0.82720000  0.40340000  1
  C  C191  1  0.19500000  0.57620000  0.40340000  1
  H  H192  1  0.75510000  0.92070000  0.46860000  1
  H  H193  1  0.25510000  0.54790000  0.46860000  1
  H  H194  1  0.28650000  0.95210000  0.53140000  1
  H  H195  1  0.78650000  0.57930000  0.53140000  1
  H  H196  1  0.75660000  0.77650000  0.43880000  1
  H  H197  1  0.25660000  0.66230000  0.43880000  1
  H  H198  1  0.31780000  0.83770000  0.56120000  1
  H  H199  1  0.81780000  0.72350000  0.56120000  1
  H  H200  1  0.57930000  0.74490000  0.03140000  1
  H  H201  1  0.07930000  0.28650000  0.03140000  1
  H  H202  1  0.54790000  0.21350000  0.96860000  1
  H  H203  1  0.04790000  0.75510000  0.96860000  1
  H  H204  1  0.83550000  0.94650000  0.53940000  1
  H  H205  1  0.33550000  0.59290000  0.53940000  1
  H  H206  1  0.29610000  0.90710000  0.46060000  1
  H  H207  1  0.79610000  0.55350000  0.46060000  1
  H  H208  1  0.55350000  0.66450000  0.96060000  1
  H  H209  1  0.05350000  0.29610000  0.96060000  1
  H  H210  1  0.59290000  0.20390000  0.03940000  1
  H  H211  1  0.09290000  0.83550000  0.03940000  1
  H  H212  1  0.89660000  0.95820000  0.61000000  1
  H  H213  1  0.39660000  0.65180000  0.61000000  1
  H  H214  1  0.28660000  0.84820000  0.39000000  1
  H  H215  1  0.78660000  0.54180000  0.39000000  1
  H  H216  1  0.84570000  0.80310000  0.49820000  1
  H  H217  1  0.34570000  0.69510000  0.49820000  1
  H  H218  1  0.34750000  0.80490000  0.50180000  1
  H  H219  1  0.84750000  0.69690000  0.50180000  1
  H  H220  1  0.54180000  0.60340000  0.89000000  1
  H  H221  1  0.04180000  0.28660000  0.89000000  1
  H  H222  1  0.65180000  0.21340000  0.11000000  1
  H  H223  1  0.15180000  0.89660000  0.11000000  1
  H  H224  1  0.51450000  0.51540000  0.82980000  1
  H  H225  1  0.01450000  0.31440000  0.82980000  1
  H  H226  1  0.68470000  0.18560000  0.17020000  1
  H  H227  1  0.18470000  0.98460000  0.17020000  1
  H  H228  1  0.92040000  0.82740000  0.54180000  1
  H  H229  1  0.98460000  0.98550000  0.67020000  1
  H  H230  1  0.48460000  0.68470000  0.67020000  1
  H  H231  1  0.42040000  0.71440000  0.54180000  1
  H  H232  1  0.37860000  0.78560000  0.45820000  1
  H  H233  1  0.31440000  0.81530000  0.32980000  1
  H  H234  1  0.81440000  0.51450000  0.32980000  1
  H  H235  1  0.87860000  0.67260000  0.45820000  1
  H  H236  1  0.72350000  0.74340000  0.06120000  1
  H  H237  1  0.22350000  0.31780000  0.06120000  1
  H  H238  1  0.66230000  0.18220000  0.93880000  1
  H  H239  1  0.16230000  0.75660000  0.93880000  1
  H  H240  1  0.67260000  0.57960000  0.95820000  1
  H  H241  1  0.17260000  0.37860000  0.95820000  1
  H  H242  1  0.71440000  0.12140000  0.04180000  1
  H  H243  1  0.21440000  0.92040000  0.04180000  1
  H  H244  1  0.69690000  0.65430000  0.00180000  1
  H  H245  1  0.19690000  0.34750000  0.00180000  1
  H  H246  1  0.69510000  0.15250000  0.99820000  1
  H  H247  1  0.19510000  0.84570000  0.99820000  1
  H  H248  1  0.64540000  0.49210000  0.89380000  1
  H  H249  1  0.14540000  0.40170000  0.89380000  1
  H  H250  1  0.75160000  0.09830000  0.10620000  1
  H  H251  1  0.25160000  0.00790000  0.10620000  1
  H  H252  1  0.00790000  0.85460000  0.60620000  1
  H  H253  1  0.50790000  0.75160000  0.60620000  1
  H  H254  1  0.40170000  0.74840000  0.39380000  1
  H  H255  1  0.90170000  0.64540000  0.39380000  1
  H  H256  1  0.49210000  0.24840000  0.39380000  1
  H  H257  1  0.99210000  0.14540000  0.39380000  1
  H  H258  1  0.09830000  0.35460000  0.60620000  1
  H  H259  1  0.59830000  0.25160000  0.60620000  1
  H  H260  1  0.85460000  0.59830000  0.10620000  1
  H  H261  1  0.35460000  0.50790000  0.10620000  1
  H  H262  1  0.74840000  0.99210000  0.89380000  1
  H  H263  1  0.24840000  0.90170000  0.89380000  1
  H  H264  1  0.80310000  0.65250000  0.99820000  1
  H  H265  1  0.30310000  0.34570000  0.99820000  1
  H  H266  1  0.80490000  0.15430000  0.00180000  1
  H  H267  1  0.30490000  0.84750000  0.00180000  1
  H  H268  1  0.82740000  0.62140000  0.04180000  1
  H  H269  1  0.32740000  0.42040000  0.04180000  1
  H  H270  1  0.78560000  0.07960000  0.95820000  1
  H  H271  1  0.28560000  0.87860000  0.95820000  1
  H  H272  1  0.77650000  0.68220000  0.93880000  1
  H  H273  1  0.27650000  0.25660000  0.93880000  1
  H  H274  1  0.83770000  0.24340000  0.06120000  1
  H  H275  1  0.33770000  0.81780000  0.06120000  1
  H  H276  1  0.57960000  0.28560000  0.45820000  1
  H  H277  1  0.51540000  0.31530000  0.32980000  1
  H  H278  1  0.01540000  0.01450000  0.32980000  1
  H  H279  1  0.07960000  0.17260000  0.45820000  1
  H  H280  1  0.12140000  0.32740000  0.54180000  1
  H  H281  1  0.18560000  0.48550000  0.67020000  1
  H  H282  1  0.68560000  0.18470000  0.67020000  1
  H  H283  1  0.62140000  0.21440000  0.54180000  1
  H  H284  1  0.98550000  0.68560000  0.17020000  1
  H  H285  1  0.48550000  0.48460000  0.17020000  1
  H  H286  1  0.81530000  0.01540000  0.82980000  1
  H  H287  1  0.31530000  0.81440000  0.82980000  1
  H  H288  1  0.95820000  0.71340000  0.11000000  1
  H  H289  1  0.45820000  0.39660000  0.11000000  1
  H  H290  1  0.84820000  0.10340000  0.89000000  1
  H  H291  1  0.34820000  0.78660000  0.89000000  1
  H  H292  1  0.65430000  0.30490000  0.50180000  1
  H  H293  1  0.15430000  0.19690000  0.50180000  1
  H  H294  1  0.15250000  0.30310000  0.49820000  1
  H  H295  1  0.65250000  0.19510000  0.49820000  1
  H  H296  1  0.60340000  0.34820000  0.39000000  1
  H  H297  1  0.10340000  0.04180000  0.39000000  1
  H  H298  1  0.21340000  0.45820000  0.61000000  1
  H  H299  1  0.71340000  0.15180000  0.61000000  1
  H  H300  1  0.94650000  0.70390000  0.03940000  1
  H  H301  1  0.44650000  0.33550000  0.03940000  1
  H  H302  1  0.90710000  0.16450000  0.96060000  1
  H  H303  1  0.40710000  0.79610000  0.96060000  1
  H  H304  1  0.66450000  0.40710000  0.46060000  1
  H  H305  1  0.16450000  0.05350000  0.46060000  1
  H  H306  1  0.20390000  0.44650000  0.53940000  1
  H  H307  1  0.70390000  0.09290000  0.53940000  1
  H  H308  1  0.92070000  0.71350000  0.96860000  1
  H  H309  1  0.42070000  0.25510000  0.96860000  1
  H  H310  1  0.95210000  0.24490000  0.03140000  1
  H  H311  1  0.45210000  0.78650000  0.03140000  1
  H  H312  1  0.74340000  0.33770000  0.56120000  1
  H  H313  1  0.24340000  0.22350000  0.56120000  1
  H  H314  1  0.18220000  0.27650000  0.43880000  1
  H  H315  1  0.68220000  0.16230000  0.43880000  1
  H  H316  1  0.74490000  0.45210000  0.53140000  1
  H  H317  1  0.24490000  0.07930000  0.53140000  1
  H  H318  1  0.21350000  0.42070000  0.46860000  1
  H  H319  1  0.71350000  0.04790000  0.46860000  1
  Mo  Mo320  1  0.15614000  0.14314000  0.21920000  1
  Mo  Mo321  1  0.65614000  0.07606000  0.21920000  1
  Mo  Mo322  1  0.93694000  0.42394000  0.78080000  1
  Mo  Mo323  1  0.43694000  0.35686000  0.78080000  1
  Mo  Mo324  1  0.16153000  0.25916000  0.21854000  1
  Mo  Mo325  1  0.66153000  0.95938000  0.21854000  1
  Mo  Mo326  1  0.94299000  0.54062000  0.78146000  1
  Mo  Mo327  1  0.44299000  0.24084000  0.78146000  1
  Mo  Mo328  1  0.24084000  0.33847000  0.28146000  1
  Mo  Mo329  1  0.74084000  0.94299000  0.28146000  1
  Mo  Mo330  1  0.95938000  0.55701000  0.71854000  1
  Mo  Mo331  1  0.45938000  0.16153000  0.71854000  1
  Mo  Mo332  1  0.45432000  0.36432000  0.69748000  1
  Mo  Mo333  1  0.95432000  0.33316000  0.69748000  1
  Mo  Mo334  1  0.75684000  0.16684000  0.30252000  1
  Mo  Mo335  1  0.25684000  0.13568000  0.30252000  1
  Mo  Mo336  1  0.16978000  0.14744000  0.12584000  1
  Mo  Mo337  1  0.66978000  0.97840000  0.12584000  1
  Mo  Mo338  1  0.04394000  0.52160000  0.87416000  1
  Mo  Mo339  1  0.54394000  0.35256000  0.87416000  1
  Mo  Mo340  1  0.35256000  0.33022000  0.37416000  1
  Mo  Mo341  1  0.85256000  0.04394000  0.37416000  1
  Mo  Mo342  1  0.97840000  0.45606000  0.62584000  1
  Mo  Mo343  1  0.47840000  0.16978000  0.62584000  1
  Mo  Mo344  1  0.35683000  0.24333000  0.37938000  1
  Mo  Mo345  1  0.85683000  0.13605000  0.37938000  1
  Mo  Mo346  1  0.97745000  0.36395000  0.62062000  1
  Mo  Mo347  1  0.47745000  0.25667000  0.62062000  1
  Mo  Mo348  1  0.25667000  0.14317000  0.12062000  1
  Mo  Mo349  1  0.75667000  0.97745000  0.12062000  1
  Mo  Mo350  1  0.13605000  0.52255000  0.87938000  1
  Mo  Mo351  1  0.63605000  0.35683000  0.87938000  1
  Mo  Mo352  1  0.35686000  0.34386000  0.28080000  1
  Mo  Mo353  1  0.85686000  0.93694000  0.28080000  1
  Mo  Mo354  1  0.07606000  0.56306000  0.71920000  1
  Mo  Mo355  1  0.57606000  0.15614000  0.71920000  1
  Mo  Mo356  1  0.57787000  0.36763000  0.71208000  1
  Mo  Mo357  1  0.07787000  0.34445000  0.71208000  1
  Mo  Mo358  1  0.86579000  0.15555000  0.28792000  1
  Mo  Mo359  1  0.36579000  0.13237000  0.28792000  1
  Mo  Mo360  1  0.13568000  0.04568000  0.80252000  1
  Mo  Mo361  1  0.63568000  0.75684000  0.80252000  1
  Mo  Mo362  1  0.33316000  0.74316000  0.19748000  1
  Mo  Mo363  1  0.83316000  0.45432000  0.19748000  1
  Mo  Mo364  1  0.13237000  0.92213000  0.78792000  1
  Mo  Mo365  1  0.63237000  0.86579000  0.78792000  1
  Mo  Mo366  1  0.34445000  0.63421000  0.21208000  1
  Mo  Mo367  1  0.84445000  0.57787000  0.21208000  1
  Mo  Mo368  1  0.36763000  0.13421000  0.21208000  1
  Mo  Mo369  1  0.86763000  0.07787000  0.21208000  1
  Mo  Mo370  1  0.15555000  0.42213000  0.78792000  1
  Mo  Mo371  1  0.65555000  0.36579000  0.78792000  1
  Mo  Mo372  1  0.36432000  0.24316000  0.19748000  1
  Mo  Mo373  1  0.86432000  0.95432000  0.19748000  1
  Mo  Mo374  1  0.16684000  0.54568000  0.80252000  1
  Mo  Mo375  1  0.66684000  0.25684000  0.80252000  1
  Mo  Mo376  1  0.92213000  0.65555000  0.28792000  1
  Mo  Mo377  1  0.42213000  0.63237000  0.28792000  1
  Mo  Mo378  1  0.63421000  0.86763000  0.71208000  1
  Mo  Mo379  1  0.13421000  0.84445000  0.71208000  1
  Mo  Mo380  1  0.14314000  0.06306000  0.71920000  1
  Mo  Mo381  1  0.64314000  0.65614000  0.71920000  1
  Mo  Mo382  1  0.42394000  0.84386000  0.28080000  1
  Mo  Mo383  1  0.92394000  0.43694000  0.28080000  1
  Mo  Mo384  1  0.24333000  0.02255000  0.87938000  1
  Mo  Mo385  1  0.74333000  0.85683000  0.87938000  1
  Mo  Mo386  1  0.36395000  0.64317000  0.12062000  1
  Mo  Mo387  1  0.86395000  0.47745000  0.12062000  1
  Mo  Mo388  1  0.14317000  0.86395000  0.62062000  1
  Mo  Mo389  1  0.64317000  0.75667000  0.62062000  1
  Mo  Mo390  1  0.52255000  0.74333000  0.37938000  1
  Mo  Mo391  1  0.02255000  0.63605000  0.37938000  1
  Mo  Mo392  1  0.14744000  0.95606000  0.62584000  1
  Mo  Mo393  1  0.64744000  0.66978000  0.62584000  1
  Mo  Mo394  1  0.52160000  0.83022000  0.37416000  1
  Mo  Mo395  1  0.02160000  0.54394000  0.37416000  1
  Mo  Mo396  1  0.33022000  0.02160000  0.87416000  1
  Mo  Mo397  1  0.83022000  0.85256000  0.87416000  1
  Mo  Mo398  1  0.45606000  0.64744000  0.12584000  1
  Mo  Mo399  1  0.95606000  0.47840000  0.12584000  1
  Mo  Mo400  1  0.04568000  0.66684000  0.30252000  1
  Mo  Mo401  1  0.54568000  0.63568000  0.30252000  1
  Mo  Mo402  1  0.74316000  0.86432000  0.69748000  1
  Mo  Mo403  1  0.24316000  0.83316000  0.69748000  1
  Mo  Mo404  1  0.25916000  0.05701000  0.71854000  1
  Mo  Mo405  1  0.75916000  0.66153000  0.71854000  1
  Mo  Mo406  1  0.54062000  0.83847000  0.28146000  1
  Mo  Mo407  1  0.04062000  0.44299000  0.28146000  1
  Mo  Mo408  1  0.33847000  0.04062000  0.78146000  1
  Mo  Mo409  1  0.83847000  0.74084000  0.78146000  1
  Mo  Mo410  1  0.55701000  0.75916000  0.21854000  1
  Mo  Mo411  1  0.05701000  0.45938000  0.21854000  1
  Mo  Mo412  1  0.34386000  0.92394000  0.78080000  1
  Mo  Mo413  1  0.84386000  0.85686000  0.78080000  1
  Mo  Mo414  1  0.56306000  0.64314000  0.21920000  1
  Mo  Mo415  1  0.06306000  0.57606000  0.21920000  1
  N  N416  1  0.57455000  0.49685000  0.85910000  1
  N  N417  1  0.07455000  0.36225000  0.85910000  1
  N  N418  1  0.71545000  0.13775000  0.14090000  1
  N  N419  1  0.21545000  0.00315000  0.14090000  1
  N  N420  1  0.00315000  0.92545000  0.64090000  1
  N  N421  1  0.50315000  0.71545000  0.64090000  1
  N  N422  1  0.36225000  0.78455000  0.35910000  1
  N  N423  1  0.86225000  0.57455000  0.35910000  1
  N  N424  1  0.49685000  0.28455000  0.35910000  1
  N  N425  1  0.99685000  0.07455000  0.35910000  1
  N  N426  1  0.13775000  0.42545000  0.64090000  1
  N  N427  1  0.63775000  0.21545000  0.64090000  1
  N  N428  1  0.92545000  0.63775000  0.14090000  1
  N  N429  1  0.42545000  0.50315000  0.14090000  1
  N  N430  1  0.78455000  0.99685000  0.85910000  1
  N  N431  1  0.28455000  0.86225000  0.85910000  1
  O  O432  1  0.20223000  0.28013000  0.37866000  1
  O  O433  1  0.70223000  0.09853000  0.37866000  1
  O  O434  1  0.82357000  0.40147000  0.62134000  1
  O  O435  1  0.32357000  0.21987000  0.62134000  1
  O  O436  1  0.13390000  0.20290000  0.22600000  1
  O  O437  1  0.63390000  0.02310000  0.22600000  1
  O  O438  1  0.90790000  0.47690000  0.77400000  1
  O  O439  1  0.40790000  0.29710000  0.77400000  1
  O  O440  1  0.23840000  0.35850000  0.40300000  1
  O  O441  1  0.73840000  0.04450000  0.40300000  1
  O  O442  1  0.83540000  0.45550000  0.59700000  1
  O  O443  1  0.33540000  0.14150000  0.59700000  1
  O  O444  1  0.20630000  0.28990000  0.29020000  1
  O  O445  1  0.70630000  0.00030000  0.29020000  1
  O  O446  1  0.91610000  0.49970000  0.70980000  1
  O  O447  1  0.41610000  0.21010000  0.70980000  1
  O  O448  1  0.20739000  0.18079000  0.29178000  1
  O  O449  1  0.70739000  0.11099000  0.29178000  1
  O  O450  1  0.91561000  0.38901000  0.70822000  1
  O  O451  1  0.41561000  0.31921000  0.70822000  1
  O  O452  1  0.13659000  0.20689000  0.14718000  1
  O  O453  1  0.63659000  0.94029000  0.14718000  1
  O  O454  1  0.98941000  0.55971000  0.85282000  1
  O  O455  1  0.48941000  0.29311000  0.85282000  1
  O  O456  1  0.14146000  0.11776000  0.15592000  1
  O  O457  1  0.64146000  0.03816000  0.15592000  1
  O  O458  1  0.98554000  0.46184000  0.84408000  1
  O  O459  1  0.48554000  0.38224000  0.84408000  1
  O  O460  1  0.14150000  0.26160000  0.09700000  1
  O  O461  1  0.64150000  0.83540000  0.09700000  1
  O  O462  1  0.04450000  0.66460000  0.90300000  1
  O  O463  1  0.54450000  0.23840000  0.90300000  1
  O  O464  1  0.48369000  0.39529000  0.77078000  1
  O  O465  1  0.98369000  0.37549000  0.77078000  1
  O  O466  1  0.71291000  0.12451000  0.22922000  1
  O  O467  1  0.21291000  0.10471000  0.22922000  1
  O  O468  1  0.21010000  0.29370000  0.20980000  1
  O  O469  1  0.71010000  0.91610000  0.20980000  1
  O  O470  1  0.00030000  0.58390000  0.79020000  1
  O  O471  1  0.50030000  0.20630000  0.79020000  1
  O  O472  1  0.29311000  0.36341000  0.35282000  1
  O  O473  1  0.79311000  0.98941000  0.35282000  1
  O  O474  1  0.94029000  0.51059000  0.64718000  1
  O  O475  1  0.44029000  0.13659000  0.64718000  1
  O  O476  1  0.30269000  0.28199000  0.36898000  1
  O  O477  1  0.80269000  0.08699000  0.36898000  1
  O  O478  1  0.93371000  0.41301000  0.63102000  1
  O  O479  1  0.43371000  0.21801000  0.63102000  1
  O  O480  1  0.29965000  0.18925000  0.36250000  1
  O  O481  1  0.79965000  0.17325000  0.36250000  1
  O  O482  1  0.93715000  0.32675000  0.63750000  1
  O  O483  1  0.43715000  0.31075000  0.63750000  1
  O  O484  1  0.22077000  0.10627000  0.13834000  1
  O  O485  1  0.72077000  0.03207000  0.13834000  1
  O  O486  1  0.08243000  0.46793000  0.86166000  1
  O  O487  1  0.58243000  0.39373000  0.86166000  1
  O  O488  1  0.21801000  0.19731000  0.13102000  1
  O  O489  1  0.71801000  0.93371000  0.13102000  1
  O  O490  1  0.08699000  0.56629000  0.86898000  1
  O  O491  1  0.58699000  0.30269000  0.86898000  1
  O  O492  1  0.21987000  0.29777000  0.12134000  1
  O  O493  1  0.71987000  0.82357000  0.12134000  1
  O  O494  1  0.09853000  0.67643000  0.87866000  1
  O  O495  1  0.59853000  0.20223000  0.87866000  1
  O  O496  1  0.29710000  0.36610000  0.27400000  1
  O  O497  1  0.79710000  0.90790000  0.27400000  1
  O  O498  1  0.02310000  0.59210000  0.72600000  1
  O  O499  1  0.52310000  0.13390000  0.72600000  1
  O  O500  1  0.51457000  0.39607000  0.70814000  1
  O  O501  1  0.01457000  0.31207000  0.70814000  1
  O  O502  1  0.80643000  0.18793000  0.29186000  1
  O  O503  1  0.30643000  0.10393000  0.29186000  1
  O  O504  1  0.10393000  0.98543000  0.79186000  1
  O  O505  1  0.60393000  0.80643000  0.79186000  1
  O  O506  1  0.31207000  0.69357000  0.20814000  1
  O  O507  1  0.81207000  0.51457000  0.20814000  1
  O  O508  1  0.59967000  0.40217000  0.78294000  1
  O  O509  1  0.09967000  0.38077000  0.78294000  1
  O  O510  1  0.81673000  0.11923000  0.21706000  1
  O  O511  1  0.31673000  0.09783000  0.21706000  1
  O  O512  1  0.38224000  0.35854000  0.34408000  1
  O  O513  1  0.88224000  0.98554000  0.34408000  1
  O  O514  1  0.03816000  0.51446000  0.65592000  1
  O  O515  1  0.53816000  0.14146000  0.65592000  1
  O  O516  1  0.38902000  0.18592000  0.35624000  1
  O  O517  1  0.88902000  0.17032000  0.35624000  1
  O  O518  1  0.03278000  0.32968000  0.64376000  1
  O  O519  1  0.53278000  0.31408000  0.64376000  1
  O  O520  1  0.39373000  0.27923000  0.36166000  1
  O  O521  1  0.89373000  0.08243000  0.36166000  1
  O  O522  1  0.03207000  0.41757000  0.63834000  1
  O  O523  1  0.53207000  0.22077000  0.63834000  1
  O  O524  1  0.31921000  0.29261000  0.20822000  1
  O  O525  1  0.81921000  0.91561000  0.20822000  1
  O  O526  1  0.11099000  0.58439000  0.79178000  1
  O  O527  1  0.61099000  0.20739000  0.79178000  1
  O  O528  1  0.09783000  0.90033000  0.71706000  1
  O  O529  1  0.59783000  0.81673000  0.71706000  1
  O  O530  1  0.38077000  0.68327000  0.28294000  1
  O  O531  1  0.88077000  0.59967000  0.28294000  1
  O  O532  1  0.10471000  0.01631000  0.72922000  1
  O  O533  1  0.60471000  0.71291000  0.72922000  1
  O  O534  1  0.37549000  0.78709000  0.27078000  1
  O  O535  1  0.87549000  0.48369000  0.27078000  1
  O  O536  1  0.31075000  0.20035000  0.13750000  1
  O  O537  1  0.81075000  0.93715000  0.13750000  1
  O  O538  1  0.17325000  0.56285000  0.86250000  1
  O  O539  1  0.67325000  0.29965000  0.86250000  1
  O  O540  1  0.31408000  0.11098000  0.14376000  1
  O  O541  1  0.81408000  0.03278000  0.14376000  1
  O  O542  1  0.17032000  0.46722000  0.85624000  1
  O  O543  1  0.67032000  0.38902000  0.85624000  1
  O  O544  1  0.18592000  0.96722000  0.85624000  1
  O  O545  1  0.68592000  0.88902000  0.85624000  1
  O  O546  1  0.32968000  0.61098000  0.14376000  1
  O  O547  1  0.82968000  0.53278000  0.14376000  1
  O  O548  1  0.18925000  0.06285000  0.86250000  1
  O  O549  1  0.68925000  0.79965000  0.86250000  1
  O  O550  1  0.32675000  0.70035000  0.13750000  1
  O  O551  1  0.82675000  0.43715000  0.13750000  1
  O  O552  1  0.39529000  0.28709000  0.27078000  1
  O  O553  1  0.89529000  0.98369000  0.27078000  1
  O  O554  1  0.12451000  0.51631000  0.72922000  1
  O  O555  1  0.62451000  0.21291000  0.72922000  1
  O  O556  1  0.40217000  0.18327000  0.28294000  1
  O  O557  1  0.90217000  0.09967000  0.28294000  1
  O  O558  1  0.11923000  0.40033000  0.71706000  1
  O  O559  1  0.61923000  0.31673000  0.71706000  1
  O  O560  1  0.18079000  0.08439000  0.79178000  1
  O  O561  1  0.68079000  0.70739000  0.79178000  1
  O  O562  1  0.38901000  0.79261000  0.20822000  1
  O  O563  1  0.88901000  0.41561000  0.20822000  1
  O  O564  1  0.10627000  0.91757000  0.63834000  1
  O  O565  1  0.60627000  0.72077000  0.63834000  1
  O  O566  1  0.46793000  0.77923000  0.36166000  1
  O  O567  1  0.96793000  0.58243000  0.36166000  1
  O  O568  1  0.11098000  0.82968000  0.64376000  1
  O  O569  1  0.61098000  0.81408000  0.64376000  1
  O  O570  1  0.46722000  0.68592000  0.35624000  1
  O  O571  1  0.96722000  0.67032000  0.35624000  1
  O  O572  1  0.11776000  0.01446000  0.65592000  1
  O  O573  1  0.61776000  0.64146000  0.65592000  1
  O  O574  1  0.46184000  0.85854000  0.34408000  1
  O  O575  1  0.96184000  0.48554000  0.34408000  1
  O  O576  1  0.90033000  0.61923000  0.21706000  1
  O  O577  1  0.40033000  0.59783000  0.21706000  1
  O  O578  1  0.68327000  0.90217000  0.78294000  1
  O  O579  1  0.18327000  0.88077000  0.78294000  1
  O  O580  1  0.39607000  0.19357000  0.20814000  1
  O  O581  1  0.89607000  0.01457000  0.20814000  1
  O  O582  1  0.18793000  0.48543000  0.79186000  1
  O  O583  1  0.68793000  0.30643000  0.79186000  1
  O  O584  1  0.98543000  0.68793000  0.29186000  1
  O  O585  1  0.48543000  0.60393000  0.29186000  1
  O  O586  1  0.69357000  0.89607000  0.70814000  1
  O  O587  1  0.19357000  0.81207000  0.70814000  1
  O  O588  1  0.20290000  0.09210000  0.72600000  1
  O  O589  1  0.70290000  0.63390000  0.72600000  1
  O  O590  1  0.47690000  0.86610000  0.27400000  1
  O  O591  1  0.97690000  0.40790000  0.27400000  1
  O  O592  1  0.28013000  0.17643000  0.87866000  1
  O  O593  1  0.78013000  0.70223000  0.87866000  1
  O  O594  1  0.40147000  0.79777000  0.12134000  1
  O  O595  1  0.90147000  0.32357000  0.12134000  1
  O  O596  1  0.28199000  0.06629000  0.86898000  1
  O  O597  1  0.78199000  0.80269000  0.86898000  1
  O  O598  1  0.41301000  0.69731000  0.13102000  1
  O  O599  1  0.91301000  0.43371000  0.13102000  1
  O  O600  1  0.27923000  0.96793000  0.86166000  1
  O  O601  1  0.77923000  0.89373000  0.86166000  1
  O  O602  1  0.41757000  0.60627000  0.13834000  1
  O  O603  1  0.91757000  0.53207000  0.13834000  1
  O  O604  1  0.20035000  0.82675000  0.63750000  1
  O  O605  1  0.70035000  0.81075000  0.63750000  1
  O  O606  1  0.56285000  0.68925000  0.36250000  1
  O  O607  1  0.06285000  0.67325000  0.36250000  1
  O  O608  1  0.19731000  0.91301000  0.63102000  1
  O  O609  1  0.69731000  0.71801000  0.63102000  1
  O  O610  1  0.56629000  0.78199000  0.36898000  1
  O  O611  1  0.06629000  0.58699000  0.36898000  1
  O  O612  1  0.20689000  0.01059000  0.64718000  1
  O  O613  1  0.70689000  0.63659000  0.64718000  1
  O  O614  1  0.55971000  0.86341000  0.35282000  1
  O  O615  1  0.05971000  0.48941000  0.35282000  1
  O  O616  1  0.28990000  0.08390000  0.79020000  1
  O  O617  1  0.78990000  0.70630000  0.79020000  1
  O  O618  1  0.49970000  0.79370000  0.20980000  1
  O  O619  1  0.99970000  0.41610000  0.20980000  1
  O  O620  1  0.01631000  0.62451000  0.22922000  1
  O  O621  1  0.51631000  0.60471000  0.22922000  1
  O  O622  1  0.78709000  0.89529000  0.77078000  1
  O  O623  1  0.28709000  0.87549000  0.77078000  1
  O  O624  1  0.35850000  0.16460000  0.90300000  1
  O  O625  1  0.85850000  0.73840000  0.90300000  1
  O  O626  1  0.45550000  0.76160000  0.09700000  1
  O  O627  1  0.95550000  0.33540000  0.09700000  1
  O  O628  1  0.35854000  0.96184000  0.84408000  1
  O  O629  1  0.85854000  0.88224000  0.84408000  1
  O  O630  1  0.51446000  0.61776000  0.15592000  1
  O  O631  1  0.01446000  0.53816000  0.15592000  1
  O  O632  1  0.36341000  0.05971000  0.85282000  1
  O  O633  1  0.86341000  0.79311000  0.85282000  1
  O  O634  1  0.51059000  0.70689000  0.14718000  1
  O  O635  1  0.01059000  0.44029000  0.14718000  1
  O  O636  1  0.29261000  0.88901000  0.70822000  1
  O  O637  1  0.79261000  0.81921000  0.70822000  1
  O  O638  1  0.58439000  0.68079000  0.29178000  1
  O  O639  1  0.08439000  0.61099000  0.29178000  1
  O  O640  1  0.29370000  0.99970000  0.70980000  1
  O  O641  1  0.79370000  0.71010000  0.70980000  1
  O  O642  1  0.58390000  0.78990000  0.29020000  1
  O  O643  1  0.08390000  0.50030000  0.29020000  1
  O  O644  1  0.26160000  0.95550000  0.59700000  1
  O  O645  1  0.76160000  0.64150000  0.59700000  1
  O  O646  1  0.66460000  0.85850000  0.40300000  1
  O  O647  1  0.16460000  0.54450000  0.40300000  1
  O  O648  1  0.36610000  0.97690000  0.77400000  1
  O  O649  1  0.86610000  0.79710000  0.77400000  1
  O  O650  1  0.59210000  0.70290000  0.22600000  1
  O  O651  1  0.09210000  0.52310000  0.22600000  1
  O  O652  1  0.29777000  0.90147000  0.62134000  1
  O  O653  1  0.79777000  0.71987000  0.62134000  1
  O  O654  1  0.67643000  0.78013000  0.37866000  1
  O  O655  1  0.17643000  0.59853000  0.37866000  1
  Zn  Zn656  1  0.22692000  0.25502000  0.33052000  1
  Zn  Zn657  1  0.72692000  0.07550000  0.33052000  1
  Zn  Zn658  1  0.89640000  0.42450000  0.66948000  1
  Zn  Zn659  1  0.39640000  0.24498000  0.66948000  1
  Zn  Zn660  1  0.55668000  0.42186000  0.81496000  1
  Zn  Zn661  1  0.05668000  0.39310000  0.81496000  1
  Zn  Zn662  1  0.74172000  0.10690000  0.18504000  1
  Zn  Zn663  1  0.24172000  0.07814000  0.18504000  1
  Zn  Zn664  1  0.24498000  0.27308000  0.16948000  1
  Zn  Zn665  1  0.74498000  0.89640000  0.16948000  1
  Zn  Zn666  1  0.07550000  0.60360000  0.83052000  1
  Zn  Zn667  1  0.57550000  0.22692000  0.83052000  1
  Zn  Zn668  1  0.07814000  0.94332000  0.68504000  1
  Zn  Zn669  1  0.57814000  0.74172000  0.68504000  1
  Zn  Zn670  1  0.39310000  0.75828000  0.31496000  1
  Zn  Zn671  1  0.89310000  0.55668000  0.31496000  1
  Zn  Zn672  1  0.42186000  0.25828000  0.31496000  1
  Zn  Zn673  1  0.92186000  0.05668000  0.31496000  1
  Zn  Zn674  1  0.10690000  0.44332000  0.68504000  1
  Zn  Zn675  1  0.60690000  0.24172000  0.68504000  1
  Zn  Zn676  1  0.25502000  0.10360000  0.83052000  1
  Zn  Zn677  1  0.75502000  0.72692000  0.83052000  1
  Zn  Zn678  1  0.42450000  0.77308000  0.16948000  1
  Zn  Zn679  1  0.92450000  0.39640000  0.16948000  1
  Zn  Zn680  1  0.94332000  0.60690000  0.18504000  1
  Zn  Zn681  1  0.44332000  0.57814000  0.18504000  1
  Zn  Zn682  1  0.75828000  0.92186000  0.81496000  1
  Zn  Zn683  1  0.25828000  0.89310000  0.81496000  1
  Zn  Zn684  1  0.27308000  0.92450000  0.66948000  1
  Zn  Zn685  1  0.77308000  0.74498000  0.66948000  1
  Zn  Zn686  1  0.60360000  0.75502000  0.33052000  1
  Zn  Zn687  1  0.10360000  0.57550000  0.33052000  1
