# generated using pymatgen
data_InH4C12(NO2)4
_symmetry_space_group_name_H-M   'P 1'
_cell_length_a   10.11490000
_cell_length_b   10.11490000
_cell_length_c   11.46700000
_cell_angle_alpha   98.92040000
_cell_angle_beta   98.92040000
_cell_angle_gamma   115.27800000
_symmetry_Int_Tables_number   1
_chemical_formula_structural   InH4C12(NO2)4
_chemical_formula_sum   'In2 H8 C24 N8 O16'
_cell_volume   1015.37208874
_cell_formula_units_Z   2
loop_
 _symmetry_equiv_pos_site_id
 _symmetry_equiv_pos_as_xyz
  1  'x, y, z'
loop_
 _atom_site_type_symbol
 _atom_site_label
 _atom_site_symmetry_multiplicity
 _atom_site_fract_x
 _atom_site_fract_y
 _atom_site_fract_z
 _atom_site_occupancy
  In  In0  1  0.36303000  0.63697000  0.75000000  1
  In  In1  1  0.63697000  0.36303000  0.25000000  1
  H  H2  1  0.41860000  0.78620000  0.06800000  1
  H  H3  1  0.58370000  0.75390000  0.55770000  1
  H  H4  1  0.75390000  0.58370000  0.05770000  1
  H  H5  1  0.21380000  0.58140000  0.43200000  1
  H  H6  1  0.78620000  0.41860000  0.56800000  1
  H  H7  1  0.24610000  0.41630000  0.94230000  1
  H  H8  1  0.41630000  0.24610000  0.44230000  1
  H  H9  1  0.58140000  0.21380000  0.93200000  1
  C  C10  1  0.48650000  0.98670000  0.88040000  1
  C  C11  1  0.46600000  0.96820000  0.74390000  1
  C  C12  1  0.45130000  0.87250000  0.03860000  1
  C  C13  1  0.68450000  0.72250000  0.89100000  1
  C  C14  1  0.72250000  0.68450000  0.39100000  1
  C  C15  1  0.54890000  0.65010000  0.53510000  1
  C  C16  1  0.58890000  0.60630000  0.95060000  1
  C  C17  1  0.60630000  0.58890000  0.45060000  1
  C  C18  1  0.65010000  0.54890000  0.03510000  1
  C  C19  1  0.12750000  0.54870000  0.46140000  1
  C  C20  1  0.03180000  0.53400000  0.75610000  1
  C  C21  1  0.01330000  0.51350000  0.61960000  1
  C  C22  1  0.98670000  0.48650000  0.38040000  1
  C  C23  1  0.96820000  0.46600000  0.24390000  1
  C  C24  1  0.87250000  0.45130000  0.53860000  1
  C  C25  1  0.34990000  0.45110000  0.96490000  1
  C  C26  1  0.39370000  0.41110000  0.54940000  1
  C  C27  1  0.41110000  0.39370000  0.04940000  1
  C  C28  1  0.45110000  0.34990000  0.46490000  1
  C  C29  1  0.27750000  0.31550000  0.60900000  1
  C  C30  1  0.31550000  0.27750000  0.10900000  1
  C  C31  1  0.54870000  0.12750000  0.96140000  1
  C  C32  1  0.53400000  0.03180000  0.25610000  1
  C  C33  1  0.51350000  0.01330000  0.11960000  1
  N  N34  1  0.43790000  0.85930000  0.91910000  1
  N  N35  1  0.14070000  0.56210000  0.58090000  1
  N  N36  1  0.44393000  0.55927000  0.58350000  1
  N  N37  1  0.44073000  0.55607000  0.91650000  1
  N  N38  1  0.55927000  0.44393000  0.08350000  1
  N  N39  1  0.55607000  0.44073000  0.41650000  1
  N  N40  1  0.85930000  0.43790000  0.41910000  1
  N  N41  1  0.56210000  0.14070000  0.08090000  1
  O  O42  1  0.49840000  0.91940000  0.29540000  1
  O  O43  1  0.40872000  0.83348000  0.67860000  1
  O  O44  1  0.78350000  0.82330000  0.43130000  1
  O  O45  1  0.82330000  0.78350000  0.93130000  1
  O  O46  1  0.61411000  0.74989000  0.80540000  1
  O  O47  1  0.74989000  0.61411000  0.30540000  1
  O  O48  1  0.16652000  0.59128000  0.82140000  1
  O  O49  1  0.08060000  0.50160000  0.20460000  1
  O  O50  1  0.91940000  0.49840000  0.79540000  1
  O  O51  1  0.83348000  0.40872000  0.17860000  1
  O  O52  1  0.25011000  0.38589000  0.69460000  1
  O  O53  1  0.38589000  0.25011000  0.19460000  1
  O  O54  1  0.17670000  0.21650000  0.06870000  1
  O  O55  1  0.21650000  0.17670000  0.56870000  1
  O  O56  1  0.59128000  0.16652000  0.32140000  1
  O  O57  1  0.50160000  0.08060000  0.70460000  1
