# generated using pymatgen
data_Cu7H42(C5N3)12
_symmetry_space_group_name_H-M   'P 1'
_cell_length_a   18.17700000
_cell_length_b   22.42500000
_cell_length_c   23.86700000
_cell_angle_alpha   90.00000000
_cell_angle_beta   90.00000000
_cell_angle_gamma   90.00000000
_symmetry_Int_Tables_number   1
_chemical_formula_structural   Cu7H42(C5N3)12
_chemical_formula_sum   'Cu28 H168 C240 N144'
_cell_volume   9728.64804308
_cell_formula_units_Z   4
loop_
 _symmetry_equiv_pos_site_id
 _symmetry_equiv_pos_as_xyz
  1  'x, y, z'
loop_
 _atom_site_type_symbol
 _atom_site_label
 _atom_site_symmetry_multiplicity
 _atom_site_fract_x
 _atom_site_fract_y
 _atom_site_fract_z
 _atom_site_occupancy
  Cu  Cu0  1  0.92968000  0.34477000  0.75762000  1
  Cu  Cu1  1  0.92948000  0.18936000  0.75435000  1
  Cu  Cu2  1  0.92723000  0.12528000  0.89034000  1
  Cu  Cu3  1  0.92681000  0.40725000  0.62194000  1
  Cu  Cu4  1  0.82758000  0.51145000  0.22352000  1
  Cu  Cu5  1  0.80977000  0.00620000  0.27757000  1
  Cu  Cu6  1  0.78930000  0.00020000  0.88320000  1
  Cu  Cu7  1  0.71070000  0.00020000  0.38320000  1
  Cu  Cu8  1  0.69023000  0.00620000  0.77757000  1
  Cu  Cu9  1  0.67242000  0.51145000  0.72352000  1
  Cu  Cu10  1  0.57319000  0.40725000  0.12194000  1
  Cu  Cu11  1  0.57277000  0.12528000  0.39034000  1
  Cu  Cu12  1  0.57052000  0.18936000  0.25435000  1
  Cu  Cu13  1  0.57032000  0.34477000  0.25762000  1
  Cu  Cu14  1  0.42968000  0.84477000  0.74238000  1
  Cu  Cu15  1  0.42948000  0.68936000  0.74565000  1
  Cu  Cu16  1  0.42723000  0.62528000  0.60966000  1
  Cu  Cu17  1  0.42681000  0.90725000  0.87806000  1
  Cu  Cu18  1  0.32758000  0.01145000  0.27648000  1
  Cu  Cu19  1  0.30977000  0.50620000  0.22243000  1
  Cu  Cu20  1  0.28930000  0.50020000  0.61680000  1
  Cu  Cu21  1  0.21070000  0.50020000  0.11680000  1
  Cu  Cu22  1  0.19023000  0.50620000  0.72243000  1
  Cu  Cu23  1  0.17242000  0.01145000  0.77648000  1
  Cu  Cu24  1  0.07319000  0.90725000  0.37806000  1
  Cu  Cu25  1  0.07277000  0.62528000  0.10966000  1
  Cu  Cu26  1  0.07052000  0.68936000  0.24565000  1
  Cu  Cu27  1  0.07032000  0.84477000  0.24238000  1
  H  H28  1  0.98500000  0.01510000  0.94500000  1
  H  H29  1  0.97190000  0.11480000  0.46990000  1
  H  H30  1  0.96980000  0.67740000  0.00450000  1
  H  H31  1  0.96410000  0.20350000  0.52260000  1
  H  H32  1  0.95980000  0.53050000  0.56020000  1
  H  H33  1  0.95970000  0.87240000  0.47380000  1
  H  H34  1  0.95890000  0.01900000  0.61250000  1
  H  H35  1  0.94680000  0.10610000  0.66280000  1
  H  H36  1  0.93550000  0.51550000  0.88100000  1
  H  H37  1  0.92940000  0.34460000  0.99050000  1
  H  H38  1  0.92770000  0.43780000  0.03230000  1
  H  H39  1  0.92490000  0.42390000  0.84070000  1
  H  H40  1  0.92450000  0.90380000  0.96980000  1
  H  H41  1  0.91590000  0.94010000  0.54680000  1
  H  H42  1  0.91240000  0.60580000  0.93740000  1
  H  H43  1  0.90550000  0.83140000  0.18280000  1
  H  H44  1  0.90410000  0.01170000  0.17370000  1
  H  H45  1  0.90350000  0.72360000  0.27380000  1
  H  H46  1  0.88280000  0.76740000  0.46710000  1
  H  H47  1  0.88050000  0.42750000  0.49500000  1
  H  H48  1  0.87770000  0.10480000  0.01840000  1
  H  H49  1  0.87520000  0.55630000  0.32660000  1
  H  H50  1  0.86770000  0.82700000  0.08930000  1
  H  H51  1  0.86410000  0.00640000  0.08100000  1
  H  H52  1  0.85760000  0.75880000  0.35800000  1
  H  H53  1  0.83100000  0.59000000  0.41240000  1
  H  H54  1  0.81900000  0.76790000  0.55800000  1
  H  H55  1  0.81310000  0.17720000  0.48010000  1
  H  H56  1  0.78880000  0.02120000  0.66240000  1
  H  H57  1  0.78250000  0.47500000  0.43200000  1
  H  H58  1  0.78180000  0.32970000  0.60660000  1
  H  H59  1  0.78160000  0.31430000  0.01530000  1
  H  H60  1  0.77730000  0.94400000  0.52980000  1
  H  H61  1  0.77430000  0.97120000  0.42840000  1
  H  H62  1  0.77110000  0.19680000  0.69560000  1
  H  H63  1  0.77090000  0.31650000  0.81360000  1
  H  H64  1  0.76650000  0.04090000  0.56870000  1
  H  H65  1  0.76480000  0.21440000  0.10220000  1
  H  H66  1  0.76410000  0.64060000  0.96410000  1
  H  H67  1  0.76240000  0.17500000  0.89710000  1
  H  H68  1  0.76210000  0.30030000  0.40350000  1
  H  H69  1  0.75740000  0.49320000  0.33930000  1
  H  H70  1  0.74260000  0.49320000  0.83930000  1
  H  H71  1  0.73790000  0.30030000  0.90350000  1
  H  H72  1  0.73760000  0.17500000  0.39710000  1
  H  H73  1  0.73590000  0.64060000  0.46410000  1
  H  H74  1  0.73520000  0.21440000  0.60220000  1
  H  H75  1  0.73350000  0.04090000  0.06870000  1
  H  H76  1  0.72910000  0.31650000  0.31360000  1
  H  H77  1  0.72890000  0.19680000  0.19560000  1
  H  H78  1  0.72570000  0.97120000  0.92840000  1
  H  H79  1  0.72270000  0.94400000  0.02980000  1
  H  H80  1  0.71840000  0.31430000  0.51530000  1
  H  H81  1  0.71820000  0.32970000  0.10660000  1
  H  H82  1  0.71750000  0.47500000  0.93200000  1
  H  H83  1  0.71120000  0.02120000  0.16240000  1
  H  H84  1  0.68690000  0.17720000  0.98010000  1
  H  H85  1  0.68100000  0.76790000  0.05800000  1
  H  H86  1  0.66900000  0.59000000  0.91240000  1
  H  H87  1  0.64240000  0.75880000  0.85800000  1
  H  H88  1  0.63590000  0.00640000  0.58100000  1
  H  H89  1  0.63230000  0.82700000  0.58930000  1
  H  H90  1  0.62480000  0.55630000  0.82660000  1
  H  H91  1  0.62230000  0.10480000  0.51840000  1
  H  H92  1  0.61950000  0.42750000  0.99500000  1
  H  H93  1  0.61720000  0.76740000  0.96710000  1
  H  H94  1  0.59650000  0.72360000  0.77380000  1
  H  H95  1  0.59590000  0.01170000  0.67370000  1
  H  H96  1  0.59450000  0.83140000  0.68280000  1
  H  H97  1  0.58760000  0.60580000  0.43740000  1
  H  H98  1  0.58410000  0.94010000  0.04680000  1
  H  H99  1  0.57550000  0.90380000  0.46980000  1
  H  H100  1  0.57510000  0.42390000  0.34070000  1
  H  H101  1  0.57230000  0.43780000  0.53230000  1
  H  H102  1  0.57060000  0.34460000  0.49050000  1
  H  H103  1  0.56450000  0.51550000  0.38100000  1
  H  H104  1  0.55320000  0.10610000  0.16280000  1
  H  H105  1  0.54110000  0.01900000  0.11250000  1
  H  H106  1  0.54030000  0.87240000  0.97380000  1
  H  H107  1  0.54020000  0.53050000  0.06020000  1
  H  H108  1  0.53590000  0.20350000  0.02260000  1
  H  H109  1  0.53020000  0.67740000  0.50450000  1
  H  H110  1  0.52810000  0.11480000  0.96990000  1
  H  H111  1  0.51500000  0.01510000  0.44500000  1
  H  H112  1  0.48500000  0.51510000  0.55500000  1
  H  H113  1  0.47190000  0.61480000  0.03010000  1
  H  H114  1  0.46980000  0.17740000  0.49550000  1
  H  H115  1  0.46410000  0.70350000  0.97740000  1
  H  H116  1  0.45980000  0.03050000  0.93980000  1
  H  H117  1  0.45970000  0.37240000  0.02620000  1
  H  H118  1  0.45890000  0.51900000  0.88750000  1
  H  H119  1  0.44680000  0.60610000  0.83720000  1
  H  H120  1  0.43550000  0.01550000  0.61900000  1
  H  H121  1  0.42940000  0.84460000  0.50950000  1
  H  H122  1  0.42770000  0.93780000  0.46770000  1
  H  H123  1  0.42490000  0.92390000  0.65930000  1
  H  H124  1  0.42450000  0.40380000  0.53020000  1
  H  H125  1  0.41590000  0.44010000  0.95320000  1
  H  H126  1  0.41240000  0.10580000  0.56260000  1
  H  H127  1  0.40550000  0.33140000  0.31720000  1
  H  H128  1  0.40410000  0.51170000  0.32630000  1
  H  H129  1  0.40350000  0.22360000  0.22620000  1
  H  H130  1  0.38280000  0.26740000  0.03290000  1
  H  H131  1  0.38050000  0.92750000  0.00500000  1
  H  H132  1  0.37770000  0.60480000  0.48160000  1
  H  H133  1  0.37520000  0.05630000  0.17340000  1
  H  H134  1  0.36770000  0.32700000  0.41070000  1
  H  H135  1  0.36410000  0.50640000  0.41900000  1
  H  H136  1  0.35760000  0.25880000  0.14200000  1
  H  H137  1  0.33100000  0.09000000  0.08760000  1
  H  H138  1  0.31900000  0.26790000  0.94200000  1
  H  H139  1  0.31310000  0.67720000  0.01990000  1
  H  H140  1  0.28880000  0.52120000  0.83760000  1
  H  H141  1  0.28250000  0.97500000  0.06800000  1
  H  H142  1  0.28180000  0.82970000  0.89340000  1
  H  H143  1  0.28160000  0.81430000  0.48470000  1
  H  H144  1  0.27730000  0.44400000  0.97020000  1
  H  H145  1  0.27430000  0.47120000  0.07160000  1
  H  H146  1  0.27110000  0.69680000  0.80440000  1
  H  H147  1  0.27090000  0.81650000  0.68640000  1
  H  H148  1  0.26650000  0.54090000  0.93130000  1
  H  H149  1  0.26480000  0.71440000  0.39780000  1
  H  H150  1  0.26410000  0.14060000  0.53590000  1
  H  H151  1  0.26240000  0.67500000  0.60290000  1
  H  H152  1  0.26210000  0.80030000  0.09650000  1
  H  H153  1  0.25740000  0.99320000  0.16070000  1
  H  H154  1  0.24260000  0.99320000  0.66070000  1
  H  H155  1  0.23790000  0.80030000  0.59650000  1
  H  H156  1  0.23760000  0.67500000  0.10290000  1
  H  H157  1  0.23590000  0.14060000  0.03590000  1
  H  H158  1  0.23520000  0.71440000  0.89780000  1
  H  H159  1  0.23350000  0.54090000  0.43130000  1
  H  H160  1  0.22910000  0.81650000  0.18640000  1
  H  H161  1  0.22890000  0.69680000  0.30440000  1
  H  H162  1  0.22570000  0.47120000  0.57160000  1
  H  H163  1  0.22270000  0.44400000  0.47020000  1
  H  H164  1  0.21840000  0.81430000  0.98470000  1
  H  H165  1  0.21820000  0.82970000  0.39340000  1
  H  H166  1  0.21750000  0.97500000  0.56800000  1
  H  H167  1  0.21120000  0.52120000  0.33760000  1
  H  H168  1  0.18690000  0.67720000  0.51990000  1
  H  H169  1  0.18100000  0.26790000  0.44200000  1
  H  H170  1  0.16900000  0.09000000  0.58760000  1
  H  H171  1  0.14240000  0.25880000  0.64200000  1
  H  H172  1  0.13590000  0.50640000  0.91900000  1
  H  H173  1  0.13230000  0.32700000  0.91070000  1
  H  H174  1  0.12480000  0.05630000  0.67340000  1
  H  H175  1  0.12230000  0.60480000  0.98160000  1
  H  H176  1  0.11950000  0.92750000  0.50500000  1
  H  H177  1  0.11720000  0.26740000  0.53290000  1
  H  H178  1  0.09650000  0.22360000  0.72620000  1
  H  H179  1  0.09590000  0.51170000  0.82630000  1
  H  H180  1  0.09450000  0.33140000  0.81720000  1
  H  H181  1  0.08760000  0.10580000  0.06260000  1
  H  H182  1  0.08410000  0.44010000  0.45320000  1
  H  H183  1  0.07550000  0.40380000  0.03020000  1
  H  H184  1  0.07510000  0.92390000  0.15930000  1
  H  H185  1  0.07230000  0.93780000  0.96770000  1
  H  H186  1  0.07060000  0.84460000  0.00950000  1
  H  H187  1  0.06450000  0.01550000  0.11900000  1
  H  H188  1  0.05320000  0.60610000  0.33720000  1
  H  H189  1  0.04110000  0.51900000  0.38750000  1
  H  H190  1  0.04030000  0.37240000  0.52620000  1
  H  H191  1  0.04020000  0.03050000  0.43980000  1
  H  H192  1  0.03590000  0.70350000  0.47740000  1
  H  H193  1  0.03020000  0.17740000  0.99550000  1
  H  H194  1  0.02810000  0.61480000  0.53010000  1
  H  H195  1  0.01500000  0.51510000  0.05500000  1
  C  C196  1  0.99460000  0.54700000  0.03550000  1
  C  C197  1  0.98530000  0.49950000  0.54310000  1
  C  C198  1  0.97050000  0.63600000  0.00720000  1
  C  C199  1  0.97000000  0.91290000  0.47590000  1
  C  C200  1  0.96950000  0.05950000  0.53600000  1
  C  C201  1  0.96860000  0.11330000  0.50880000  1
  C  C202  1  0.96280000  0.16670000  0.54060000  1
  C  C203  1  0.96020000  0.05580000  0.59440000  1
  C  C204  1  0.95540000  0.16400000  0.59840000  1
  C  C205  1  0.95320000  0.10800000  0.62420000  1
  C  C206  1  0.94980000  0.22080000  0.62730000  1
  C  C207  1  0.94620000  0.94980000  0.51670000  1
  C  C208  1  0.93820000  0.59610000  0.96980000  1
  C  C209  1  0.93790000  0.48540000  0.96190000  1
  C  C210  1  0.93430000  0.48140000  0.90310000  1
  C  C211  1  0.93280000  0.92880000  0.24570000  1
  C  C212  1  0.93140000  0.43470000  0.99350000  1
  C  C213  1  0.93010000  0.37860000  0.96820000  1
  C  C214  1  0.92970000  0.37280000  0.91000000  1
  C  C215  1  0.92930000  0.31430000  0.88490000  1
  C  C216  1  0.92910000  0.42630000  0.87950000  1
  C  C217  1  0.92580000  0.61380000  0.23950000  1
  C  C218  1  0.90810000  0.92280000  0.18810000  1
  C  C219  1  0.89710000  0.86630000  0.16270000  1
  C  C220  1  0.89590000  0.97470000  0.15720000  1
  C  C221  1  0.89470000  0.63580000  0.29370000  1
  C  C222  1  0.88900000  0.69720000  0.30180000  1
  C  C223  1  0.87600000  0.91680000  0.97210000  1
  C  C224  1  0.87350000  0.86360000  0.10710000  1
  C  C225  1  0.87230000  0.59710000  0.33360000  1
  C  C226  1  0.87150000  0.97180000  0.10170000  1
  C  C227  1  0.86170000  0.71800000  0.35170000  1
  C  C228  1  0.85860000  0.91690000  0.07830000  1
  C  C229  1  0.84760000  0.40140000  0.51210000  1
  C  C230  1  0.84520000  0.61670000  0.38460000  1
  C  C231  1  0.84460000  0.74210000  0.47770000  1
  C  C232  1  0.84020000  0.67770000  0.39260000  1
  C  C233  1  0.83950000  0.12200000  0.99810000  1
  C  C234  1  0.80890000  0.74280000  0.52800000  1
  C  C235  1  0.80200000  0.09740000  0.74780000  1
  C  C236  1  0.79400000  0.34780000  0.57280000  1
  C  C237  1  0.78580000  0.42160000  0.75890000  1
  C  C238  1  0.78220000  0.10700000  0.68830000  1
  C  C239  1  0.78030000  0.06000000  0.65050000  1
  C  C240  1  0.77630000  0.16050000  0.93200000  1
  C  C241  1  0.77540000  0.38470000  0.42790000  1
  C  C242  1  0.77260000  0.44340000  0.40790000  1
  C  C243  1  0.76780000  0.16540000  0.67040000  1
  C  C244  1  0.76560000  0.16200000  0.47770000  1
  C  C245  1  0.76550000  0.40860000  0.81620000  1
  C  C246  1  0.76550000  0.07190000  0.59460000  1
  C  C247  1  0.76430000  0.95470000  0.94880000  1
  C  C248  1  0.76380000  0.67310000  0.47570000  1
  C  C249  1  0.76260000  0.93940000  0.00580000  1
  C  C250  1  0.76060000  0.34860000  0.83700000  1
  C  C251  1  0.75920000  0.33940000  0.39070000  1
  C  C252  1  0.75820000  0.33930000  0.52210000  1
  C  C253  1  0.75520000  0.45430000  0.35270000  1
  C  C254  1  0.75160000  0.17640000  0.11420000  1
  C  C255  1  0.75020000  0.12780000  0.07690000  1
  C  C256  1  0.74980000  0.12780000  0.57690000  1
  C  C257  1  0.74840000  0.17640000  0.61420000  1
  C  C258  1  0.74480000  0.45430000  0.85270000  1
  C  C259  1  0.74180000  0.33930000  0.02210000  1
  C  C260  1  0.74080000  0.33940000  0.89070000  1
  C  C261  1  0.73940000  0.34860000  0.33700000  1
  C  C262  1  0.73740000  0.93940000  0.50580000  1
  C  C263  1  0.73620000  0.67310000  0.97570000  1
  C  C264  1  0.73570000  0.95470000  0.44880000  1
  C  C265  1  0.73450000  0.40860000  0.31620000  1
  C  C266  1  0.73450000  0.07190000  0.09460000  1
  C  C267  1  0.73440000  0.16200000  0.97770000  1
  C  C268  1  0.73220000  0.16540000  0.17040000  1
  C  C269  1  0.72740000  0.44340000  0.90790000  1
  C  C270  1  0.72460000  0.38470000  0.92790000  1
  C  C271  1  0.72370000  0.16050000  0.43200000  1
  C  C272  1  0.71970000  0.06000000  0.15050000  1
  C  C273  1  0.71780000  0.10700000  0.18830000  1
  C  C274  1  0.71420000  0.42160000  0.25890000  1
  C  C275  1  0.70600000  0.34780000  0.07280000  1
  C  C276  1  0.69800000  0.09740000  0.24780000  1
  C  C277  1  0.69110000  0.74280000  0.02800000  1
  C  C278  1  0.66050000  0.12200000  0.49810000  1
  C  C279  1  0.65980000  0.67770000  0.89260000  1
  C  C280  1  0.65540000  0.74210000  0.97770000  1
  C  C281  1  0.65480000  0.61670000  0.88460000  1
  C  C282  1  0.65240000  0.40140000  0.01210000  1
  C  C283  1  0.64140000  0.91690000  0.57830000  1
  C  C284  1  0.63830000  0.71800000  0.85170000  1
  C  C285  1  0.62850000  0.97180000  0.60170000  1
  C  C286  1  0.62770000  0.59710000  0.83360000  1
  C  C287  1  0.62650000  0.86360000  0.60710000  1
  C  C288  1  0.62400000  0.91680000  0.47210000  1
  C  C289  1  0.61100000  0.69720000  0.80180000  1
  C  C290  1  0.60530000  0.63580000  0.79370000  1
  C  C291  1  0.60410000  0.97470000  0.65720000  1
  C  C292  1  0.60290000  0.86630000  0.66270000  1
  C  C293  1  0.59190000  0.92280000  0.68810000  1
  C  C294  1  0.57420000  0.61380000  0.73950000  1
  C  C295  1  0.57090000  0.42630000  0.37950000  1
  C  C296  1  0.57070000  0.31430000  0.38490000  1
  C  C297  1  0.57030000  0.37280000  0.41000000  1
  C  C298  1  0.56990000  0.37860000  0.46820000  1
  C  C299  1  0.56860000  0.43470000  0.49350000  1
  C  C300  1  0.56720000  0.92880000  0.74570000  1
  C  C301  1  0.56570000  0.48140000  0.40310000  1
  C  C302  1  0.56210000  0.48540000  0.46190000  1
  C  C303  1  0.56180000  0.59610000  0.46980000  1
  C  C304  1  0.55380000  0.94980000  0.01670000  1
  C  C305  1  0.55020000  0.22080000  0.12730000  1
  C  C306  1  0.54680000  0.10800000  0.12420000  1
  C  C307  1  0.54460000  0.16400000  0.09840000  1
  C  C308  1  0.53980000  0.05580000  0.09440000  1
  C  C309  1  0.53720000  0.16670000  0.04060000  1
  C  C310  1  0.53140000  0.11330000  0.00880000  1
  C  C311  1  0.53050000  0.05950000  0.03600000  1
  C  C312  1  0.53000000  0.91290000  0.97590000  1
  C  C313  1  0.52950000  0.63600000  0.50720000  1
  C  C314  1  0.51470000  0.49950000  0.04310000  1
  C  C315  1  0.50540000  0.54700000  0.53550000  1
  C  C316  1  0.49460000  0.04700000  0.46450000  1
  C  C317  1  0.48530000  0.99950000  0.95690000  1
  C  C318  1  0.47050000  0.13600000  0.49280000  1
  C  C319  1  0.47000000  0.41290000  0.02410000  1
  C  C320  1  0.46950000  0.55950000  0.96400000  1
  C  C321  1  0.46860000  0.61330000  0.99120000  1
  C  C322  1  0.46280000  0.66666667  0.95940000  1
  C  C323  1  0.46020000  0.55580000  0.90560000  1
  C  C324  1  0.45540000  0.66400000  0.90160000  1
  C  C325  1  0.45320000  0.60800000  0.87580000  1
  C  C326  1  0.44980000  0.72080000  0.87270000  1
  C  C327  1  0.44620000  0.44980000  0.98330000  1
  C  C328  1  0.43820000  0.09610000  0.53020000  1
  C  C329  1  0.43790000  0.98540000  0.53810000  1
  C  C330  1  0.43430000  0.98140000  0.59690000  1
  C  C331  1  0.43280000  0.42880000  0.25430000  1
  C  C332  1  0.43140000  0.93470000  0.50650000  1
  C  C333  1  0.43010000  0.87860000  0.53180000  1
  C  C334  1  0.42970000  0.87280000  0.59000000  1
  C  C335  1  0.42930000  0.81430000  0.61510000  1
  C  C336  1  0.42910000  0.92630000  0.62050000  1
  C  C337  1  0.42580000  0.11380000  0.26050000  1
  C  C338  1  0.40810000  0.42280000  0.31190000  1
  C  C339  1  0.39710000  0.36630000  0.33730000  1
  C  C340  1  0.39590000  0.47470000  0.34280000  1
  C  C341  1  0.39470000  0.13580000  0.20630000  1
  C  C342  1  0.38900000  0.19720000  0.19820000  1
  C  C343  1  0.37600000  0.41680000  0.52790000  1
  C  C344  1  0.37350000  0.36360000  0.39290000  1
  C  C345  1  0.37230000  0.09710000  0.16640000  1
  C  C346  1  0.37150000  0.47180000  0.39830000  1
  C  C347  1  0.36170000  0.21800000  0.14830000  1
  C  C348  1  0.35860000  0.41690000  0.42170000  1
  C  C349  1  0.34760000  0.90140000  0.98790000  1
  C  C350  1  0.34520000  0.11670000  0.11540000  1
  C  C351  1  0.34460000  0.24210000  0.02230000  1
  C  C352  1  0.34020000  0.17770000  0.10740000  1
  C  C353  1  0.33950000  0.62200000  0.50190000  1
  C  C354  1  0.30890000  0.24280000  0.97200000  1
  C  C355  1  0.30200000  0.59740000  0.75220000  1
  C  C356  1  0.29400000  0.84780000  0.92720000  1
  C  C357  1  0.28580000  0.92160000  0.74110000  1
  C  C358  1  0.28220000  0.60700000  0.81170000  1
  C  C359  1  0.28030000  0.56000000  0.84950000  1
  C  C360  1  0.27630000  0.66050000  0.56800000  1
  C  C361  1  0.27540000  0.88470000  0.07210000  1
  C  C362  1  0.27260000  0.94340000  0.09210000  1
  C  C363  1  0.26780000  0.66540000  0.82960000  1
  C  C364  1  0.26560000  0.66200000  0.02230000  1
  C  C365  1  0.26550000  0.57190000  0.90540000  1
  C  C366  1  0.26550000  0.90860000  0.68380000  1
  C  C367  1  0.26430000  0.45470000  0.55120000  1
  C  C368  1  0.26380000  0.17310000  0.02430000  1
  C  C369  1  0.26260000  0.43940000  0.49420000  1
  C  C370  1  0.26060000  0.84860000  0.66300000  1
  C  C371  1  0.25920000  0.83940000  0.10930000  1
  C  C372  1  0.25820000  0.83930000  0.97790000  1
  C  C373  1  0.25520000  0.95430000  0.14730000  1
  C  C374  1  0.25160000  0.67640000  0.38580000  1
  C  C375  1  0.25020000  0.62780000  0.42310000  1
  C  C376  1  0.24980000  0.62780000  0.92310000  1
  C  C377  1  0.24840000  0.67640000  0.88580000  1
  C  C378  1  0.24480000  0.95430000  0.64730000  1
  C  C379  1  0.24180000  0.83930000  0.47790000  1
  C  C380  1  0.24080000  0.83940000  0.60930000  1
  C  C381  1  0.23940000  0.84860000  0.16300000  1
  C  C382  1  0.23740000  0.43940000  0.99420000  1
  C  C383  1  0.23620000  0.17310000  0.52430000  1
  C  C384  1  0.23570000  0.45470000  0.05120000  1
  C  C385  1  0.23450000  0.57190000  0.40540000  1
  C  C386  1  0.23450000  0.90860000  0.18380000  1
  C  C387  1  0.23440000  0.66200000  0.52230000  1
  C  C388  1  0.23220000  0.66540000  0.32960000  1
  C  C389  1  0.22740000  0.94340000  0.59210000  1
  C  C390  1  0.22460000  0.88470000  0.57210000  1
  C  C391  1  0.22370000  0.66050000  0.06800000  1
  C  C392  1  0.21970000  0.56000000  0.34950000  1
  C  C393  1  0.21780000  0.60700000  0.31170000  1
  C  C394  1  0.21420000  0.92160000  0.24110000  1
  C  C395  1  0.20600000  0.84780000  0.42720000  1
  C  C396  1  0.19800000  0.59740000  0.25220000  1
  C  C397  1  0.19110000  0.24280000  0.47200000  1
  C  C398  1  0.16050000  0.62200000  0.00190000  1
  C  C399  1  0.15980000  0.17770000  0.60740000  1
  C  C400  1  0.15540000  0.24210000  0.52230000  1
  C  C401  1  0.15480000  0.11670000  0.61540000  1
  C  C402  1  0.15240000  0.90140000  0.48790000  1
  C  C403  1  0.14140000  0.41690000  0.92170000  1
  C  C404  1  0.13830000  0.21800000  0.64830000  1
  C  C405  1  0.12850000  0.47180000  0.89830000  1
  C  C406  1  0.12770000  0.09710000  0.66640000  1
  C  C407  1  0.12650000  0.36360000  0.89290000  1
  C  C408  1  0.12400000  0.41680000  0.02790000  1
  C  C409  1  0.11100000  0.19720000  0.69820000  1
  C  C410  1  0.10530000  0.13580000  0.70630000  1
  C  C411  1  0.10410000  0.47470000  0.84280000  1
  C  C412  1  0.10290000  0.36630000  0.83730000  1
  C  C413  1  0.09190000  0.42280000  0.81190000  1
  C  C414  1  0.07420000  0.11380000  0.76050000  1
  C  C415  1  0.07090000  0.92630000  0.12050000  1
  C  C416  1  0.07070000  0.81430000  0.11510000  1
  C  C417  1  0.07030000  0.87280000  0.09000000  1
  C  C418  1  0.06990000  0.87860000  0.03180000  1
  C  C419  1  0.06860000  0.93470000  0.00650000  1
  C  C420  1  0.06720000  0.42880000  0.75430000  1
  C  C421  1  0.06570000  0.98140000  0.09690000  1
  C  C422  1  0.06210000  0.98540000  0.03810000  1
  C  C423  1  0.06180000  0.09610000  0.03020000  1
  C  C424  1  0.05380000  0.44980000  0.48330000  1
  C  C425  1  0.05020000  0.72080000  0.37270000  1
  C  C426  1  0.04680000  0.60800000  0.37580000  1
  C  C427  1  0.04460000  0.66400000  0.40160000  1
  C  C428  1  0.03980000  0.55580000  0.40560000  1
  C  C429  1  0.03720000  0.66666667  0.45940000  1
  C  C430  1  0.03140000  0.61330000  0.49120000  1
  C  C431  1  0.03050000  0.55950000  0.46400000  1
  C  C432  1  0.03000000  0.41290000  0.52410000  1
  C  C433  1  0.02950000  0.13600000  0.99280000  1
  C  C434  1  0.01470000  0.99950000  0.45690000  1
  C  C435  1  0.00540000  0.04700000  0.96450000  1
  N  N436  1  0.99660000  0.10350000  0.95160000  1
  N  N437  1  0.99630000  0.92830000  0.32060000  1
  N  N438  1  0.99180000  0.60740000  0.16620000  1
  N  N439  1  0.99110000  0.90480000  0.26810000  1
  N  N440  1  0.98810000  0.44440000  0.56240000  1
  N  N441  1  0.98300000  0.63970000  0.21430000  1
  N  N442  1  0.97600000  0.00470000  0.50450000  1
  N  N443  1  0.95710000  0.27300000  0.60030000  1
  N  N444  1  0.95110000  0.54180000  0.98910000  1
  N  N445  1  0.94770000  0.31480000  0.63800000  1
  N  N446  1  0.94510000  0.56430000  0.16510000  1
  N  N447  1  0.94020000  0.96610000  0.32880000  1
  N  N448  1  0.93800000  0.29130000  0.68790000  1
  N  N449  1  0.93800000  0.23120000  0.68330000  1
  N  N450  1  0.93060000  0.26430000  0.91470000  1
  N  N451  1  0.93000000  0.30290000  0.82950000  1
  N  N452  1  0.92930000  0.22030000  0.87580000  1
  N  N453  1  0.92890000  0.24270000  0.82510000  1
  N  N454  1  0.90260000  0.56760000  0.21090000  1
  N  N455  1  0.90120000  0.96740000  0.28170000  1
  N  N456  1  0.85410000  0.10310000  0.82680000  1
  N  N457  1  0.85170000  0.12750000  0.77640000  1
  N  N458  1  0.85130000  0.38780000  0.56460000  1
  N  N459  1  0.84460000  0.41970000  0.68060000  1
  N  N460  1  0.84340000  0.13430000  0.94390000  1
  N  N461  1  0.84310000  0.39720000  0.73430000  1
  N  N462  1  0.83440000  0.94070000  0.92800000  1
  N  N463  1  0.83170000  0.91600000  0.02020000  1
  N  N464  1  0.81450000  0.69790000  0.44560000  1
  N  N465  1  0.81000000  0.05670000  0.82920000  1
  N  N466  1  0.79320000  0.37520000  0.48440000  1
  N  N467  1  0.79090000  0.45850000  0.67470000  1
  N  N468  1  0.77580000  0.05250000  0.77980000  1
  N  N469  1  0.77380000  0.13730000  0.02050000  1
  N  N470  1  0.75620000  0.70040000  0.52640000  1
  N  N471  1  0.75240000  0.45910000  0.72360000  1
  N  N472  1  0.74760000  0.45910000  0.22360000  1
  N  N473  1  0.74380000  0.70040000  0.02640000  1
  N  N474  1  0.72620000  0.13730000  0.52050000  1
  N  N475  1  0.72420000  0.05250000  0.27980000  1
  N  N476  1  0.70910000  0.45850000  0.17470000  1
  N  N477  1  0.70680000  0.37520000  0.98440000  1
  N  N478  1  0.69000000  0.05670000  0.32920000  1
  N  N479  1  0.68550000  0.69790000  0.94560000  1
  N  N480  1  0.66830000  0.91600000  0.52020000  1
  N  N481  1  0.66560000  0.94070000  0.42800000  1
  N  N482  1  0.65690000  0.39720000  0.23430000  1
  N  N483  1  0.65660000  0.13430000  0.44390000  1
  N  N484  1  0.65540000  0.41970000  0.18060000  1
  N  N485  1  0.64870000  0.38780000  0.06460000  1
  N  N486  1  0.64830000  0.12750000  0.27640000  1
  N  N487  1  0.64590000  0.10310000  0.32680000  1
  N  N488  1  0.59880000  0.96740000  0.78170000  1
  N  N489  1  0.59740000  0.56760000  0.71090000  1
  N  N490  1  0.57110000  0.24270000  0.32510000  1
  N  N491  1  0.57070000  0.22030000  0.37580000  1
  N  N492  1  0.57000000  0.30290000  0.32950000  1
  N  N493  1  0.56940000  0.26430000  0.41470000  1
  N  N494  1  0.56200000  0.29130000  0.18790000  1
  N  N495  1  0.56200000  0.23120000  0.18330000  1
  N  N496  1  0.55980000  0.96610000  0.82880000  1
  N  N497  1  0.55490000  0.56430000  0.66510000  1
  N  N498  1  0.55230000  0.31480000  0.13800000  1
  N  N499  1  0.54890000  0.54180000  0.48910000  1
  N  N500  1  0.54290000  0.27300000  0.10030000  1
  N  N501  1  0.52400000  0.00470000  0.00450000  1
  N  N502  1  0.51700000  0.63970000  0.71430000  1
  N  N503  1  0.51190000  0.44440000  0.06240000  1
  N  N504  1  0.50890000  0.90480000  0.76810000  1
  N  N505  1  0.50820000  0.60740000  0.66620000  1
  N  N506  1  0.50370000  0.92830000  0.82060000  1
  N  N507  1  0.50340000  0.10350000  0.45160000  1
  N  N508  1  0.49660000  0.60350000  0.54840000  1
  N  N509  1  0.49630000  0.42830000  0.17940000  1
  N  N510  1  0.49180000  0.10740000  0.33380000  1
  N  N511  1  0.49110000  0.40480000  0.23190000  1
  N  N512  1  0.48810000  0.94440000  0.93760000  1
  N  N513  1  0.48300000  0.13970000  0.28570000  1
  N  N514  1  0.47600000  0.50470000  0.99550000  1
  N  N515  1  0.45710000  0.77300000  0.89970000  1
  N  N516  1  0.45110000  0.04180000  0.51090000  1
  N  N517  1  0.44770000  0.81480000  0.86200000  1
  N  N518  1  0.44510000  0.06430000  0.33490000  1
  N  N519  1  0.44020000  0.46610000  0.17120000  1
  N  N520  1  0.43800000  0.73120000  0.81670000  1
  N  N521  1  0.43800000  0.79130000  0.81210000  1
  N  N522  1  0.43060000  0.76430000  0.58530000  1
  N  N523  1  0.43000000  0.80290000  0.67050000  1
  N  N524  1  0.42930000  0.72030000  0.62420000  1
  N  N525  1  0.42890000  0.74270000  0.67490000  1
  N  N526  1  0.40260000  0.06760000  0.28910000  1
  N  N527  1  0.40120000  0.46740000  0.21830000  1
  N  N528  1  0.35410000  0.60310000  0.67320000  1
  N  N529  1  0.35170000  0.62750000  0.72360000  1
  N  N530  1  0.35130000  0.88780000  0.93540000  1
  N  N531  1  0.34460000  0.91970000  0.81940000  1
  N  N532  1  0.34340000  0.63430000  0.55610000  1
  N  N533  1  0.34310000  0.89720000  0.76570000  1
  N  N534  1  0.33440000  0.44070000  0.57200000  1
  N  N535  1  0.33170000  0.41600000  0.47980000  1
  N  N536  1  0.31450000  0.19790000  0.05440000  1
  N  N537  1  0.31000000  0.55670000  0.67080000  1
  N  N538  1  0.29320000  0.87520000  0.01560000  1
  N  N539  1  0.29090000  0.95850000  0.82530000  1
  N  N540  1  0.27580000  0.55250000  0.72020000  1
  N  N541  1  0.27380000  0.63730000  0.47950000  1
  N  N542  1  0.25620000  0.20040000  0.97360000  1
  N  N543  1  0.25240000  0.95910000  0.77640000  1
  N  N544  1  0.24760000  0.95910000  0.27640000  1
  N  N545  1  0.24380000  0.20040000  0.47360000  1
  N  N546  1  0.22620000  0.63730000  0.97950000  1
  N  N547  1  0.22420000  0.55250000  0.22020000  1
  N  N548  1  0.20910000  0.95850000  0.32530000  1
  N  N549  1  0.20680000  0.87520000  0.51560000  1
  N  N550  1  0.19000000  0.55670000  0.17080000  1
  N  N551  1  0.18550000  0.19790000  0.55440000  1
  N  N552  1  0.16830000  0.41600000  0.97980000  1
  N  N553  1  0.16560000  0.44070000  0.07200000  1
  N  N554  1  0.15690000  0.89720000  0.26570000  1
  N  N555  1  0.15660000  0.63430000  0.05610000  1
  N  N556  1  0.15540000  0.91970000  0.31940000  1
  N  N557  1  0.14870000  0.88780000  0.43540000  1
  N  N558  1  0.14830000  0.62750000  0.22360000  1
  N  N559  1  0.14590000  0.60310000  0.17320000  1
  N  N560  1  0.09880000  0.46740000  0.71830000  1
  N  N561  1  0.09740000  0.06760000  0.78910000  1
  N  N562  1  0.07110000  0.74270000  0.17490000  1
  N  N563  1  0.07070000  0.72030000  0.12420000  1
  N  N564  1  0.07000000  0.80290000  0.17050000  1
  N  N565  1  0.06940000  0.76430000  0.08530000  1
  N  N566  1  0.06200000  0.73120000  0.31670000  1
  N  N567  1  0.06200000  0.79130000  0.31210000  1
  N  N568  1  0.05980000  0.46610000  0.67120000  1
  N  N569  1  0.05490000  0.06430000  0.83490000  1
  N  N570  1  0.05230000  0.81480000  0.36200000  1
  N  N571  1  0.04890000  0.04180000  0.01090000  1
  N  N572  1  0.04290000  0.77300000  0.39970000  1
  N  N573  1  0.02400000  0.50470000  0.49550000  1
  N  N574  1  0.01700000  0.13970000  0.78570000  1
  N  N575  1  0.01190000  0.94440000  0.43760000  1
  N  N576  1  0.00890000  0.40480000  0.73190000  1
  N  N577  1  0.00820000  0.10740000  0.83380000  1
  N  N578  1  0.00370000  0.42830000  0.67940000  1
  N  N579  1  0.00340000  0.60350000  0.04840000  1
