# generated using pymatgen
data_CeH9(C2O)6
_symmetry_space_group_name_H-M   'P 1'
_cell_length_a   11.81200000
_cell_length_b   12.44400000
_cell_length_c   12.52200000
_cell_angle_alpha   118.94900000
_cell_angle_beta   108.30000000
_cell_angle_gamma   98.38700000
_symmetry_Int_Tables_number   1
_chemical_formula_structural   CeH9(C2O)6
_chemical_formula_sum   'Ce4 H36 C48 O24'
_cell_volume   1427.51080518
_cell_formula_units_Z   4
loop_
 _symmetry_equiv_pos_site_id
 _symmetry_equiv_pos_as_xyz
  1  'x, y, z'
loop_
 _atom_site_type_symbol
 _atom_site_label
 _atom_site_symmetry_multiplicity
 _atom_site_fract_x
 _atom_site_fract_y
 _atom_site_fract_z
 _atom_site_occupancy
  Ce  Ce0  1  0.19730000  0.24333000  0.76396000  1
  Ce  Ce1  1  0.47831000  0.17776000  0.00985000  1
  Ce  Ce2  1  0.52169000  0.82224000  0.99015000  1
  Ce  Ce3  1  0.80270000  0.75667000  0.23604000  1
  H  H4  1  0.07460000  0.96750000  0.91650000  1
  H  H5  1  0.08790000  0.32740000  0.41930000  1
  H  H6  1  0.08790000  0.83360000  0.81730000  1
  H  H7  1  0.12340000  0.99180000  0.16250000  1
  H  H8  1  0.15130000  0.51020000  0.34430000  1
  H  H9  1  0.15300000  0.71810000  0.53850000  1
  H  H10  1  0.16110000  0.32190000  0.17710000  1
  H  H11  1  0.22080000  0.85840000  0.56970000  1
  H  H12  1  0.27360000  0.52180000  0.59180000  1
  H  H13  1  0.31000000  0.34500000  0.22290000  1
  H  H14  1  0.32310000  0.96750000  0.20560000  1
  H  H15  1  0.34210000  0.87300000  0.44760000  1
  H  H16  1  0.40720000  0.55520000  0.20500000  1
  H  H17  1  0.41200000  0.51810000  0.60600000  1
  H  H18  1  0.41860000  0.19170000  0.61680000  1
  H  H19  1  0.43460000  0.30350000  0.48240000  1
  H  H20  1  0.44520000  0.07980000  0.34540000  1
  H  H21  1  0.49180000  0.09160000  0.60490000  1
  H  H22  1  0.50820000  0.90840000  0.39510000  1
  H  H23  1  0.55480000  0.92020000  0.65460000  1
  H  H24  1  0.56540000  0.69650000  0.51760000  1
  H  H25  1  0.58140000  0.80830000  0.38320000  1
  H  H26  1  0.58800000  0.48190000  0.39400000  1
  H  H27  1  0.59280000  0.44480000  0.79500000  1
  H  H28  1  0.65790000  0.12700000  0.55240000  1
  H  H29  1  0.67690000  0.03250000  0.79440000  1
  H  H30  1  0.69000000  0.65500000  0.77710000  1
  H  H31  1  0.72640000  0.47820000  0.40820000  1
  H  H32  1  0.77920000  0.14160000  0.43030000  1
  H  H33  1  0.83890000  0.67810000  0.82290000  1
  H  H34  1  0.84700000  0.28190000  0.46150000  1
  H  H35  1  0.84870000  0.48980000  0.65570000  1
  H  H36  1  0.87660000  0.00820000  0.83750000  1
  H  H37  1  0.91210000  0.16640000  0.18270000  1
  H  H38  1  0.91210000  0.67260000  0.58070000  1
  H  H39  1  0.92540000  0.03250000  0.08350000  1
  C  C40  1  0.04230000  0.75410000  0.40310000  1
  C  C41  1  0.06140000  0.90710000  0.82190000  1
  C  C42  1  0.08220000  0.14990000  0.27170000  1
  C  C43  1  0.13990000  0.27880000  0.39170000  1
  C  C44  1  0.15190000  0.98130000  0.79550000  1
  C  C45  1  0.16110000  0.08090000  0.23850000  1
  C  C46  1  0.16830000  0.76490000  0.49620000  1
  C  C47  1  0.21010000  0.56500000  0.33810000  1
  C  C48  1  0.21780000  0.30890000  0.03350000  1
  C  C49  1  0.23730000  0.70390000  0.41150000  1
  C  C50  1  0.23900000  0.36480000  0.17770000  1
  C  C51  1  0.26980000  0.33450000  0.46870000  1
  C  C52  1  0.27060000  0.51260000  0.25840000  1
  C  C53  1  0.29160000  0.13600000  0.31110000  1
  C  C54  1  0.32630000  0.78130000  0.40230000  1
  C  C55  1  0.33110000  0.47250000  0.59860000  1
  C  C56  1  0.34460000  0.26430000  0.42890000  1
  C  C57  1  0.35880000  0.47600000  0.72660000  1
  C  C58  1  0.36290000  0.59300000  0.25660000  1
  C  C59  1  0.37380000  0.06290000  0.26490000  1
  C  C60  1  0.39180000  0.72760000  0.32880000  1
  C  C61  1  0.42840000  0.10000000  0.18770000  1
  C  C62  1  0.49650000  0.79400000  0.20580000  1
  C  C63  1  0.49840000  0.18360000  0.66350000  1
  C  C64  1  0.50160000  0.81640000  0.33650000  1
  C  C65  1  0.50350000  0.20600000  0.79420000  1
  C  C66  1  0.57160000  0.90000000  0.81230000  1
  C  C67  1  0.60820000  0.27240000  0.67120000  1
  C  C68  1  0.62620000  0.93710000  0.73510000  1
  C  C69  1  0.63710000  0.40700000  0.74340000  1
  C  C70  1  0.64120000  0.52400000  0.27340000  1
  C  C71  1  0.65540000  0.73570000  0.57110000  1
  C  C72  1  0.66890000  0.52750000  0.40140000  1
  C  C73  1  0.67370000  0.21870000  0.59770000  1
  C  C74  1  0.70840000  0.86400000  0.68890000  1
  C  C75  1  0.72940000  0.48740000  0.74160000  1
  C  C76  1  0.73020000  0.66550000  0.53130000  1
  C  C77  1  0.76100000  0.63520000  0.82230000  1
  C  C78  1  0.76270000  0.29610000  0.58850000  1
  C  C79  1  0.78220000  0.69110000  0.96650000  1
  C  C80  1  0.78990000  0.43500000  0.66190000  1
  C  C81  1  0.83170000  0.23510000  0.50380000  1
  C  C82  1  0.83890000  0.91910000  0.76150000  1
  C  C83  1  0.84810000  0.01870000  0.20450000  1
  C  C84  1  0.86010000  0.72120000  0.60830000  1
  C  C85  1  0.91780000  0.85010000  0.72830000  1
  C  C86  1  0.93860000  0.09290000  0.17810000  1
  C  C87  1  0.95770000  0.24590000  0.59690000  1
  O  O88  1  0.04190000  0.83560000  0.36910000  1
  O  O89  1  0.06220000  0.33520000  0.64330000  1
  O  O90  1  0.11020000  0.02480000  0.72580000  1
  O  O91  1  0.11510000  0.29350000  0.94620000  1
  O  O92  1  0.26690000  0.99780000  0.85650000  1
  O  O93  1  0.30440000  0.27690000  0.99890000  1
  O  O94  1  0.33140000  0.36870000  0.71920000  1
  O  O95  1  0.39690000  0.18630000  0.80110000  1
  O  O96  1  0.39700000  0.76760000  0.11230000  1
  O  O97  1  0.40920000  0.58500000  0.84160000  1
  O  O98  1  0.42640000  0.20300000  0.19270000  1
  O  O99  1  0.47210000  0.02280000  0.11360000  1
  O  O100  1  0.52790000  0.97720000  0.88640000  1
  O  O101  1  0.57360000  0.79700000  0.80730000  1
  O  O102  1  0.59080000  0.41500000  0.15840000  1
  O  O103  1  0.60300000  0.23240000  0.88770000  1
  O  O104  1  0.60310000  0.81370000  0.19890000  1
  O  O105  1  0.66860000  0.63130000  0.28080000  1
  O  O106  1  0.69560000  0.72310000  0.00110000  1
  O  O107  1  0.73310000  0.00220000  0.14350000  1
  O  O108  1  0.88490000  0.70650000  0.05380000  1
  O  O109  1  0.88980000  0.97520000  0.27420000  1
  O  O110  1  0.93780000  0.66480000  0.35670000  1
  O  O111  1  0.95810000  0.16440000  0.63090000  1
