# generated using pymatgen
data_CeP4H8Ru2(C2O7)2
_symmetry_space_group_name_H-M   'P 1'
_cell_length_a   9.69210000
_cell_length_b   9.69210000
_cell_length_c   15.69380000
_cell_angle_alpha   92.70170000
_cell_angle_beta   92.70170000
_cell_angle_gamma   99.01960000
_symmetry_Int_Tables_number   1
_chemical_formula_structural   CeP4H8Ru2(C2O7)2
_chemical_formula_sum   'Ce2 P8 H16 Ru4 C8 O28'
_cell_volume   1452.15479692
_cell_formula_units_Z   2
loop_
 _symmetry_equiv_pos_site_id
 _symmetry_equiv_pos_as_xyz
  1  'x, y, z'
loop_
 _atom_site_type_symbol
 _atom_site_label
 _atom_site_symmetry_multiplicity
 _atom_site_fract_x
 _atom_site_fract_y
 _atom_site_fract_z
 _atom_site_occupancy
  Ce  Ce0  1  0.01140000  0.98860000  0.25000000  1
  Ce  Ce1  1  0.98860000  0.01140000  0.75000000  1
  P  P2  1  0.64866000  0.97408000  0.15165000  1
  P  P3  1  0.64358000  0.95472000  0.85610000  1
  P  P4  1  0.97408000  0.64866000  0.65165000  1
  P  P5  1  0.95472000  0.64358000  0.35610000  1
  P  P6  1  0.04528000  0.35642000  0.64390000  1
  P  P7  1  0.02592000  0.35134000  0.34835000  1
  P  P8  1  0.35642000  0.04528000  0.14390000  1
  P  P9  1  0.35134000  0.02592000  0.84835000  1
  H  H10  1  0.36510000  0.87290000  0.68930000  1
  H  H11  1  0.52180000  0.84000000  0.68830000  1
  H  H12  1  0.50800000  0.82400000  0.27100000  1
  H  H13  1  0.41970000  0.77490000  0.75840000  1
  H  H14  1  0.12710000  0.63490000  0.81070000  1
  H  H15  1  0.22510000  0.58030000  0.74160000  1
  H  H16  1  0.84000000  0.52180000  0.18830000  1
  H  H17  1  0.82400000  0.50800000  0.77100000  1
  H  H18  1  0.17600000  0.49200000  0.22900000  1
  H  H19  1  0.16000000  0.47820000  0.81170000  1
  H  H20  1  0.77490000  0.41970000  0.25840000  1
  H  H21  1  0.87290000  0.36510000  0.18930000  1
  H  H22  1  0.58030000  0.22510000  0.24160000  1
  H  H23  1  0.49200000  0.17600000  0.72900000  1
  H  H24  1  0.47820000  0.16000000  0.31170000  1
  H  H25  1  0.63490000  0.12710000  0.31070000  1
  Ru  Ru26  1  0.45378000  0.87994000  0.99793000  1
  Ru  Ru27  1  0.12006000  0.54622000  0.50207000  1
  Ru  Ru28  1  0.87994000  0.45378000  0.49793000  1
  Ru  Ru29  1  0.54622000  0.12006000  0.00207000  1
  C  C30  1  0.49600000  0.98480000  0.78500000  1
  C  C31  1  0.44620000  0.85680000  0.72490000  1
  C  C32  1  0.14320000  0.55380000  0.77510000  1
  C  C33  1  0.01520000  0.50400000  0.71500000  1
  C  C34  1  0.98480000  0.49600000  0.28500000  1
  C  C35  1  0.85680000  0.44620000  0.22490000  1
  C  C36  1  0.55380000  0.14320000  0.27510000  1
  C  C37  1  0.50400000  0.01520000  0.21500000  1
  O  O38  1  0.76781000  0.95005000  0.21076000  1
  O  O39  1  0.75984000  0.92278000  0.80238000  1
  O  O40  1  0.31164000  0.91088000  0.08536000  1
  O  O41  1  0.30997000  0.89875000  0.90284000  1
  O  O42  1  0.44983000  0.89857000  0.26433000  1
  O  O43  1  0.59229000  0.84389000  0.09246000  1
  O  O44  1  0.58893000  0.83193000  0.91091000  1
  O  O45  1  0.95005000  0.76781000  0.71076000  1
  O  O46  1  0.92278000  0.75984000  0.30238000  1
  O  O47  1  0.10125000  0.69003000  0.59716000  1
  O  O48  1  0.08912000  0.68836000  0.41464000  1
  O  O49  1  0.84389000  0.59229000  0.59246000  1
  O  O50  1  0.83193000  0.58893000  0.41091000  1
  O  O51  1  0.10143000  0.55017000  0.23567000  1
  O  O52  1  0.89857000  0.44983000  0.76433000  1
  O  O53  1  0.16807000  0.41107000  0.58909000  1
  O  O54  1  0.15611000  0.40771000  0.40754000  1
  O  O55  1  0.91088000  0.31164000  0.58536000  1
  O  O56  1  0.89875000  0.30997000  0.40284000  1
  O  O57  1  0.07722000  0.24016000  0.69762000  1
  O  O58  1  0.04995000  0.23219000  0.28924000  1
  O  O59  1  0.41107000  0.16807000  0.08909000  1
  O  O60  1  0.40771000  0.15611000  0.90754000  1
  O  O61  1  0.55017000  0.10143000  0.73567000  1
  O  O62  1  0.69003000  0.10125000  0.09716000  1
  O  O63  1  0.68836000  0.08912000  0.91464000  1
  O  O64  1  0.24016000  0.07722000  0.19762000  1
  O  O65  1  0.23219000  0.04995000  0.78924000  1
