# generated using pymatgen
data_Ca2P3H17(C8O7)3
_symmetry_space_group_name_H-M   'P 1'
_cell_length_a   6.95340000
_cell_length_b   22.63800000
_cell_length_c   23.11200000
_cell_angle_alpha   90.00000000
_cell_angle_beta   90.00000000
_cell_angle_gamma   90.00000000
_symmetry_Int_Tables_number   1
_chemical_formula_structural   Ca2P3H17(C8O7)3
_chemical_formula_sum   'Ca8 P12 H68 C96 O84'
_cell_volume   3638.08463135
_cell_formula_units_Z   4
loop_
 _symmetry_equiv_pos_site_id
 _symmetry_equiv_pos_as_xyz
  1  'x, y, z'
loop_
 _atom_site_type_symbol
 _atom_site_label
 _atom_site_symmetry_multiplicity
 _atom_site_fract_x
 _atom_site_fract_y
 _atom_site_fract_z
 _atom_site_occupancy
  Ca  Ca0  1  0.93570000  0.00113000  0.03153000  1
  Ca  Ca1  1  0.56320000  0.49093000  0.04293000  1
  Ca  Ca2  1  0.56320000  0.99093000  0.45707000  1
  Ca  Ca3  1  0.93570000  0.50113000  0.46847000  1
  Ca  Ca4  1  0.06430000  0.00113000  0.53153000  1
  Ca  Ca5  1  0.43680000  0.49093000  0.54293000  1
  Ca  Ca6  1  0.43680000  0.99093000  0.95707000  1
  Ca  Ca7  1  0.06430000  0.50113000  0.96847000  1
  P  P8  1  0.91840000  0.84265000  0.03443000  1
  P  P9  1  0.43750000  0.02588000  0.08516000  1
  P  P10  1  0.06400000  0.46294000  0.09521000  1
  P  P11  1  0.06400000  0.96294000  0.40479000  1
  P  P12  1  0.43750000  0.52588000  0.41484000  1
  P  P13  1  0.91840000  0.34265000  0.46557000  1
  P  P14  1  0.08160000  0.84265000  0.53443000  1
  P  P15  1  0.56250000  0.02588000  0.58516000  1
  P  P16  1  0.93600000  0.46294000  0.59521000  1
  P  P17  1  0.93600000  0.96294000  0.90479000  1
  P  P18  1  0.56250000  0.52588000  0.91484000  1
  P  P19  1  0.08160000  0.34265000  0.96557000  1
  H  H20  1  0.72950000  0.73280000  0.01490000  1
  H  H21  1  0.15150000  0.79190000  0.02370000  1
  H  H22  1  0.12030000  0.37600000  0.09000000  1
  H  H23  1  0.35500000  0.90380000  0.11270000  1
  H  H24  1  0.33220000  0.10080000  0.11970000  1
  H  H25  1  0.12760000  0.58180000  0.12240000  1
  H  H26  1  0.91600000  0.92130000  0.14160000  1
  H  H27  1  0.26150000  0.76690000  0.15340000  1
  H  H28  1  0.59490000  0.56940000  0.15690000  1
  H  H29  1  0.87740000  0.82490000  0.15770000  1
  H  H30  1  0.62650000  0.66310000  0.17250000  1
  H  H31  1  0.81130000  0.30060000  0.20310000  1
  H  H32  1  0.53260000  0.04660000  0.20360000  1
  H  H33  1  0.04600000  0.09870000  0.20540000  1
  H  H34  1  0.45090000  0.39060000  0.21410000  1
  H  H35  1  0.97950000  0.43930000  0.21660000  1
  H  H36  1  0.15600000  0.22620000  0.24950000  1
  H  H37  1  0.15600000  0.72620000  0.25050000  1
  H  H38  1  0.97950000  0.93930000  0.28340000  1
  H  H39  1  0.45090000  0.89060000  0.28590000  1
  H  H40  1  0.04600000  0.59870000  0.29460000  1
  H  H41  1  0.53260000  0.54660000  0.29640000  1
  H  H42  1  0.81130000  0.80060000  0.29690000  1
  H  H43  1  0.62650000  0.16310000  0.32750000  1
  H  H44  1  0.87740000  0.32490000  0.34230000  1
  H  H45  1  0.59490000  0.06940000  0.34310000  1
  H  H46  1  0.26150000  0.26690000  0.34660000  1
  H  H47  1  0.91600000  0.42130000  0.35840000  1
  H  H48  1  0.12760000  0.08180000  0.37760000  1
  H  H49  1  0.33220000  0.60080000  0.38030000  1
  H  H50  1  0.35500000  0.40380000  0.38730000  1
  H  H51  1  0.12030000  0.87600000  0.41000000  1
  H  H52  1  0.15150000  0.29190000  0.47630000  1
  H  H53  1  0.72950000  0.23280000  0.48510000  1
  H  H54  1  0.27050000  0.73280000  0.51490000  1
  H  H55  1  0.84850000  0.79190000  0.52370000  1
  H  H56  1  0.87970000  0.37600000  0.59000000  1
  H  H57  1  0.64500000  0.90380000  0.61270000  1
  H  H58  1  0.66780000  0.10080000  0.61970000  1
  H  H59  1  0.87240000  0.58180000  0.62240000  1
  H  H60  1  0.08400000  0.92130000  0.64160000  1
  H  H61  1  0.73850000  0.76690000  0.65340000  1
  H  H62  1  0.40510000  0.56940000  0.65690000  1
  H  H63  1  0.12260000  0.82490000  0.65770000  1
  H  H64  1  0.37350000  0.66310000  0.67250000  1
  H  H65  1  0.18870000  0.30060000  0.70310000  1
  H  H66  1  0.46740000  0.04660000  0.70360000  1
  H  H67  1  0.95400000  0.09870000  0.70540000  1
  H  H68  1  0.54910000  0.39060000  0.71410000  1
  H  H69  1  0.02050000  0.43930000  0.71660000  1
  H  H70  1  0.84400000  0.22620000  0.74950000  1
  H  H71  1  0.84400000  0.72620000  0.75050000  1
  H  H72  1  0.02050000  0.93930000  0.78340000  1
  H  H73  1  0.54910000  0.89060000  0.78590000  1
  H  H74  1  0.95400000  0.59870000  0.79460000  1
  H  H75  1  0.46740000  0.54660000  0.79640000  1
  H  H76  1  0.18870000  0.80060000  0.79690000  1
  H  H77  1  0.37350000  0.16310000  0.82750000  1
  H  H78  1  0.12260000  0.32490000  0.84230000  1
  H  H79  1  0.40510000  0.06940000  0.84310000  1
  H  H80  1  0.73850000  0.26690000  0.84660000  1
  H  H81  1  0.08400000  0.42130000  0.85840000  1
  H  H82  1  0.87240000  0.08180000  0.87760000  1
  H  H83  1  0.66780000  0.60080000  0.88030000  1
  H  H84  1  0.64500000  0.40380000  0.88730000  1
  H  H85  1  0.87970000  0.87600000  0.91000000  1
  H  H86  1  0.84850000  0.29190000  0.97630000  1
  H  H87  1  0.27050000  0.23280000  0.98510000  1
  C  C88  1  0.73600000  0.73600000  0.05590000  1
  C  C89  1  0.56900000  0.63840000  0.05840000  1
  C  C90  1  0.81900000  0.78580000  0.08070000  1
  C  C91  1  0.66300000  0.69150000  0.08960000  1
  C  C92  1  0.82500000  0.79030000  0.14060000  1
  C  C93  1  0.39210000  0.92140000  0.14820000  1
  C  C94  1  0.67290000  0.69460000  0.14920000  1
  C  C95  1  0.44020000  0.98130000  0.15030000  1
  C  C96  1  0.09810000  0.56450000  0.15880000  1
  C  C97  1  0.05410000  0.50470000  0.16070000  1
  C  C98  1  0.75600000  0.74680000  0.17550000  1
  C  C99  1  0.95730000  0.99130000  0.17790000  1
  C  C100  1  0.55170000  0.49890000  0.18960000  1
  C  C101  1  0.39870000  0.88750000  0.19900000  1
  C  C102  1  0.33800000  0.82420000  0.19950000  1
  C  C103  1  0.49600000  0.00620000  0.20250000  1
  C  C104  1  0.16600000  0.66320000  0.20460000  1
  C  C105  1  0.10100000  0.60010000  0.20800000  1
  C  C106  1  0.00750000  0.48030000  0.21410000  1
  C  C107  1  0.00080000  0.01480000  0.23560000  1
  C  C108  1  0.04890000  0.07490000  0.23930000  1
  C  C109  1  0.74800000  0.74980000  0.24040000  1
  C  C110  1  0.49980000  0.47290000  0.24620000  1
  C  C111  1  0.45000000  0.41360000  0.24850000  1
  C  C112  1  0.45000000  0.91360000  0.25150000  1
  C  C113  1  0.49980000  0.97290000  0.25380000  1
  C  C114  1  0.74800000  0.24980000  0.25960000  1
  C  C115  1  0.04890000  0.57490000  0.26070000  1
  C  C116  1  0.00080000  0.51480000  0.26440000  1
  C  C117  1  0.00750000  0.98030000  0.28590000  1
  C  C118  1  0.10100000  0.10010000  0.29200000  1
  C  C119  1  0.16600000  0.16320000  0.29540000  1
  C  C120  1  0.49600000  0.50620000  0.29750000  1
  C  C121  1  0.33800000  0.32420000  0.30050000  1
  C  C122  1  0.39870000  0.38750000  0.30100000  1
  C  C123  1  0.55170000  0.99890000  0.31040000  1
  C  C124  1  0.95730000  0.49130000  0.32210000  1
  C  C125  1  0.75600000  0.24680000  0.32450000  1
  C  C126  1  0.05410000  0.00470000  0.33930000  1
  C  C127  1  0.09810000  0.06450000  0.34120000  1
  C  C128  1  0.44020000  0.48130000  0.34970000  1
  C  C129  1  0.67290000  0.19460000  0.35080000  1
  C  C130  1  0.39210000  0.42140000  0.35180000  1
  C  C131  1  0.82500000  0.29030000  0.35940000  1
  C  C132  1  0.66300000  0.19150000  0.41040000  1
  C  C133  1  0.81900000  0.28580000  0.41930000  1
  C  C134  1  0.56900000  0.13840000  0.44160000  1
  C  C135  1  0.73600000  0.23600000  0.44410000  1
  C  C136  1  0.26400000  0.73600000  0.55590000  1
  C  C137  1  0.43100000  0.63840000  0.55840000  1
  C  C138  1  0.18100000  0.78580000  0.58070000  1
  C  C139  1  0.33700000  0.69150000  0.58960000  1
  C  C140  1  0.17500000  0.79030000  0.64060000  1
  C  C141  1  0.60790000  0.92140000  0.64820000  1
  C  C142  1  0.32710000  0.69460000  0.64920000  1
  C  C143  1  0.55980000  0.98130000  0.65030000  1
  C  C144  1  0.90190000  0.56450000  0.65880000  1
  C  C145  1  0.94590000  0.50470000  0.66070000  1
  C  C146  1  0.24400000  0.74680000  0.67550000  1
  C  C147  1  0.04270000  0.99130000  0.67790000  1
  C  C148  1  0.44830000  0.49890000  0.68960000  1
  C  C149  1  0.60130000  0.88750000  0.69900000  1
  C  C150  1  0.66200000  0.82420000  0.69950000  1
  C  C151  1  0.50400000  0.00620000  0.70250000  1
  C  C152  1  0.83400000  0.66320000  0.70460000  1
  C  C153  1  0.89900000  0.60010000  0.70800000  1
  C  C154  1  0.99250000  0.48030000  0.71410000  1
  C  C155  1  0.99920000  0.01480000  0.73560000  1
  C  C156  1  0.95110000  0.07490000  0.73930000  1
  C  C157  1  0.25200000  0.74980000  0.74040000  1
  C  C158  1  0.50020000  0.47290000  0.74620000  1
  C  C159  1  0.55000000  0.41360000  0.74850000  1
  C  C160  1  0.55000000  0.91360000  0.75150000  1
  C  C161  1  0.50020000  0.97290000  0.75380000  1
  C  C162  1  0.25200000  0.24980000  0.75960000  1
  C  C163  1  0.95110000  0.57490000  0.76070000  1
  C  C164  1  0.99920000  0.51480000  0.76440000  1
  C  C165  1  0.99250000  0.98030000  0.78590000  1
  C  C166  1  0.89900000  0.10010000  0.79200000  1
  C  C167  1  0.83400000  0.16320000  0.79540000  1
  C  C168  1  0.50400000  0.50620000  0.79750000  1
  C  C169  1  0.66200000  0.32420000  0.80050000  1
  C  C170  1  0.60130000  0.38750000  0.80100000  1
  C  C171  1  0.44830000  0.99890000  0.81040000  1
  C  C172  1  0.04270000  0.49130000  0.82210000  1
  C  C173  1  0.24400000  0.24680000  0.82450000  1
  C  C174  1  0.94590000  0.00470000  0.83930000  1
  C  C175  1  0.90190000  0.06450000  0.84120000  1
  C  C176  1  0.55980000  0.48130000  0.84970000  1
  C  C177  1  0.32710000  0.19460000  0.85080000  1
  C  C178  1  0.60790000  0.42140000  0.85180000  1
  C  C179  1  0.17500000  0.29030000  0.85940000  1
  C  C180  1  0.33700000  0.19150000  0.91040000  1
  C  C181  1  0.18100000  0.28580000  0.91930000  1
  C  C182  1  0.43100000  0.13840000  0.94160000  1
  C  C183  1  0.26400000  0.23600000  0.94410000  1
  O  O184  1  0.46280000  0.64660000  0.01770000  1
  O  O185  1  0.18910000  0.33990000  0.02340000  1
  O  O186  1  0.13610000  0.82870000  0.02600000  1
  O  O187  1  0.61190000  0.01480000  0.04870000  1
  O  O188  1  0.25860000  0.01350000  0.04920000  1
  O  O189  1  0.88390000  0.47320000  0.05850000  1
  O  O190  1  0.23460000  0.48090000  0.06000000  1
  O  O191  1  0.91360000  0.90160000  0.06590000  1
  O  O192  1  0.58660000  0.58700000  0.08390000  1
  O  O193  1  0.44290000  0.09080000  0.10890000  1
  O  O194  1  0.07740000  0.39740000  0.11680000  1
  O  O195  1  0.95080000  0.02140000  0.13460000  1
  O  O196  1  0.56150000  0.46930000  0.14510000  1
  O  O197  1  0.30270000  0.80160000  0.14930000  1
  O  O198  1  0.20570000  0.68640000  0.15790000  1
  O  O199  1  0.92610000  0.93230000  0.17620000  1
  O  O200  1  0.58170000  0.55680000  0.19080000  1
  O  O201  1  0.68520000  0.20910000  0.23010000  1
  O  O202  1  0.81890000  0.30030000  0.23940000  1
  O  O203  1  0.17320000  0.18980000  0.24500000  1
  O  O204  1  0.31790000  0.79680000  0.24700000  1
  O  O205  1  0.31790000  0.29680000  0.25300000  1
  O  O206  1  0.17320000  0.68980000  0.25500000  1
  O  O207  1  0.81890000  0.80030000  0.26060000  1
  O  O208  1  0.68520000  0.70910000  0.26990000  1
  O  O209  1  0.58170000  0.05680000  0.30920000  1
  O  O210  1  0.92610000  0.43230000  0.32380000  1
  O  O211  1  0.20570000  0.18640000  0.34210000  1
  O  O212  1  0.30270000  0.30160000  0.35070000  1
  O  O213  1  0.56150000  0.96930000  0.35490000  1
  O  O214  1  0.95080000  0.52140000  0.36540000  1
  O  O215  1  0.07740000  0.89740000  0.38320000  1
  O  O216  1  0.44290000  0.59080000  0.39110000  1
  O  O217  1  0.58660000  0.08700000  0.41610000  1
  O  O218  1  0.91360000  0.40160000  0.43410000  1
  O  O219  1  0.23460000  0.98090000  0.44000000  1
  O  O220  1  0.88390000  0.97320000  0.44150000  1
  O  O221  1  0.25860000  0.51350000  0.45080000  1
  O  O222  1  0.61190000  0.51480000  0.45130000  1
  O  O223  1  0.13610000  0.32870000  0.47400000  1
  O  O224  1  0.18910000  0.83990000  0.47660000  1
  O  O225  1  0.46280000  0.14660000  0.48230000  1
  O  O226  1  0.53720000  0.64660000  0.51770000  1
  O  O227  1  0.81090000  0.33990000  0.52340000  1
  O  O228  1  0.86390000  0.82870000  0.52600000  1
  O  O229  1  0.38810000  0.01480000  0.54870000  1
  O  O230  1  0.74140000  0.01350000  0.54920000  1
  O  O231  1  0.11610000  0.47320000  0.55850000  1
  O  O232  1  0.76540000  0.48090000  0.56000000  1
  O  O233  1  0.08640000  0.90160000  0.56590000  1
  O  O234  1  0.41340000  0.58700000  0.58390000  1
  O  O235  1  0.55710000  0.09080000  0.60890000  1
  O  O236  1  0.92260000  0.39740000  0.61680000  1
  O  O237  1  0.04920000  0.02140000  0.63460000  1
  O  O238  1  0.43850000  0.46930000  0.64510000  1
  O  O239  1  0.69730000  0.80160000  0.64930000  1
  O  O240  1  0.79430000  0.68640000  0.65790000  1
  O  O241  1  0.07390000  0.93230000  0.67620000  1
  O  O242  1  0.41830000  0.55680000  0.69080000  1
  O  O243  1  0.31480000  0.20910000  0.73010000  1
  O  O244  1  0.18110000  0.30030000  0.73940000  1
  O  O245  1  0.82680000  0.18980000  0.74500000  1
  O  O246  1  0.68210000  0.79680000  0.74700000  1
  O  O247  1  0.68210000  0.29680000  0.75300000  1
  O  O248  1  0.82680000  0.68980000  0.75500000  1
  O  O249  1  0.18110000  0.80030000  0.76060000  1
  O  O250  1  0.31480000  0.70910000  0.76990000  1
  O  O251  1  0.41830000  0.05680000  0.80920000  1
  O  O252  1  0.07390000  0.43230000  0.82380000  1
  O  O253  1  0.79430000  0.18640000  0.84210000  1
  O  O254  1  0.69730000  0.30160000  0.85070000  1
  O  O255  1  0.43850000  0.96930000  0.85490000  1
  O  O256  1  0.04920000  0.52140000  0.86540000  1
  O  O257  1  0.92260000  0.89740000  0.88320000  1
  O  O258  1  0.55710000  0.59080000  0.89110000  1
  O  O259  1  0.41340000  0.08700000  0.91610000  1
  O  O260  1  0.08640000  0.40160000  0.93410000  1
  O  O261  1  0.76540000  0.98090000  0.94000000  1
  O  O262  1  0.11610000  0.97320000  0.94150000  1
  O  O263  1  0.74140000  0.51350000  0.95080000  1
  O  O264  1  0.38810000  0.51480000  0.95130000  1
  O  O265  1  0.86390000  0.32870000  0.97400000  1
  O  O266  1  0.81090000  0.83990000  0.97660000  1
  O  O267  1  0.53720000  0.14660000  0.98230000  1
