# generated using pymatgen
data_Cd7H46C108(NO2)24
_symmetry_space_group_name_H-M   'P 1'
_cell_length_a   26.69560000
_cell_length_b   32.96760000
_cell_length_c   32.96760000
_cell_angle_alpha   90.00000000
_cell_angle_beta   90.00000000
_cell_angle_gamma   90.00000000
_symmetry_Int_Tables_number   1
_chemical_formula_structural   Cd7H46C108(NO2)24
_chemical_formula_sum   'Cd28 H184 C432 N96 O192'
_cell_volume   29014.45055293
_cell_formula_units_Z   4
loop_
 _symmetry_equiv_pos_site_id
 _symmetry_equiv_pos_as_xyz
  1  'x, y, z'
loop_
 _atom_site_type_symbol
 _atom_site_label
 _atom_site_symmetry_multiplicity
 _atom_site_fract_x
 _atom_site_fract_y
 _atom_site_fract_z
 _atom_site_occupancy
  Cd  Cd0  1  0.16127000  0.00000000  0.00000000  1
  Cd  Cd1  1  0.83873000  0.00000000  0.00000000  1
  Cd  Cd2  1  0.64687000  0.01994000  0.65089000  1
  Cd  Cd3  1  0.56276000  0.12942000  0.14186000  1
  Cd  Cd4  1  0.43724000  0.14186000  0.87058000  1
  Cd  Cd5  1  0.14687000  0.15089000  0.51994000  1
  Cd  Cd6  1  0.22294000  0.17963000  0.23286000  1
  Cd  Cd7  1  0.77706000  0.23286000  0.82037000  1
  Cd  Cd8  1  0.72294000  0.26714000  0.32037000  1
  Cd  Cd9  1  0.27706000  0.32037000  0.73286000  1
  Cd  Cd10  1  0.35313000  0.34911000  0.01994000  1
  Cd  Cd11  1  0.06276000  0.35814000  0.37058000  1
  Cd  Cd12  1  0.93724000  0.37058000  0.64186000  1
  Cd  Cd13  1  0.85313000  0.48006000  0.15089000  1
  Cd  Cd14  1  0.33873000  0.50000000  0.50000000  1
  Cd  Cd15  1  0.66127000  0.50000000  0.50000000  1
  Cd  Cd16  1  0.85313000  0.51994000  0.84911000  1
  Cd  Cd17  1  0.93724000  0.62942000  0.35814000  1
  Cd  Cd18  1  0.06276000  0.64185000  0.62942000  1
  Cd  Cd19  1  0.35313000  0.65089000  0.98006000  1
  Cd  Cd20  1  0.27706000  0.67963000  0.26714000  1
  Cd  Cd21  1  0.72294000  0.73286000  0.67963000  1
  Cd  Cd22  1  0.77706000  0.76714000  0.17963000  1
  Cd  Cd23  1  0.22294000  0.82037000  0.76714000  1
  Cd  Cd24  1  0.14687000  0.84911000  0.48006000  1
  Cd  Cd25  1  0.43724000  0.85814000  0.12942000  1
  Cd  Cd26  1  0.56276000  0.87058000  0.85814000  1
  Cd  Cd27  1  0.64687000  0.98006000  0.34911000  1
  H  H28  1  0.49840000  0.00400000  0.84150000  1
  H  H29  1  0.24230000  0.00960000  0.60990000  1
  H  H30  1  0.21870000  0.04430000  0.43370000  1
  H  H31  1  0.38420000  0.04520000  0.28820000  1
  H  H32  1  0.39600000  0.04720000  0.76520000  1
  H  H33  1  0.03610000  0.05770000  0.09100000  1
  H  H34  1  0.71100000  0.06130000  0.08600000  1
  H  H35  1  0.25580000  0.06150000  0.31680000  1
  H  H36  1  0.45330000  0.06450000  0.25080000  1
  H  H37  1  0.71870000  0.06630000  0.45570000  1
  H  H38  1  0.97280000  0.07720000  0.13080000  1
  H  H39  1  0.85230000  0.08180000  0.12380000  1
  H  H40  1  0.17770000  0.08220000  0.12240000  1
  H  H41  1  0.28900000  0.08600000  0.93870000  1
  H  H42  1  0.96390000  0.09100000  0.94230000  1
  H  H43  1  0.26730000  0.10850000  0.62080000  1
  H  H44  1  0.74230000  0.10990000  0.50960000  1
  H  H45  1  0.35030000  0.11420000  0.70220000  1
  H  H46  1  0.76730000  0.12080000  0.60850000  1
  H  H47  1  0.68230000  0.12220000  0.35100000  1
  H  H48  1  0.82230000  0.12240000  0.91780000  1
  H  H49  1  0.14770000  0.12380000  0.91820000  1
  H  H50  1  0.73470000  0.12630000  0.72640000  1
  H  H51  1  0.02720000  0.13080000  0.92280000  1
  H  H52  1  0.73720000  0.13340000  0.18160000  1
  H  H53  1  0.81420000  0.14860000  0.20080000  1
  H  H54  1  0.18230000  0.14900000  0.37780000  1
  H  H55  1  0.50160000  0.15850000  0.00400000  1
  H  H56  1  0.40260000  0.16730000  0.19250000  1
  H  H57  1  0.32970000  0.17860000  0.70570000  1
  H  H58  1  0.26280000  0.18160000  0.86660000  1
  H  H59  1  0.75580000  0.18320000  0.43850000  1
  H  H60  1  0.59740000  0.19250000  0.83270000  1
  H  H61  1  0.00010000  0.19920000  0.23550000  1
  H  H62  1  0.18580000  0.20080000  0.85140000  1
  H  H63  1  0.85030000  0.20220000  0.61420000  1
  H  H64  1  0.82970000  0.20570000  0.67860000  1
  H  H65  1  0.88420000  0.21180000  0.45480000  1
  H  H66  1  0.87280000  0.21390000  0.25700000  1
  H  H67  1  0.23470000  0.22640000  0.62630000  1
  H  H68  1  0.51400000  0.22660000  0.24680000  1
  H  H69  1  0.60400000  0.23480000  0.04720000  1
  H  H70  1  0.99990000  0.23550000  0.80080000  1
  H  H71  1  0.37280000  0.24300000  0.28610000  1
  H  H72  1  0.48600000  0.24680000  0.77340000  1
  H  H73  1  0.95330000  0.24920000  0.43550000  1
  H  H74  1  0.54670000  0.25080000  0.93550000  1
  H  H75  1  0.01400000  0.25320000  0.27340000  1
  H  H76  1  0.12720000  0.25700000  0.78610000  1
  H  H77  1  0.50010000  0.26450000  0.30080000  1
  H  H78  1  0.89600000  0.26520000  0.54720000  1
  H  H79  1  0.98600000  0.27340000  0.74680000  1
  H  H80  1  0.26530000  0.27360000  0.12630000  1
  H  H81  1  0.62720000  0.28610000  0.75700000  1
  H  H82  1  0.61580000  0.28820000  0.95480000  1
  H  H83  1  0.67030000  0.29430000  0.17860000  1
  H  H84  1  0.64970000  0.29780000  0.11420000  1
  H  H85  1  0.31420000  0.29920000  0.35140000  1
  H  H86  1  0.49990000  0.30080000  0.73550000  1
  H  H87  1  0.90260000  0.30750000  0.33270000  1
  H  H88  1  0.74420000  0.31680000  0.93850000  1
  H  H89  1  0.23720000  0.31840000  0.36660000  1
  H  H90  1  0.17030000  0.32140000  0.20570000  1
  H  H91  1  0.09740000  0.33270000  0.69250000  1
  H  H92  1  0.99840000  0.34150000  0.50400000  1
  H  H93  1  0.31770000  0.35100000  0.87780000  1
  H  H94  1  0.68580000  0.35140000  0.70080000  1
  H  H95  1  0.76280000  0.36660000  0.68160000  1
  H  H96  1  0.47280000  0.36920000  0.42280000  1
  H  H97  1  0.76530000  0.37370000  0.22640000  1
  H  H98  1  0.35230000  0.37620000  0.41820000  1
  H  H99  1  0.67770000  0.37760000  0.41780000  1
  H  H100  1  0.81770000  0.37780000  0.85100000  1
  H  H101  1  0.73270000  0.37920000  0.10850000  1
  H  H102  1  0.14970000  0.38580000  0.20220000  1
  H  H103  1  0.75770000  0.39010000  0.00960000  1
  H  H104  1  0.23270000  0.39150000  0.12080000  1
  H  H105  1  0.53610000  0.40900000  0.44230000  1
  H  H106  1  0.21100000  0.41400000  0.43870000  1
  H  H107  1  0.32230000  0.41780000  0.62240000  1
  H  H108  1  0.64770000  0.41820000  0.62380000  1
  H  H109  1  0.52720000  0.42280000  0.63080000  1
  H  H110  1  0.78130000  0.43370000  0.95570000  1
  H  H111  1  0.04670000  0.43550000  0.75080000  1
  H  H112  1  0.24420000  0.43850000  0.81680000  1
  H  H113  1  0.78900000  0.43870000  0.58600000  1
  H  H114  1  0.46390000  0.44230000  0.59100000  1
  H  H115  1  0.10400000  0.45280000  0.26520000  1
  H  H116  1  0.11580000  0.45480000  0.78820000  1
  H  H117  1  0.28130000  0.45570000  0.93370000  1
  H  H118  1  0.25770000  0.49040000  0.10990000  1
  H  H119  1  0.00160000  0.49600000  0.34150000  1
  H  H120  1  0.00160000  0.50400000  0.65850000  1
  H  H121  1  0.25770000  0.50960000  0.89010000  1
  H  H122  1  0.28130000  0.54430000  0.06630000  1
  H  H123  1  0.11580000  0.54520000  0.21180000  1
  H  H124  1  0.10400000  0.54720000  0.73480000  1
  H  H125  1  0.46390000  0.55770000  0.40900000  1
  H  H126  1  0.78900000  0.56130000  0.41400000  1
  H  H127  1  0.24420000  0.56150000  0.18320000  1
  H  H128  1  0.04670000  0.56450000  0.24920000  1
  H  H129  1  0.78130000  0.56630000  0.04430000  1
  H  H130  1  0.52720000  0.57720000  0.36920000  1
  H  H131  1  0.64770000  0.58180000  0.37620000  1
  H  H132  1  0.32230000  0.58220000  0.37760000  1
  H  H133  1  0.21100000  0.58600000  0.56130000  1
  H  H134  1  0.53610000  0.59100000  0.55770000  1
  H  H135  1  0.23270000  0.60850000  0.87920000  1
  H  H136  1  0.75770000  0.60990000  0.99040000  1
  H  H137  1  0.14970000  0.61420000  0.79780000  1
  H  H138  1  0.73270000  0.62080000  0.89150000  1
  H  H139  1  0.81770000  0.62220000  0.14900000  1
  H  H140  1  0.67770000  0.62240000  0.58220000  1
  H  H141  1  0.35230000  0.62380000  0.58180000  1
  H  H142  1  0.76530000  0.62630000  0.77360000  1
  H  H143  1  0.47280000  0.63080000  0.57720000  1
  H  H144  1  0.76280000  0.63340000  0.31840000  1
  H  H145  1  0.68580000  0.64860000  0.29920000  1
  H  H146  1  0.31770000  0.64900000  0.12220000  1
  H  H147  1  0.99840000  0.65850000  0.49600000  1
  H  H148  1  0.09740000  0.66730000  0.30750000  1
  H  H149  1  0.17030000  0.67860000  0.79430000  1
  H  H150  1  0.23720000  0.68160000  0.63340000  1
  H  H151  1  0.74420000  0.68320000  0.06150000  1
  H  H152  1  0.90260000  0.69250000  0.66730000  1
  H  H153  1  0.49990000  0.69920000  0.26450000  1
  H  H154  1  0.31420000  0.70080000  0.64860000  1
  H  H155  1  0.64970000  0.70220000  0.88580000  1
  H  H156  1  0.67030000  0.70570000  0.82140000  1
  H  H157  1  0.61580000  0.71180000  0.04520000  1
  H  H158  1  0.62720000  0.71390000  0.24300000  1
  H  H159  1  0.26530000  0.72640000  0.87370000  1
  H  H160  1  0.98600000  0.72660000  0.25320000  1
  H  H161  1  0.89600000  0.73480000  0.45280000  1
  H  H162  1  0.50010000  0.73550000  0.69920000  1
  H  H163  1  0.12720000  0.74300000  0.21390000  1
  H  H164  1  0.01400000  0.74680000  0.72660000  1
  H  H165  1  0.54670000  0.74920000  0.06450000  1
  H  H166  1  0.95330000  0.75080000  0.56450000  1
  H  H167  1  0.48600000  0.75320000  0.22660000  1
  H  H168  1  0.37280000  0.75700000  0.71390000  1
  H  H169  1  0.99990000  0.76450000  0.19920000  1
  H  H170  1  0.60400000  0.76520000  0.95280000  1
  H  H171  1  0.51400000  0.77340000  0.75320000  1
  H  H172  1  0.23470000  0.77360000  0.37370000  1
  H  H173  1  0.87280000  0.78610000  0.74300000  1
  H  H174  1  0.88420000  0.78820000  0.54520000  1
  H  H175  1  0.82970000  0.79430000  0.32140000  1
  H  H176  1  0.85030000  0.79780000  0.38580000  1
  H  H177  1  0.18580000  0.79920000  0.14860000  1
  H  H178  1  0.00010000  0.80080000  0.76450000  1
  H  H179  1  0.59740000  0.80750000  0.16730000  1
  H  H180  1  0.75580000  0.81680000  0.56150000  1
  H  H181  1  0.26280000  0.81840000  0.13340000  1
  H  H182  1  0.32970000  0.82140000  0.29430000  1
  H  H183  1  0.40260000  0.83270000  0.80750000  1
  H  H184  1  0.50160000  0.84150000  0.99600000  1
  H  H185  1  0.18230000  0.85100000  0.62220000  1
  H  H186  1  0.81420000  0.85140000  0.79920000  1
  H  H187  1  0.73720000  0.86660000  0.81840000  1
  H  H188  1  0.02720000  0.86920000  0.07720000  1
  H  H189  1  0.73470000  0.87370000  0.27360000  1
  H  H190  1  0.14770000  0.87620000  0.08180000  1
  H  H191  1  0.82230000  0.87760000  0.08220000  1
  H  H192  1  0.68230000  0.87780000  0.64900000  1
  H  H193  1  0.76730000  0.87920000  0.39150000  1
  H  H194  1  0.35030000  0.88580000  0.29780000  1
  H  H195  1  0.74230000  0.89010000  0.49040000  1
  H  H196  1  0.26730000  0.89150000  0.37920000  1
  H  H197  1  0.96390000  0.90900000  0.05770000  1
  H  H198  1  0.28900000  0.91400000  0.06130000  1
  H  H199  1  0.17770000  0.91780000  0.87760000  1
  H  H200  1  0.85230000  0.91820000  0.87620000  1
  H  H201  1  0.97280000  0.92280000  0.86920000  1
  H  H202  1  0.71870000  0.93370000  0.54430000  1
  H  H203  1  0.45330000  0.93550000  0.74920000  1
  H  H204  1  0.25580000  0.93850000  0.68320000  1
  H  H205  1  0.71100000  0.93870000  0.91400000  1
  H  H206  1  0.03610000  0.94230000  0.90900000  1
  H  H207  1  0.39600000  0.95280000  0.23480000  1
  H  H208  1  0.38420000  0.95480000  0.71180000  1
  H  H209  1  0.21870000  0.95570000  0.56630000  1
  H  H210  1  0.24230000  0.99040000  0.39010000  1
  H  H211  1  0.49840000  0.99600000  0.15850000  1
  C  C212  1  0.47910000  0.00110000  0.81830000  1
  C  C213  1  0.35420000  0.00500000  0.69830000  1
  C  C214  1  0.29300000  0.00960000  0.65190000  1
  C  C215  1  0.41740000  0.01030000  0.25030000  1
  C  C216  1  0.41720000  0.02629000  0.77310000  1
  C  C217  1  0.44630000  0.03210000  0.80630000  1
  C  C218  1  0.48270000  0.03400000  0.20460000  1
  C  C219  1  0.45170000  0.03990000  0.23700000  1
  C  C220  1  0.80442000  0.04226000  0.06567000  1
  C  C221  1  0.12919000  0.04239000  0.06562000  1
  C  C222  1  0.23910000  0.04660000  0.37460000  1
  C  C223  1  0.67680000  0.04920000  0.38490000  1
  C  C224  1  0.21860000  0.06050000  0.41050000  1
  C  C225  1  0.32580000  0.06520000  0.67770000  1
  C  C226  1  0.87081000  0.06562000  0.95761000  1
  C  C227  1  0.19558000  0.06567000  0.95774000  1
  C  C228  1  0.11146000  0.06674000  0.10136000  1
  C  C229  1  0.51930000  0.06680000  0.19310000  1
  C  C230  1  0.78410000  0.06717000  0.09975000  1
  C  C231  1  0.44410000  0.07036000  0.83040000  1
  C  C232  1  0.05859000  0.07060000  0.10828000  1
  C  C233  1  0.24040000  0.07060000  0.34040000  1
  C  C234  1  0.73326000  0.07352000  0.10390000  1
  C  C235  1  0.14345000  0.08529000  0.12652000  1
  C  C236  1  0.70500000  0.08560000  0.66060000  1
  C  C237  1  0.81800000  0.08620000  0.12640000  1
  C  C238  1  0.69720000  0.08870000  0.39960000  1
  C  C239  1  0.71860000  0.08950000  0.43950000  1
  C  C240  1  0.04109000  0.09340000  0.14050000  1
  C  C241  1  0.71533000  0.09844000  0.13509000  1
  C  C242  1  0.21590000  0.09975000  0.93283000  1
  C  C243  1  0.19720000  0.10040000  0.41130000  1
  C  C244  1  0.88854000  0.10136000  0.93326000  1
  C  C245  1  0.26674000  0.10390000  0.92648000  1
  C  C246  1  0.65959000  0.10712000  0.13757000  1
  C  C247  1  0.94141000  0.10828000  0.92940000  1
  C  C248  1  0.12649000  0.10954000  0.15933000  1
  C  C249  1  0.21780000  0.11000000  0.34190000  1
  C  C250  1  0.80000000  0.11110000  0.15614000  1
  C  C251  1  0.07460000  0.11370000  0.16620000  1
  C  C252  1  0.17680000  0.11510000  0.45080000  1
  C  C253  1  0.74890000  0.11686000  0.16083000  1
  C  C254  1  0.74430000  0.12020000  0.66700000  1
  C  C255  1  0.95990000  0.12240000  0.16630000  1
  C  C256  1  0.69700000  0.12290000  0.37660000  1
  C  C257  1  0.19700000  0.12340000  0.37710000  1
  C  C258  1  0.73910000  0.12540000  0.45340000  1
  C  C259  1  0.18200000  0.12640000  0.91380000  1
  C  C260  1  0.85655000  0.12652000  0.91471000  1
  C  C261  1  0.16180000  0.13172000  0.18501000  1
  C  C262  1  0.27080000  0.13350000  0.63370000  1
  C  C263  1  0.77080000  0.13370000  0.63350000  1
  C  C264  1  0.21700000  0.13460000  0.30390000  1
  C  C265  1  0.28467000  0.13509000  0.90156000  1
  C  C266  1  0.88340000  0.13700000  0.18560000  1
  C  C267  1  0.75080000  0.13750000  0.70400000  1
  C  C268  1  0.34041000  0.13757000  0.89288000  1
  C  C269  1  0.30120000  0.13770000  0.66530000  1
  C  C270  1  0.95891000  0.14050000  0.90660000  1
  C  C271  1  0.79300000  0.15190000  0.50960000  1
  C  C272  1  0.20000000  0.15614000  0.88890000  1
  C  C273  1  0.71780000  0.15810000  0.39000000  1
  C  C274  1  0.87351000  0.15933000  0.89046000  1
  C  C275  1  0.74040000  0.15960000  0.42940000  1
  C  C276  1  0.20500000  0.16060000  0.58560000  1
  C  C277  1  0.25110000  0.16083000  0.88314000  1
  C  C278  1  0.80120000  0.16530000  0.63770000  1
  C  C279  1  0.92540000  0.16620000  0.88630000  1
  C  C280  1  0.04010000  0.16630000  0.87760000  1
  C  C281  1  0.24430000  0.16700000  0.62020000  1
  C  C282  1  0.55590000  0.16960000  0.07036000  1
  C  C283  1  0.94660000  0.17050000  0.21160000  1
  C  C284  1  0.78000000  0.17050000  0.70930000  1
  C  C285  1  0.49940000  0.17476000  0.18779000  1
  C  C286  1  0.30750000  0.17580000  0.68420000  1
  C  C287  1  0.82580000  0.17770000  0.56520000  1
  C  C288  1  0.52090000  0.18170000  0.00110000  1
  C  C289  1  0.80750000  0.18420000  0.67580000  1
  C  C290  1  0.83820000  0.18501000  0.86828000  1
  C  C291  1  0.41370000  0.18510000  0.21249000  1
  C  C292  1  0.11660000  0.18560000  0.86300000  1
  C  C293  1  0.50060000  0.18779000  0.82524000  1
  C  C294  1  0.78630000  0.19170000  0.75005000  1
  C  C295  1  0.48070000  0.19310000  0.93320000  1
  C  C296  1  0.55370000  0.19370000  0.03210000  1
  C  C297  1  0.32440000  0.19396000  0.23700000  1
  C  C298  1  0.46330000  0.19450000  0.21525000  1
  C  C299  1  0.71700000  0.19610000  0.36540000  1
  C  C300  1  0.85420000  0.19830000  0.50500000  1
  C  C301  1  0.37880000  0.20244000  0.24006000  1
  C  C302  1  0.25080000  0.20400000  0.63750000  1
  C  C303  1  0.51730000  0.20460000  0.96600000  1
  C  C304  1  0.28000000  0.20930000  0.67050000  1
  C  C305  1  0.05340000  0.21160000  0.82950000  1
  C  C306  1  0.58630000  0.21249000  0.81490000  1
  C  C307  1  0.53670000  0.21525000  0.80550000  1
  C  C308  1  0.48000000  0.22080000  0.24500000  1
  C  C309  1  0.58280000  0.22690000  0.02629000  1
  C  C310  1  0.94670000  0.22750000  0.26120000  1
  C  C311  1  0.39564000  0.23020000  0.26900000  1
  C  C312  1  0.89564000  0.23100000  0.26980000  1
  C  C313  1  0.67560000  0.23700000  0.80604000  1
  C  C314  1  0.54830000  0.23700000  0.96010000  1
  C  C315  1  0.44670000  0.23880000  0.27250000  1
  C  C316  1  0.62120000  0.24006000  0.79756000  1
  C  C317  1  0.52000000  0.24500000  0.77920000  1
  C  C318  1  0.91740000  0.24970000  0.48970000  1
  C  C319  1  0.21370000  0.24995000  0.19170000  1
  C  C320  1  0.28630000  0.25005000  0.69170000  1
  C  C321  1  0.58260000  0.25030000  0.98970000  1
  C  C322  1  0.98000000  0.25500000  0.27920000  1
  C  C323  1  0.87880000  0.25994000  0.29756000  1
  C  C324  1  0.05330000  0.26120000  0.77250000  1
  C  C325  1  0.82440000  0.26300000  0.30604000  1
  C  C326  1  0.95170000  0.26300000  0.46010000  1
  C  C327  1  0.60436000  0.26900000  0.76980000  1
  C  C328  1  0.10436000  0.26980000  0.76900000  1
  C  C329  1  0.55330000  0.27250000  0.76120000  1
  C  C330  1  0.91720000  0.27310000  0.52629000  1
  C  C331  1  0.02000000  0.27920000  0.74500000  1
  C  C332  1  0.96330000  0.28475000  0.30550000  1
  C  C333  1  0.91370000  0.28751000  0.31490000  1
  C  C334  1  0.44660000  0.28840000  0.32950000  1
  C  C335  1  0.22000000  0.29070000  0.17050000  1
  C  C336  1  0.98270000  0.29540000  0.46600000  1
  C  C337  1  0.24920000  0.29600000  0.13750000  1
  C  C338  1  0.12120000  0.29756000  0.74006000  1
  C  C339  1  0.64580000  0.30170000  0.00500000  1
  C  C340  1  0.78300000  0.30390000  0.86540000  1
  C  C341  1  0.03670000  0.30550000  0.71525000  1
  C  C342  1  0.17560000  0.30604000  0.73700000  1
  C  C343  1  0.94630000  0.30630000  0.53210000  1
  C  C344  1  0.01930000  0.30690000  0.43320000  1
  C  C345  1  0.71370000  0.30830000  0.25005000  1
  C  C346  1  0.99940000  0.31221000  0.32524000  1
  C  C347  1  0.38340000  0.31440000  0.36300000  1
  C  C348  1  0.08630000  0.31490000  0.71249000  1
  C  C349  1  0.66180000  0.31499000  0.36828000  1
  C  C350  1  0.69250000  0.31580000  0.17580000  1
  C  C351  1  0.97910000  0.31830000  0.50110000  1
  C  C352  1  0.67420000  0.32230000  0.06520000  1
  C  C353  1  0.19250000  0.32420000  0.18420000  1
  C  C354  1  0.00060000  0.32524000  0.68779000  1
  C  C355  1  0.72000000  0.32950000  0.20930000  1
  C  C356  1  0.55340000  0.32950000  0.71160000  1
  C  C357  1  0.94410000  0.33040000  0.57036000  1
  C  C358  1  0.25570000  0.33300000  0.12020000  1
  C  C359  1  0.45990000  0.33370000  0.37760000  1
  C  C360  1  0.57460000  0.33380000  0.38630000  1
  C  C361  1  0.69880000  0.33470000  0.13770000  1
  C  C362  1  0.24890000  0.33917000  0.38314000  1
  C  C363  1  0.29500000  0.33940000  0.08560000  1
  C  C364  1  0.75960000  0.34040000  0.92940000  1
  C  C365  1  0.62649000  0.34067000  0.39046000  1
  C  C366  1  0.78220000  0.34190000  0.89000000  1
  C  C367  1  0.30000000  0.34386000  0.38890000  1
  C  C368  1  0.70700000  0.34810000  0.00960000  1
  C  C369  1  0.54109000  0.35950000  0.40660000  1
  C  C370  1  0.19880000  0.36230000  0.16530000  1
  C  C371  1  0.15959000  0.36243000  0.39288000  1
  C  C372  1  0.74920000  0.36250000  0.20400000  1
  C  C373  1  0.61660000  0.36300000  0.68560000  1
  C  C374  1  0.21533000  0.36491000  0.40156000  1
  C  C375  1  0.28300000  0.36540000  0.80390000  1
  C  C376  1  0.72920000  0.36630000  0.13350000  1
  C  C377  1  0.22920000  0.36650000  0.13370000  1
  C  C378  1  0.33820000  0.36828000  0.68501000  1
  C  C379  1  0.64345000  0.37348000  0.41471000  1
  C  C380  1  0.31800000  0.37360000  0.41380000  1
  C  C381  1  0.76090000  0.37460000  0.95340000  1
  C  C382  1  0.30300000  0.37660000  0.87710000  1
  C  C383  1  0.80300000  0.37710000  0.87660000  1
  C  C384  1  0.54010000  0.37760000  0.66630000  1
  C  C385  1  0.75570000  0.37980000  0.16700000  1
  C  C386  1  0.75110000  0.38314000  0.66083000  1
  C  C387  1  0.32320000  0.38490000  0.95080000  1
  C  C388  1  0.42540000  0.38630000  0.66620000  1
  C  C389  1  0.70000000  0.38890000  0.65614000  1
  C  C390  1  0.28220000  0.39000000  0.84190000  1
  C  C391  1  0.37351000  0.39046000  0.65933000  1
  C  C392  1  0.55859000  0.39172000  0.42940000  1
  C  C393  1  0.84041000  0.39288000  0.63757000  1
  C  C394  1  0.23326000  0.39610000  0.42648000  1
  C  C395  1  0.61146000  0.39864000  0.43326000  1
  C  C396  1  0.30280000  0.39960000  0.91130000  1
  C  C397  1  0.28410000  0.40025000  0.43283000  1
  C  C398  1  0.78467000  0.40156000  0.63509000  1
  C  C399  1  0.45891000  0.40660000  0.64050000  1
  C  C400  1  0.78140000  0.41050000  0.93950000  1
  C  C401  1  0.80280000  0.41130000  0.89960000  1
  C  C402  1  0.68200000  0.41380000  0.62640000  1
  C  C403  1  0.79500000  0.41440000  0.16060000  1
  C  C404  1  0.35655000  0.41471000  0.62652000  1
  C  C405  1  0.76674000  0.42648000  0.60390000  1
  C  C406  1  0.44141000  0.42940000  0.60828000  1
  C  C407  1  0.25960000  0.42940000  0.84040000  1
  C  C408  1  0.05590000  0.42964000  0.33040000  1
  C  C409  1  0.71590000  0.43283000  0.59975000  1
  C  C410  1  0.98070000  0.43320000  0.69310000  1
  C  C411  1  0.38854000  0.43326000  0.60136000  1
  C  C412  1  0.30442000  0.43433000  0.45774000  1
  C  C413  1  0.62919000  0.43438000  0.45761000  1
  C  C414  1  0.17420000  0.43480000  0.17770000  1
  C  C415  1  0.28140000  0.43950000  0.91050000  1
  C  C416  1  0.82320000  0.45080000  0.88490000  1
  C  C417  1  0.26090000  0.45340000  0.87460000  1
  C  C418  1  0.37081000  0.45761000  0.56562000  1
  C  C419  1  0.69558000  0.45774000  0.56567000  1
  C  C420  1  0.04830000  0.46010000  0.73700000  1
  C  C421  1  0.01730000  0.46600000  0.70460000  1
  C  C422  1  0.05370000  0.46790000  0.30630000  1
  C  C423  1  0.08280000  0.47371000  0.27310000  1
  C  C424  1  0.08260000  0.48970000  0.75030000  1
  C  C425  1  0.20700000  0.49040000  0.15190000  1
  C  C426  1  0.14580000  0.49500000  0.19830000  1
  C  C427  1  0.02090000  0.49890000  0.31830000  1
  C  C428  1  0.02090000  0.50110000  0.68170000  1
  C  C429  1  0.14580000  0.50500000  0.80170000  1
  C  C430  1  0.20700000  0.50960000  0.84810000  1
  C  C431  1  0.08260000  0.51030000  0.24970000  1
  C  C432  1  0.08280000  0.52629000  0.72690000  1
  C  C433  1  0.05370000  0.53210000  0.69370000  1
  C  C434  1  0.01730000  0.53400000  0.29540000  1
  C  C435  1  0.04830000  0.53990000  0.26300000  1
  C  C436  1  0.69558000  0.54226000  0.43433000  1
  C  C437  1  0.37081000  0.54239000  0.43438000  1
  C  C438  1  0.26090000  0.54660000  0.12540000  1
  C  C439  1  0.82320000  0.54920000  0.11510000  1
  C  C440  1  0.28140000  0.56050000  0.08950000  1
  C  C441  1  0.17420000  0.56520000  0.82230000  1
  C  C442  1  0.62919000  0.56562000  0.54239000  1
  C  C443  1  0.30442000  0.56567000  0.54226000  1
  C  C444  1  0.38854000  0.56674000  0.39864000  1
  C  C445  1  0.98070000  0.56680000  0.30690000  1
  C  C446  1  0.71590000  0.56717000  0.40025000  1
  C  C447  1  0.05590000  0.57036000  0.66960000  1
  C  C448  1  0.25960000  0.57060000  0.15960000  1
  C  C449  1  0.44141000  0.57060000  0.39172000  1
  C  C450  1  0.76674000  0.57352000  0.39610000  1
  C  C451  1  0.35655000  0.58529000  0.37348000  1
  C  C452  1  0.79500000  0.58560000  0.83940000  1
  C  C453  1  0.68200000  0.58620000  0.37360000  1
  C  C454  1  0.80280000  0.58870000  0.10040000  1
  C  C455  1  0.78140000  0.58950000  0.06050000  1
  C  C456  1  0.45891000  0.59340000  0.35950000  1
  C  C457  1  0.78467000  0.59844000  0.36491000  1
  C  C458  1  0.28410000  0.59975000  0.56717000  1
  C  C459  1  0.30280000  0.60040000  0.08870000  1
  C  C460  1  0.61146000  0.60136000  0.56674000  1
  C  C461  1  0.23326000  0.60390000  0.57352000  1
  C  C462  1  0.84041000  0.60712000  0.36243000  1
  C  C463  1  0.55859000  0.60828000  0.57060000  1
  C  C464  1  0.37351000  0.60954000  0.34067000  1
  C  C465  1  0.28220000  0.61000000  0.15810000  1
  C  C466  1  0.70000000  0.61110000  0.34386000  1
  C  C467  1  0.42540000  0.61370000  0.33380000  1
  C  C468  1  0.32320000  0.61510000  0.04920000  1
  C  C469  1  0.75110000  0.61686000  0.33917000  1
  C  C470  1  0.75570000  0.62020000  0.83300000  1
  C  C471  1  0.54010000  0.62240000  0.33370000  1
  C  C472  1  0.80300000  0.62290000  0.12340000  1
  C  C473  1  0.30300000  0.62340000  0.12290000  1
  C  C474  1  0.76090000  0.62540000  0.04660000  1
  C  C475  1  0.31800000  0.62640000  0.58620000  1
  C  C476  1  0.64345000  0.62652000  0.58529000  1
  C  C477  1  0.33820000  0.63172000  0.31499000  1
  C  C478  1  0.22920000  0.63350000  0.86630000  1
  C  C479  1  0.72920000  0.63370000  0.86650000  1
  C  C480  1  0.28300000  0.63460000  0.19610000  1
  C  C481  1  0.21533000  0.63509000  0.59844000  1
  C  C482  1  0.61660000  0.63700000  0.31440000  1
  C  C483  1  0.74920000  0.63750000  0.79600000  1
  C  C484  1  0.15959000  0.63757000  0.60712000  1
  C  C485  1  0.19880000  0.63770000  0.83470000  1
  C  C486  1  0.54109000  0.64050000  0.59340000  1
  C  C487  1  0.70700000  0.65190000  0.99040000  1
  C  C488  1  0.30000000  0.65614000  0.61110000  1
  C  C489  1  0.78220000  0.65810000  0.11000000  1
  C  C490  1  0.62649000  0.65933000  0.60954000  1
  C  C491  1  0.75960000  0.65960000  0.07060000  1
  C  C492  1  0.29500000  0.66060000  0.91440000  1
  C  C493  1  0.24890000  0.66083000  0.61686000  1
  C  C494  1  0.69880000  0.66530000  0.86230000  1
  C  C495  1  0.57460000  0.66620000  0.61370000  1
  C  C496  1  0.45990000  0.66630000  0.62240000  1
  C  C497  1  0.25570000  0.66700000  0.87980000  1
  C  C498  1  0.94410000  0.66960000  0.42964000  1
  C  C499  1  0.55340000  0.67050000  0.28840000  1
  C  C500  1  0.72000000  0.67050000  0.79070000  1
  C  C501  1  0.00060000  0.67476000  0.31221000  1
  C  C502  1  0.19250000  0.67580000  0.81580000  1
  C  C503  1  0.67420000  0.67770000  0.93480000  1
  C  C504  1  0.97910000  0.68170000  0.49890000  1
  C  C505  1  0.69250000  0.68420000  0.82420000  1
  C  C506  1  0.66180000  0.68501000  0.63172000  1
  C  C507  1  0.08630000  0.68510000  0.28751000  1
  C  C508  1  0.38340000  0.68560000  0.63700000  1
  C  C509  1  0.99940000  0.68779000  0.67476000  1
  C  C510  1  0.71370000  0.69170000  0.74995000  1
  C  C511  1  0.01930000  0.69310000  0.56680000  1
  C  C512  1  0.94630000  0.69370000  0.46790000  1
  C  C513  1  0.17560000  0.69396000  0.26300000  1
  C  C514  1  0.03670000  0.69450000  0.28475000  1
  C  C515  1  0.78300000  0.69610000  0.13460000  1
  C  C516  1  0.64580000  0.69830000  0.99500000  1
  C  C517  1  0.12120000  0.70244000  0.25994000  1
  C  C518  1  0.24920000  0.70400000  0.86250000  1
  C  C519  1  0.98270000  0.70460000  0.53400000  1
  C  C520  1  0.22000000  0.70930000  0.82950000  1
  C  C521  1  0.44660000  0.71160000  0.67050000  1
  C  C522  1  0.91370000  0.71249000  0.68510000  1
  C  C523  1  0.96330000  0.71525000  0.69450000  1
  C  C524  1  0.02000000  0.72080000  0.25500000  1
  C  C525  1  0.91720000  0.72690000  0.47371000  1
  C  C526  1  0.55330000  0.72750000  0.23880000  1
  C  C527  1  0.10436000  0.73020000  0.23100000  1
  C  C528  1  0.60436000  0.73100000  0.23020000  1
  C  C529  1  0.95170000  0.73700000  0.53990000  1
  C  C530  1  0.82440000  0.73700000  0.69396000  1
  C  C531  1  0.05330000  0.73880000  0.22750000  1
  C  C532  1  0.87880000  0.74006000  0.70244000  1
  C  C533  1  0.98000000  0.74500000  0.72080000  1
  C  C534  1  0.58260000  0.74970000  0.01030000  1
  C  C535  1  0.28630000  0.74995000  0.30830000  1
  C  C536  1  0.21370000  0.75005000  0.80830000  1
  C  C537  1  0.91740000  0.75030000  0.51030000  1
  C  C538  1  0.52000000  0.75500000  0.22080000  1
  C  C539  1  0.62120000  0.75994000  0.20244000  1
  C  C540  1  0.44670000  0.76120000  0.72750000  1
  C  C541  1  0.54830000  0.76300000  0.03990000  1
  C  C542  1  0.67560000  0.76300000  0.19396000  1
  C  C543  1  0.89564000  0.76900000  0.73020000  1
  C  C544  1  0.39564000  0.76980000  0.73100000  1
  C  C545  1  0.94670000  0.77250000  0.73880000  1
  C  C546  1  0.58280000  0.77310000  0.97371000  1
  C  C547  1  0.48000000  0.77920000  0.75500000  1
  C  C548  1  0.53670000  0.78475000  0.19450000  1
  C  C549  1  0.58630000  0.78751000  0.18510000  1
  C  C550  1  0.05340000  0.78840000  0.17050000  1
  C  C551  1  0.28000000  0.79070000  0.32950000  1
  C  C552  1  0.51730000  0.79540000  0.03400000  1
  C  C553  1  0.25080000  0.79600000  0.36250000  1
  C  C554  1  0.37880000  0.79756000  0.75994000  1
  C  C555  1  0.85420000  0.80170000  0.49500000  1
  C  C556  1  0.71700000  0.80390000  0.63460000  1
  C  C557  1  0.46330000  0.80550000  0.78475000  1
  C  C558  1  0.32440000  0.80604000  0.76300000  1
  C  C559  1  0.55370000  0.80630000  0.96790000  1
  C  C560  1  0.48070000  0.80690000  0.06680000  1
  C  C561  1  0.78630000  0.80830000  0.24995000  1
  C  C562  1  0.50060000  0.81221000  0.17476000  1
  C  C563  1  0.11660000  0.81440000  0.13700000  1
  C  C564  1  0.41370000  0.81490000  0.78751000  1
  C  C565  1  0.83820000  0.81499000  0.13172000  1
  C  C566  1  0.80750000  0.81580000  0.32420000  1
  C  C567  1  0.52090000  0.81830000  0.99890000  1
  C  C568  1  0.82580000  0.82230000  0.43480000  1
  C  C569  1  0.30750000  0.82420000  0.31580000  1
  C  C570  1  0.49940000  0.82524000  0.81221000  1
  C  C571  1  0.78000000  0.82950000  0.29070000  1
  C  C572  1  0.94660000  0.82950000  0.78840000  1
  C  C573  1  0.55590000  0.83040000  0.92964000  1
  C  C574  1  0.24430000  0.83300000  0.37980000  1
  C  C575  1  0.04010000  0.83370000  0.12240000  1
  C  C576  1  0.92540000  0.83380000  0.11370000  1
  C  C577  1  0.80120000  0.83470000  0.36230000  1
  C  C578  1  0.25110000  0.83917000  0.11686000  1
  C  C579  1  0.20500000  0.83940000  0.41440000  1
  C  C580  1  0.74040000  0.84040000  0.57060000  1
  C  C581  1  0.87351000  0.84067000  0.10954000  1
  C  C582  1  0.71780000  0.84190000  0.61000000  1
  C  C583  1  0.20000000  0.84386000  0.11110000  1
  C  C584  1  0.79300000  0.84810000  0.49040000  1
  C  C585  1  0.95891000  0.85950000  0.09340000  1
  C  C586  1  0.30120000  0.86230000  0.33470000  1
  C  C587  1  0.34041000  0.86243000  0.10712000  1
  C  C588  1  0.75080000  0.86250000  0.29600000  1
  C  C589  1  0.88340000  0.86300000  0.81440000  1
  C  C590  1  0.28467000  0.86491000  0.09844000  1
  C  C591  1  0.21700000  0.86540000  0.69610000  1
  C  C592  1  0.77080000  0.86630000  0.36650000  1
  C  C593  1  0.27080000  0.86650000  0.36630000  1
  C  C594  1  0.16180000  0.86828000  0.81499000  1
  C  C595  1  0.85655000  0.87348000  0.08529000  1
  C  C596  1  0.18200000  0.87360000  0.08620000  1
  C  C597  1  0.73910000  0.87460000  0.54660000  1
  C  C598  1  0.19700000  0.87660000  0.62290000  1
  C  C599  1  0.69700000  0.87710000  0.62340000  1
  C  C600  1  0.95990000  0.87760000  0.83370000  1
  C  C601  1  0.74430000  0.87980000  0.33300000  1
  C  C602  1  0.74890000  0.88314000  0.83917000  1
  C  C603  1  0.17680000  0.88490000  0.54920000  1
  C  C604  1  0.07460000  0.88630000  0.83380000  1
  C  C605  1  0.80000000  0.88890000  0.84386000  1
  C  C606  1  0.21780000  0.89000000  0.65810000  1
  C  C607  1  0.12649000  0.89046000  0.84067000  1
  C  C608  1  0.94141000  0.89172000  0.07060000  1
  C  C609  1  0.65959000  0.89288000  0.86243000  1
  C  C610  1  0.26674000  0.89610000  0.07352000  1
  C  C611  1  0.88854000  0.89864000  0.06674000  1
  C  C612  1  0.19720000  0.89960000  0.58870000  1
  C  C613  1  0.21590000  0.90025000  0.06717000  1
  C  C614  1  0.71533000  0.90156000  0.86491000  1
  C  C615  1  0.04109000  0.90660000  0.85950000  1
  C  C616  1  0.71860000  0.91050000  0.56050000  1
  C  C617  1  0.69720000  0.91130000  0.60040000  1
  C  C618  1  0.81800000  0.91380000  0.87360000  1
  C  C619  1  0.70500000  0.91440000  0.33940000  1
  C  C620  1  0.14345000  0.91471000  0.87348000  1
  C  C621  1  0.73326000  0.92648000  0.89610000  1
  C  C622  1  0.24040000  0.92940000  0.65960000  1
  C  C623  1  0.05859000  0.92940000  0.89172000  1
  C  C624  1  0.44410000  0.92964000  0.16960000  1
  C  C625  1  0.78410000  0.93283000  0.90025000  1
  C  C626  1  0.51930000  0.93320000  0.80690000  1
  C  C627  1  0.11146000  0.93326000  0.89864000  1
  C  C628  1  0.19558000  0.93433000  0.04226000  1
  C  C629  1  0.87081000  0.93438000  0.04239000  1
  C  C630  1  0.32580000  0.93480000  0.32230000  1
  C  C631  1  0.21860000  0.93950000  0.58950000  1
  C  C632  1  0.67680000  0.95080000  0.61510000  1
  C  C633  1  0.23910000  0.95340000  0.62540000  1
  C  C634  1  0.12919000  0.95761000  0.93438000  1
  C  C635  1  0.80442000  0.95774000  0.93433000  1
  C  C636  1  0.45170000  0.96010000  0.76300000  1
  C  C637  1  0.48270000  0.96600000  0.79540000  1
  C  C638  1  0.44630000  0.96790000  0.19370000  1
  C  C639  1  0.41720000  0.97371000  0.22690000  1
  C  C640  1  0.41740000  0.98970000  0.74970000  1
  C  C641  1  0.29300000  0.99040000  0.34810000  1
  C  C642  1  0.35420000  0.99500000  0.30170000  1
  C  C643  1  0.47910000  0.99890000  0.18170000  1
  N  N644  1  0.25610000  0.00690000  0.37330000  1
  N  N645  1  0.32300000  0.01452000  0.32860000  1
  N  N646  1  0.38500000  0.02006000  0.28120000  1
  N  N647  1  0.35860000  0.04412000  0.70170000  1
  N  N648  1  0.29380000  0.05040000  0.65190000  1
  N  N649  1  0.98914000  0.09530000  0.14410000  1
  N  N650  1  0.32890000  0.10654000  0.68430000  1
  N  N651  1  0.91032000  0.11240000  0.16310000  1
  N  N652  1  0.75610000  0.12670000  0.49310000  1
  N  N653  1  0.83032000  0.13430000  0.18333000  1
  N  N654  1  0.01086000  0.14410000  0.90470000  1
  N  N655  1  0.97998000  0.14700000  0.19160000  1
  N  N656  1  0.79380000  0.15190000  0.55040000  1
  N  N657  1  0.08968000  0.16310000  0.88760000  1
  N  N658  1  0.89670000  0.16570000  0.21010000  1
  N  N659  1  0.82300000  0.17140000  0.48548000  1
  N  N660  1  0.16968000  0.18333000  0.86570000  1
  N  N661  1  0.82890000  0.18430000  0.60654000  1
  N  N662  1  0.02002000  0.19160000  0.85300000  1
  N  N663  1  0.96785000  0.19890000  0.23590000  1
  N  N664  1  0.85860000  0.20170000  0.54412000  1
  N  N665  1  0.10330000  0.21010000  0.83430000  1
  N  N666  1  0.88500000  0.21880000  0.47994000  1
  N  N667  1  0.03215000  0.23590000  0.80110000  1
  N  N668  1  0.46785000  0.26410000  0.30110000  1
  N  N669  1  0.61500000  0.28120000  0.97994000  1
  N  N670  1  0.39670000  0.28990000  0.33430000  1
  N  N671  1  0.64140000  0.29830000  0.04412000  1
  N  N672  1  0.53215000  0.30110000  0.73590000  1
  N  N673  1  0.47998000  0.30840000  0.35300000  1
  N  N674  1  0.67110000  0.31570000  0.10654000  1
  N  N675  1  0.33032000  0.31667000  0.36570000  1
  N  N676  1  0.67700000  0.32860000  0.98548000  1
  N  N677  1  0.60330000  0.33430000  0.71010000  1
  N  N678  1  0.41032000  0.33690000  0.38760000  1
  N  N679  1  0.70620000  0.34810000  0.05040000  1
  N  N680  1  0.52002000  0.35300000  0.69160000  1
  N  N681  1  0.48914000  0.35590000  0.40470000  1
  N  N682  1  0.66968000  0.36570000  0.68333000  1
  N  N683  1  0.74390000  0.37330000  0.99310000  1
  N  N684  1  0.58968000  0.38760000  0.66310000  1
  N  N685  1  0.17110000  0.39346000  0.18430000  1
  N  N686  1  0.51086000  0.40470000  0.64410000  1
  N  N687  1  0.20620000  0.44960000  0.15190000  1
  N  N688  1  0.14140000  0.45588000  0.20170000  1
  N  N689  1  0.11500000  0.47994000  0.78120000  1
  N  N690  1  0.17700000  0.48548000  0.82860000  1
  N  N691  1  0.24390000  0.49310000  0.87330000  1
  N  N692  1  0.24390000  0.50690000  0.12670000  1
  N  N693  1  0.17700000  0.51452000  0.17140000  1
  N  N694  1  0.11500000  0.52006000  0.21880000  1
  N  N695  1  0.14140000  0.54412000  0.79830000  1
  N  N696  1  0.20620000  0.55040000  0.84810000  1
  N  N697  1  0.51086000  0.59530000  0.35590000  1
  N  N698  1  0.17110000  0.60654000  0.81570000  1
  N  N699  1  0.58968000  0.61240000  0.33690000  1
  N  N700  1  0.74390000  0.62670000  0.00690000  1
  N  N701  1  0.66968000  0.63430000  0.31667000  1
  N  N702  1  0.48914000  0.64410000  0.59530000  1
  N  N703  1  0.52002000  0.64700000  0.30840000  1
  N  N704  1  0.70620000  0.65190000  0.94960000  1
  N  N705  1  0.41032000  0.66310000  0.61240000  1
  N  N706  1  0.60330000  0.66570000  0.28990000  1
  N  N707  1  0.67700000  0.67140000  0.01452000  1
  N  N708  1  0.33032000  0.68333000  0.63430000  1
  N  N709  1  0.67110000  0.68430000  0.89346000  1
  N  N710  1  0.47998000  0.69160000  0.64700000  1
  N  N711  1  0.53215000  0.69890000  0.26410000  1
  N  N712  1  0.64140000  0.70170000  0.95588000  1
  N  N713  1  0.39670000  0.71010000  0.66570000  1
  N  N714  1  0.61500000  0.71880000  0.02006000  1
  N  N715  1  0.46785000  0.73590000  0.69890000  1
  N  N716  1  0.03215000  0.76410000  0.19890000  1
  N  N717  1  0.88500000  0.78120000  0.52006000  1
  N  N718  1  0.10330000  0.78990000  0.16570000  1
  N  N719  1  0.85860000  0.79830000  0.45588000  1
  N  N720  1  0.96785000  0.80110000  0.76410000  1
  N  N721  1  0.02002000  0.80840000  0.14700000  1
  N  N722  1  0.82890000  0.81570000  0.39346000  1
  N  N723  1  0.16968000  0.81667000  0.13430000  1
  N  N724  1  0.82300000  0.82860000  0.51452000  1
  N  N725  1  0.89670000  0.83430000  0.78990000  1
  N  N726  1  0.08968000  0.83690000  0.11240000  1
  N  N727  1  0.79380000  0.84810000  0.44960000  1
  N  N728  1  0.97998000  0.85300000  0.80840000  1
  N  N729  1  0.01086000  0.85590000  0.09530000  1
  N  N730  1  0.83032000  0.86570000  0.81667000  1
  N  N731  1  0.75610000  0.87330000  0.50690000  1
  N  N732  1  0.91032000  0.88760000  0.83690000  1
  N  N733  1  0.32890000  0.89346000  0.31570000  1
  N  N734  1  0.98914000  0.90470000  0.85590000  1
  N  N735  1  0.29380000  0.94960000  0.34810000  1
  N  N736  1  0.35860000  0.95588000  0.29830000  1
  N  N737  1  0.38500000  0.97994000  0.71880000  1
  N  N738  1  0.32300000  0.98548000  0.67140000  1
  N  N739  1  0.25610000  0.99310000  0.62670000  1
  O  O740  1  0.67480000  0.02010000  0.40390000  1
  O  O741  1  0.77291000  0.02584000  0.04176000  1
  O  O742  1  0.09804000  0.02605000  0.04291000  1
  O  O743  1  0.84995000  0.03781000  0.06126000  1
  O  O744  1  0.17499000  0.03825000  0.06093000  1
  O  O745  1  0.22709000  0.04176000  0.97416000  1
  O  O746  1  0.90196000  0.04291000  0.97395000  1
  O  O747  1  0.66160000  0.04720000  0.35090000  1
  O  O748  1  0.82501000  0.06093000  0.96175000  1
  O  O749  1  0.15005000  0.06126000  0.96219000  1
  O  O750  1  0.70420000  0.06620000  0.62680000  1
  O  O751  1  0.53070000  0.06770000  0.15560000  1
  O  O752  1  0.46560000  0.07287000  0.86371000  1
  O  O753  1  0.67900000  0.07430000  0.69020000  1
  O  O754  1  0.53580000  0.09040000  0.22110000  1
  O  O755  1  0.63107000  0.09256000  0.11190000  1
  O  O756  1  0.17480000  0.09610000  0.47990000  1
  O  O757  1  0.41827000  0.09939000  0.81608000  1
  O  O758  1  0.36893000  0.11190000  0.90744000  1
  O  O759  1  0.23740000  0.12085000  0.27217000  1
  O  O760  1  0.20420000  0.12680000  0.56620000  1
  O  O761  1  0.20810000  0.12775000  0.17965000  1
  O  O762  1  0.64498000  0.12873000  0.16691000  1
  O  O763  1  0.53440000  0.13629000  0.07287000  1
  O  O764  1  0.16160000  0.14910000  0.45280000  1
  O  O765  1  0.48347000  0.15307000  0.15884000  1
  O  O766  1  0.46930000  0.15560000  0.93230000  1
  O  O767  1  0.14638000  0.15660000  0.21154000  1
  O  O768  1  0.51653000  0.15884000  0.84693000  1
  O  O769  1  0.35502000  0.16691000  0.87127000  1
  O  O770  1  0.31057000  0.16701000  0.21100000  1
  O  O771  1  0.19666000  0.16929000  0.30232000  1
  O  O772  1  0.76500000  0.17357000  0.77940000  1
  O  O773  1  0.54541000  0.17762000  0.19422000  1
  O  O774  1  0.79190000  0.17965000  0.87225000  1
  O  O775  1  0.58173000  0.18392000  0.09939000  1
  O  O776  1  0.17900000  0.19020000  0.57430000  1
  O  O777  1  0.45459000  0.19422000  0.82238000  1
  O  O778  1  0.69666000  0.19768000  0.33071000  1
  O  O779  1  0.29409000  0.21012000  0.26122000  1
  O  O780  1  0.68943000  0.21100000  0.83299000  1
  O  O781  1  0.85362000  0.21154000  0.84340000  1
  O  O782  1  0.23500000  0.22060000  0.17357000  1
  O  O783  1  0.46420000  0.22110000  0.90960000  1
  O  O784  1  0.80590000  0.22485000  0.75121000  1
  O  O785  1  0.73740000  0.22783000  0.37915000  1
  O  O786  1  0.79409000  0.23878000  0.28988000  1
  O  O787  1  0.19410000  0.24879000  0.22485000  1
  O  O788  1  0.30590000  0.25121000  0.72485000  1
  O  O789  1  0.70591000  0.26122000  0.78988000  1
  O  O790  1  0.76260000  0.27217000  0.87915000  1
  O  O791  1  0.69410000  0.27515000  0.25121000  1
  O  O792  1  0.03580000  0.27890000  0.40960000  1
  O  O793  1  0.26500000  0.27940000  0.67357000  1
  O  O794  1  0.64638000  0.28846000  0.34340000  1
  O  O795  1  0.81057000  0.28900000  0.33299000  1
  O  O796  1  0.20591000  0.28988000  0.76122000  1
  O  O797  1  0.80334000  0.30232000  0.83071000  1
  O  O798  1  0.04541000  0.30578000  0.32238000  1
  O  O799  1  0.32100000  0.30980000  0.07430000  1
  O  O800  1  0.91827000  0.31608000  0.59939000  1
  O  O801  1  0.70810000  0.32035000  0.37225000  1
  O  O802  1  0.95459000  0.32238000  0.69422000  1
  O  O803  1  0.73500000  0.32643000  0.27940000  1
  O  O804  1  0.30334000  0.33071000  0.80232000  1
  O  O805  1  0.18943000  0.33299000  0.71100000  1
  O  O806  1  0.14498000  0.33309000  0.37127000  1
  O  O807  1  0.98347000  0.34116000  0.34693000  1
  O  O808  1  0.35362000  0.34340000  0.71154000  1
  O  O809  1  0.03070000  0.34440000  0.43230000  1
  O  O810  1  0.01653000  0.34693000  0.65884000  1
  O  O811  1  0.33840000  0.35090000  0.95280000  1
  O  O812  1  0.96560000  0.36371000  0.57287000  1
  O  O813  1  0.85502000  0.37127000  0.66691000  1
  O  O814  1  0.29190000  0.37225000  0.67965000  1
  O  O815  1  0.29580000  0.37320000  0.06620000  1
  O  O816  1  0.26260000  0.37915000  0.77217000  1
  O  O817  1  0.13107000  0.38810000  0.40744000  1
  O  O818  1  0.08173000  0.40061000  0.31608000  1
  O  O819  1  0.32520000  0.40390000  0.97990000  1
  O  O820  1  0.86893000  0.40744000  0.61190000  1
  O  O821  1  0.96420000  0.40960000  0.72110000  1
  O  O822  1  0.82100000  0.42570000  0.19020000  1
  O  O823  1  0.03440000  0.42713000  0.36371000  1
  O  O824  1  0.96930000  0.43230000  0.65560000  1
  O  O825  1  0.79580000  0.43380000  0.12680000  1
  O  O826  1  0.34995000  0.43874000  0.46219000  1
  O  O827  1  0.67499000  0.43907000  0.46175000  1
  O  O828  1  0.83840000  0.45280000  0.85090000  1
  O  O829  1  0.59804000  0.45709000  0.47395000  1
  O  O830  1  0.27291000  0.45824000  0.47416000  1
  O  O831  1  0.32501000  0.46175000  0.56093000  1
  O  O832  1  0.65005000  0.46219000  0.56126000  1
  O  O833  1  0.40196000  0.47395000  0.54291000  1
  O  O834  1  0.72709000  0.47416000  0.54176000  1
  O  O835  1  0.82520000  0.47990000  0.90390000  1
  O  O836  1  0.82520000  0.52010000  0.09610000  1
  O  O837  1  0.72709000  0.52584000  0.45824000  1
  O  O838  1  0.40196000  0.52605000  0.45709000  1
  O  O839  1  0.65005000  0.53781000  0.43874000  1
  O  O840  1  0.32501000  0.53825000  0.43907000  1
  O  O841  1  0.27291000  0.54176000  0.52584000  1
  O  O842  1  0.59804000  0.54291000  0.52605000  1
  O  O843  1  0.83840000  0.54720000  0.14910000  1
  O  O844  1  0.67499000  0.56093000  0.53825000  1
  O  O845  1  0.34995000  0.56126000  0.53781000  1
  O  O846  1  0.79580000  0.56620000  0.87320000  1
  O  O847  1  0.96930000  0.56770000  0.34440000  1
  O  O848  1  0.03440000  0.57287000  0.63629000  1
  O  O849  1  0.82100000  0.57430000  0.80980000  1
  O  O850  1  0.96420000  0.59040000  0.27890000  1
  O  O851  1  0.86893000  0.59256000  0.38810000  1
  O  O852  1  0.32520000  0.59610000  0.02010000  1
  O  O853  1  0.08173000  0.59939000  0.68392000  1
  O  O854  1  0.13107000  0.61190000  0.59256000  1
  O  O855  1  0.26260000  0.62085000  0.22783000  1
  O  O856  1  0.29580000  0.62680000  0.93380000  1
  O  O857  1  0.29190000  0.62775000  0.32035000  1
  O  O858  1  0.85502000  0.62873000  0.33309000  1
  O  O859  1  0.96560000  0.63629000  0.42713000  1
  O  O860  1  0.33840000  0.64910000  0.04720000  1
  O  O861  1  0.01653000  0.65307000  0.34116000  1
  O  O862  1  0.03070000  0.65560000  0.56770000  1
  O  O863  1  0.35362000  0.65660000  0.28846000  1
  O  O864  1  0.98347000  0.65884000  0.65307000  1
  O  O865  1  0.14498000  0.66691000  0.62873000  1
  O  O866  1  0.18943000  0.66701000  0.28900000  1
  O  O867  1  0.30334000  0.66929000  0.19768000  1
  O  O868  1  0.73500000  0.67357000  0.72060000  1
  O  O869  1  0.95459000  0.67762000  0.30578000  1
  O  O870  1  0.70810000  0.67965000  0.62775000  1
  O  O871  1  0.91827000  0.68392000  0.40061000  1
  O  O872  1  0.32100000  0.69020000  0.92570000  1
  O  O873  1  0.04541000  0.69422000  0.67762000  1
  O  O874  1  0.80334000  0.69768000  0.16929000  1
  O  O875  1  0.20591000  0.71012000  0.23878000  1
  O  O876  1  0.81057000  0.71100000  0.66701000  1
  O  O877  1  0.64638000  0.71154000  0.65660000  1
  O  O878  1  0.26500000  0.72060000  0.32643000  1
  O  O879  1  0.03580000  0.72110000  0.59040000  1
  O  O880  1  0.69410000  0.72485000  0.74879000  1
  O  O881  1  0.76260000  0.72783000  0.12085000  1
  O  O882  1  0.70591000  0.73878000  0.21012000  1
  O  O883  1  0.30590000  0.74879000  0.27515000  1
  O  O884  1  0.19410000  0.75121000  0.77515000  1
  O  O885  1  0.79409000  0.76122000  0.71012000  1
  O  O886  1  0.73740000  0.77217000  0.62085000  1
  O  O887  1  0.80590000  0.77515000  0.24879000  1
  O  O888  1  0.46420000  0.77890000  0.09040000  1
  O  O889  1  0.23500000  0.77940000  0.82643000  1
  O  O890  1  0.85362000  0.78846000  0.15660000  1
  O  O891  1  0.68943000  0.78900000  0.16701000  1
  O  O892  1  0.29409000  0.78988000  0.73878000  1
  O  O893  1  0.69666000  0.80232000  0.66929000  1
  O  O894  1  0.45459000  0.80578000  0.17762000  1
  O  O895  1  0.17900000  0.80980000  0.42570000  1
  O  O896  1  0.58173000  0.81608000  0.90061000  1
  O  O897  1  0.79190000  0.82035000  0.12775000  1
  O  O898  1  0.54541000  0.82238000  0.80578000  1
  O  O899  1  0.76500000  0.82643000  0.22060000  1
  O  O900  1  0.19666000  0.83071000  0.69768000  1
  O  O901  1  0.31057000  0.83299000  0.78900000  1
  O  O902  1  0.35502000  0.83309000  0.12873000  1
  O  O903  1  0.51653000  0.84116000  0.15307000  1
  O  O904  1  0.14638000  0.84340000  0.78846000  1
  O  O905  1  0.46930000  0.84440000  0.06770000  1
  O  O906  1  0.48347000  0.84693000  0.84116000  1
  O  O907  1  0.16160000  0.85090000  0.54720000  1
  O  O908  1  0.53440000  0.86371000  0.92713000  1
  O  O909  1  0.64498000  0.87127000  0.83309000  1
  O  O910  1  0.20810000  0.87225000  0.82035000  1
  O  O911  1  0.20420000  0.87320000  0.43380000  1
  O  O912  1  0.23740000  0.87915000  0.72783000  1
  O  O913  1  0.36893000  0.88810000  0.09256000  1
  O  O914  1  0.41827000  0.90061000  0.18392000  1
  O  O915  1  0.17480000  0.90390000  0.52010000  1
  O  O916  1  0.63107000  0.90744000  0.88810000  1
  O  O917  1  0.53580000  0.90960000  0.77890000  1
  O  O918  1  0.67900000  0.92570000  0.30980000  1
  O  O919  1  0.46560000  0.92713000  0.13629000  1
  O  O920  1  0.53070000  0.93230000  0.84440000  1
  O  O921  1  0.70420000  0.93380000  0.37320000  1
  O  O922  1  0.15005000  0.93874000  0.03781000  1
  O  O923  1  0.82501000  0.93907000  0.03825000  1
  O  O924  1  0.66160000  0.95280000  0.64910000  1
  O  O925  1  0.90196000  0.95709000  0.02605000  1
  O  O926  1  0.22709000  0.95824000  0.02584000  1
  O  O927  1  0.17499000  0.96175000  0.93907000  1
  O  O928  1  0.84995000  0.96219000  0.93874000  1
  O  O929  1  0.09804000  0.97395000  0.95709000  1
  O  O930  1  0.77291000  0.97416000  0.95824000  1
  O  O931  1  0.67480000  0.97990000  0.59610000  1
