# generated using pymatgen
data_CdCu4(SO3)4
_symmetry_space_group_name_H-M   'P 1'
_cell_length_a   7.06600000
_cell_length_b   10.31800000
_cell_length_c   10.98100000
_cell_angle_alpha   90.00000000
_cell_angle_beta   90.00000000
_cell_angle_gamma   90.00000000
_symmetry_Int_Tables_number   1
_chemical_formula_structural   CdCu4(SO3)4
_chemical_formula_sum   'Cd2 Cu8 S8 O24'
_cell_volume   800.59163523
_cell_formula_units_Z   2
loop_
 _symmetry_equiv_pos_site_id
 _symmetry_equiv_pos_as_xyz
  1  'x, y, z'
loop_
 _atom_site_type_symbol
 _atom_site_label
 _atom_site_symmetry_multiplicity
 _atom_site_fract_x
 _atom_site_fract_y
 _atom_site_fract_z
 _atom_site_occupancy
  Cd  Cd0  1  1.00000000  0.25000000  0.25000000  1
  Cd  Cd1  1  1.00000000  0.75000000  0.75000000  1
  Cu  Cu2  1  0.38541000  0.09834000  0.10849000  1
  Cu  Cu3  1  0.61459000  0.09834000  0.39151000  1
  Cu  Cu4  1  0.61459000  0.40166000  0.10849000  1
  Cu  Cu5  1  0.38541000  0.40166000  0.39151000  1
  Cu  Cu6  1  0.61459000  0.59834000  0.60849000  1
  Cu  Cu7  1  0.38541000  0.59834000  0.89151000  1
  Cu  Cu8  1  0.38541000  0.90166000  0.60849000  1
  Cu  Cu9  1  0.61459000  0.90166000  0.89151000  1
  S  S10  1  0.69028000  0.09606000  0.11115000  1
  S  S11  1  0.30972000  0.09606000  0.38885000  1
  S  S12  1  0.30972000  0.40394000  0.11115000  1
  S  S13  1  0.69028000  0.40394000  0.38885000  1
  S  S14  1  0.30972000  0.59606000  0.61115000  1
  S  S15  1  0.69028000  0.59606000  0.88885000  1
  S  S16  1  0.69028000  0.90394000  0.61115000  1
  S  S17  1  0.30972000  0.90394000  0.88885000  1
  O  O18  1  0.77280000  0.00980000  0.01460000  1
  O  O19  1  0.22720000  0.00980000  0.48540000  1
  O  O20  1  0.77750000  0.05440000  0.23140000  1
  O  O21  1  0.22250000  0.05440000  0.26860000  1
  O  O22  1  0.77990000  0.22900000  0.09160000  1
  O  O23  1  0.22010000  0.22900000  0.40840000  1
  O  O24  1  0.22010000  0.27100000  0.09160000  1
  O  O25  1  0.77990000  0.27100000  0.40840000  1
  O  O26  1  0.22250000  0.44560000  0.23140000  1
  O  O27  1  0.77750000  0.44560000  0.26860000  1
  O  O28  1  0.22720000  0.49020000  0.01460000  1
  O  O29  1  0.77280000  0.49020000  0.48540000  1
  O  O30  1  0.22720000  0.50980000  0.51460000  1
  O  O31  1  0.77280000  0.50980000  0.98540000  1
  O  O32  1  0.22250000  0.55440000  0.73140000  1
  O  O33  1  0.77750000  0.55440000  0.76860000  1
  O  O34  1  0.22010000  0.72900000  0.59160000  1
  O  O35  1  0.77990000  0.72900000  0.90840000  1
  O  O36  1  0.77990000  0.77100000  0.59160000  1
  O  O37  1  0.22010000  0.77100000  0.90840000  1
  O  O38  1  0.77750000  0.94560000  0.73140000  1
  O  O39  1  0.22250000  0.94560000  0.76860000  1
  O  O40  1  0.77280000  0.99020000  0.51460000  1
  O  O41  1  0.22720000  0.99020000  0.98540000  1
