# generated using pymatgen
data_Cu2H5C9N6O7
_symmetry_space_group_name_H-M   'P 1'
_cell_length_a   6.40940000
_cell_length_b   14.85700000
_cell_length_c   16.06600000
_cell_angle_alpha   90.00000000
_cell_angle_beta   90.00000000
_cell_angle_gamma   90.00000000
_symmetry_Int_Tables_number   1
_chemical_formula_structural   Cu2H5C9N6O7
_chemical_formula_sum   'Cu8 H20 C36 N24 O28'
_cell_volume   1529.87610688
_cell_formula_units_Z   4
loop_
 _symmetry_equiv_pos_site_id
 _symmetry_equiv_pos_as_xyz
  1  'x, y, z'
loop_
 _atom_site_type_symbol
 _atom_site_label
 _atom_site_symmetry_multiplicity
 _atom_site_fract_x
 _atom_site_fract_y
 _atom_site_fract_z
 _atom_site_occupancy
  Cu  Cu0  1  0.01037000  0.75704000  0.50551000  1
  Cu  Cu1  1  0.24230000  0.09184000  0.86393000  1
  Cu  Cu2  1  0.25770000  0.90816000  0.36393000  1
  Cu  Cu3  1  0.48963000  0.24296000  0.00551000  1
  Cu  Cu4  1  0.51037000  0.74296000  0.49449000  1
  Cu  Cu5  1  0.74230000  0.40816000  0.13607000  1
  Cu  Cu6  1  0.75770000  0.59184000  0.63607000  1
  Cu  Cu7  1  0.98963000  0.25704000  0.99449000  1
  H  H8  1  0.12700000  0.51490000  0.24230000  1
  H  H9  1  0.14070000  0.48280000  0.74190000  1
  H  H10  1  0.23460000  0.76430000  0.89640000  1
  H  H11  1  0.23490000  0.92400000  0.10040000  1
  H  H12  1  0.23580000  0.65470000  0.12610000  1
  H  H13  1  0.26420000  0.34530000  0.62610000  1
  H  H14  1  0.26510000  0.07600000  0.60040000  1
  H  H15  1  0.26540000  0.23570000  0.39640000  1
  H  H16  1  0.35930000  0.51720000  0.24190000  1
  H  H17  1  0.37300000  0.48510000  0.74230000  1
  H  H18  1  0.62700000  0.98510000  0.75770000  1
  H  H19  1  0.64070000  0.01720000  0.25810000  1
  H  H20  1  0.73460000  0.73570000  0.10360000  1
  H  H21  1  0.73490000  0.57600000  0.89960000  1
  H  H22  1  0.73580000  0.84530000  0.87390000  1
  H  H23  1  0.76420000  0.15470000  0.37390000  1
  H  H24  1  0.76510000  0.42400000  0.39960000  1
  H  H25  1  0.76540000  0.26430000  0.60360000  1
  H  H26  1  0.85930000  0.98280000  0.75810000  1
  H  H27  1  0.87300000  0.01490000  0.25770000  1
  C  C28  1  0.22840000  0.93890000  0.93340000  1
  C  C29  1  0.23140000  0.85870000  0.98970000  1
  C  C30  1  0.23200000  0.69910000  0.00690000  1
  C  C31  1  0.23300000  0.77190000  0.95380000  1
  C  C32  1  0.23510000  0.86700000  0.07650000  1
  C  C33  1  0.23570000  0.70580000  0.09270000  1
  C  C34  1  0.23730000  0.80190000  0.22200000  1
  C  C35  1  0.23910000  0.79110000  0.12760000  1
  C  C36  1  0.24680000  0.43040000  0.16470000  1
  C  C37  1  0.25320000  0.56960000  0.66470000  1
  C  C38  1  0.26090000  0.20890000  0.62760000  1
  C  C39  1  0.26270000  0.19810000  0.72200000  1
  C  C40  1  0.26430000  0.29420000  0.59270000  1
  C  C41  1  0.26490000  0.13300000  0.57650000  1
  C  C42  1  0.26700000  0.22810000  0.45380000  1
  C  C43  1  0.26800000  0.30090000  0.50690000  1
  C  C44  1  0.26860000  0.14130000  0.48970000  1
  C  C45  1  0.27160000  0.06110000  0.43340000  1
  C  C46  1  0.72840000  0.56110000  0.06660000  1
  C  C47  1  0.73140000  0.64130000  0.01030000  1
  C  C48  1  0.73200000  0.80090000  0.99310000  1
  C  C49  1  0.73300000  0.72810000  0.04620000  1
  C  C50  1  0.73510000  0.63300000  0.92350000  1
  C  C51  1  0.73570000  0.79420000  0.90730000  1
  C  C52  1  0.73730000  0.69810000  0.77800000  1
  C  C53  1  0.73910000  0.70890000  0.87240000  1
  C  C54  1  0.74680000  0.06960000  0.83530000  1
  C  C55  1  0.75320000  0.93040000  0.33530000  1
  C  C56  1  0.76090000  0.29110000  0.37240000  1
  C  C57  1  0.76270000  0.30190000  0.27800000  1
  C  C58  1  0.76430000  0.20580000  0.40730000  1
  C  C59  1  0.76490000  0.36700000  0.42350000  1
  C  C60  1  0.76700000  0.27190000  0.54620000  1
  C  C61  1  0.76800000  0.19910000  0.49310000  1
  C  C62  1  0.76860000  0.35870000  0.51030000  1
  C  C63  1  0.77160000  0.43890000  0.56660000  1
  N  N64  1  0.06700000  0.39510000  0.12960000  1
  N  N65  1  0.08420000  0.60530000  0.63050000  1
  N  N66  1  0.14110000  0.33780000  0.07180000  1
  N  N67  1  0.15710000  0.66470000  0.57470000  1
  N  N68  1  0.23060000  0.60810000  0.96750000  1
  N  N69  1  0.24400000  0.49530000  0.22340000  1
  N  N70  1  0.25600000  0.50470000  0.72340000  1
  N  N71  1  0.26940000  0.39190000  0.46750000  1
  N  N72  1  0.34290000  0.33530000  0.07470000  1
  N  N73  1  0.35890000  0.66220000  0.57180000  1
  N  N74  1  0.41580000  0.39470000  0.13050000  1
  N  N75  1  0.43300000  0.60490000  0.62960000  1
  N  N76  1  0.56700000  0.10490000  0.87040000  1
  N  N77  1  0.58420000  0.89470000  0.36950000  1
  N  N78  1  0.64110000  0.16220000  0.92820000  1
  N  N79  1  0.65710000  0.83530000  0.42530000  1
  N  N80  1  0.73060000  0.89190000  0.03250000  1
  N  N81  1  0.74400000  0.00470000  0.77660000  1
  N  N82  1  0.75600000  0.99530000  0.27660000  1
  N  N83  1  0.76940000  0.10810000  0.53250000  1
  N  N84  1  0.84290000  0.16470000  0.92530000  1
  N  N85  1  0.85890000  0.83780000  0.42820000  1
  N  N86  1  0.91580000  0.10530000  0.86950000  1
  N  N87  1  0.93300000  0.89510000  0.37040000  1
  O  O88  1  0.21930000  0.92850000  0.85780000  1
  O  O89  1  0.22200000  0.73420000  0.26690000  1
  O  O90  1  0.23070000  0.60390000  0.89220000  1
  O  O91  1  0.23730000  0.01750000  0.96720000  1
  O  O92  1  0.24070000  0.54330000  0.01420000  1
  O  O93  1  0.24250000  0.11820000  0.74750000  1
  O  O94  1  0.24510000  0.22630000  0.93660000  1
  O  O95  1  0.25490000  0.77370000  0.43660000  1
  O  O96  1  0.25750000  0.88180000  0.24750000  1
  O  O97  1  0.25930000  0.45670000  0.51420000  1
  O  O98  1  0.26270000  0.98250000  0.46720000  1
  O  O99  1  0.26930000  0.39610000  0.39220000  1
  O  O100  1  0.27800000  0.26580000  0.76690000  1
  O  O101  1  0.28070000  0.07150000  0.35780000  1
  O  O102  1  0.71930000  0.57150000  0.14220000  1
  O  O103  1  0.72200000  0.76580000  0.73310000  1
  O  O104  1  0.73070000  0.89610000  0.10780000  1
  O  O105  1  0.73730000  0.48250000  0.03280000  1
  O  O106  1  0.74070000  0.95670000  0.98580000  1
  O  O107  1  0.74250000  0.38180000  0.25250000  1
  O  O108  1  0.74510000  0.27370000  0.06340000  1
  O  O109  1  0.75490000  0.72630000  0.56340000  1
  O  O110  1  0.75750000  0.61820000  0.75250000  1
  O  O111  1  0.75930000  0.04330000  0.48580000  1
  O  O112  1  0.76270000  0.51750000  0.53280000  1
  O  O113  1  0.76930000  0.10390000  0.60780000  1
  O  O114  1  0.77800000  0.23420000  0.23310000  1
  O  O115  1  0.78070000  0.42850000  0.64220000  1
