# generated using pymatgen
data_Sc3H12C24O13
_symmetry_space_group_name_H-M   'P 1'
_cell_length_a   14.05600000
_cell_length_b   14.05600000
_cell_length_c   18.09900000
_cell_angle_alpha   90.00000000
_cell_angle_beta   90.00000000
_cell_angle_gamma   120.00000000
_symmetry_Int_Tables_number   1
_chemical_formula_structural   Sc3H12C24O13
_chemical_formula_sum   'Sc6 H24 C48 O26'
_cell_volume   3096.76827161
_cell_formula_units_Z   2
loop_
 _symmetry_equiv_pos_site_id
 _symmetry_equiv_pos_as_xyz
  1  'x, y, z'
loop_
 _atom_site_type_symbol
 _atom_site_label
 _atom_site_symmetry_multiplicity
 _atom_site_fract_x
 _atom_site_fract_y
 _atom_site_fract_z
 _atom_site_occupancy
  Sc  Sc0  1  0.74986000  0.25014000  0.75000000  1
  Sc  Sc1  1  0.74986000  0.49972000  0.75000000  1
  Sc  Sc2  1  0.50028000  0.25014000  0.75000000  1
  Sc  Sc3  1  0.49972000  0.74986000  0.25000000  1
  Sc  Sc4  1  0.25014000  0.50028000  0.25000000  1
  Sc  Sc5  1  0.25014000  0.74986000  0.25000000  1
  H  H6  1  0.95380000  0.33290000  0.94330000  1
  H  H7  1  0.95380000  0.33290000  0.55670000  1
  H  H8  1  0.95380000  0.62090000  0.94330000  1
  H  H9  1  0.95380000  0.62090000  0.55670000  1
  H  H10  1  0.66710000  0.04620000  0.94330000  1
  H  H11  1  0.66710000  0.04620000  0.55670000  1
  H  H12  1  0.66710000  0.62090000  0.94330000  1
  H  H13  1  0.66710000  0.62090000  0.55670000  1
  H  H14  1  0.62090000  0.66710000  0.44330000  1
  H  H15  1  0.62090000  0.66710000  0.05670000  1
  H  H16  1  0.62090000  0.95380000  0.44330000  1
  H  H17  1  0.62090000  0.95380000  0.05670000  1
  H  H18  1  0.37910000  0.04620000  0.94330000  1
  H  H19  1  0.37910000  0.04620000  0.55670000  1
  H  H20  1  0.37910000  0.33290000  0.94330000  1
  H  H21  1  0.37910000  0.33290000  0.55670000  1
  H  H22  1  0.33290000  0.37910000  0.44330000  1
  H  H23  1  0.33290000  0.37910000  0.05670000  1
  H  H24  1  0.33290000  0.95380000  0.44330000  1
  H  H25  1  0.33290000  0.95380000  0.05670000  1
  H  H26  1  0.04620000  0.37910000  0.44330000  1
  H  H27  1  0.04620000  0.37910000  0.05670000  1
  H  H28  1  0.04620000  0.66710000  0.44330000  1
  H  H29  1  0.04620000  0.66710000  0.05670000  1
  C  C30  1  0.97240000  0.40070000  0.96638000  1
  C  C31  1  0.97240000  0.40070000  0.53362000  1
  C  C32  1  0.97240000  0.57170000  0.96638000  1
  C  C33  1  0.97240000  0.57170000  0.53362000  1
  C  C34  1  0.94460000  0.47230000  0.93294000  1
  C  C35  1  0.94460000  0.47230000  0.56706000  1
  C  C36  1  0.88360000  0.44180000  0.86118000  1
  C  C37  1  0.88360000  0.44180000  0.63882000  1
  C  C38  1  0.59930000  0.02760000  0.96638000  1
  C  C39  1  0.59930000  0.02760000  0.53362000  1
  C  C40  1  0.59930000  0.57170000  0.96638000  1
  C  C41  1  0.59930000  0.57170000  0.53362000  1
  C  C42  1  0.57170000  0.59930000  0.46638000  1
  C  C43  1  0.57170000  0.59930000  0.03362000  1
  C  C44  1  0.57170000  0.97240000  0.46638000  1
  C  C45  1  0.57170000  0.97240000  0.03362000  1
  C  C46  1  0.55820000  0.11640000  0.86118000  1
  C  C47  1  0.55820000  0.11640000  0.63882000  1
  C  C48  1  0.55820000  0.44180000  0.86118000  1
  C  C49  1  0.55820000  0.44180000  0.63882000  1
  C  C50  1  0.52770000  0.05540000  0.93294000  1
  C  C51  1  0.52770000  0.05540000  0.56706000  1
  C  C52  1  0.52770000  0.47230000  0.93294000  1
  C  C53  1  0.52770000  0.47230000  0.56706000  1
  C  C54  1  0.47230000  0.52770000  0.43294000  1
  C  C55  1  0.47230000  0.52770000  0.06706000  1
  C  C56  1  0.47230000  0.94460000  0.43294000  1
  C  C57  1  0.47230000  0.94460000  0.06706000  1
  C  C58  1  0.44180000  0.55820000  0.36118000  1
  C  C59  1  0.44180000  0.55820000  0.13882000  1
  C  C60  1  0.44180000  0.88360000  0.36118000  1
  C  C61  1  0.44180000  0.88360000  0.13882000  1
  C  C62  1  0.42830000  0.02760000  0.96638000  1
  C  C63  1  0.42830000  0.02760000  0.53362000  1
  C  C64  1  0.42830000  0.40070000  0.96638000  1
  C  C65  1  0.42830000  0.40070000  0.53362000  1
  C  C66  1  0.40070000  0.42830000  0.46638000  1
  C  C67  1  0.40070000  0.42830000  0.03362000  1
  C  C68  1  0.40070000  0.97240000  0.46638000  1
  C  C69  1  0.40070000  0.97240000  0.03362000  1
  C  C70  1  0.11640000  0.55820000  0.36118000  1
  C  C71  1  0.11640000  0.55820000  0.13882000  1
  C  C72  1  0.05540000  0.52770000  0.43294000  1
  C  C73  1  0.05540000  0.52770000  0.06706000  1
  C  C74  1  0.02760000  0.42830000  0.46638000  1
  C  C75  1  0.02760000  0.42830000  0.03362000  1
  C  C76  1  0.02760000  0.59930000  0.46638000  1
  C  C77  1  0.02760000  0.59930000  0.03362000  1
  O  O78  1  0.85867000  0.34937000  0.83341000  1
  O  O79  1  0.85867000  0.34937000  0.66659000  1
  O  O80  1  0.85867000  0.50930000  0.83341000  1
  O  O81  1  0.85867000  0.50930000  0.66659000  1
  O  O82  1  0.66666667  0.33333333  0.75000000  1
  O  O83  1  0.65063000  0.14133000  0.83341000  1
  O  O84  1  0.65063000  0.14133000  0.66659000  1
  O  O85  1  0.65063000  0.50930000  0.83341000  1
  O  O86  1  0.65063000  0.50930000  0.66659000  1
  O  O87  1  0.50930000  0.65063000  0.33341000  1
  O  O88  1  0.50930000  0.65063000  0.16659000  1
  O  O89  1  0.50930000  0.85867000  0.33341000  1
  O  O90  1  0.50930000  0.85867000  0.16659000  1
  O  O91  1  0.49070000  0.14133000  0.83341000  1
  O  O92  1  0.49070000  0.14133000  0.66659000  1
  O  O93  1  0.49070000  0.34937000  0.83341000  1
  O  O94  1  0.49070000  0.34937000  0.66659000  1
  O  O95  1  0.34937000  0.49070000  0.33341000  1
  O  O96  1  0.34937000  0.49070000  0.16659000  1
  O  O97  1  0.34937000  0.85867000  0.33341000  1
  O  O98  1  0.34937000  0.85867000  0.16659000  1
  O  O99  1  0.33333333  0.66666667  0.25000000  1
  O  O100  1  0.14133000  0.49070000  0.33341000  1
  O  O101  1  0.14133000  0.49070000  0.16659000  1
  O  O102  1  0.14133000  0.65063000  0.33341000  1
  O  O103  1  0.14133000  0.65063000  0.16659000  1
