# generated using pymatgen
data_LaH12C18(N3O2)3
_symmetry_space_group_name_H-M   'P 1'
_cell_length_a   8.77940000
_cell_length_b   12.40110000
_cell_length_c   24.89710000
_cell_angle_alpha   90.00000000
_cell_angle_beta   90.00000000
_cell_angle_gamma   92.26200000
_symmetry_Int_Tables_number   1
_chemical_formula_structural   LaH12C18(N3O2)3
_chemical_formula_sum   'La4 H48 C72 N36 O24'
_cell_volume   2708.54011397
_cell_formula_units_Z   4
loop_
 _symmetry_equiv_pos_site_id
 _symmetry_equiv_pos_as_xyz
  1  'x, y, z'
loop_
 _atom_site_type_symbol
 _atom_site_label
 _atom_site_symmetry_multiplicity
 _atom_site_fract_x
 _atom_site_fract_y
 _atom_site_fract_z
 _atom_site_occupancy
  La  La0  1  0.24525000  0.99796000  0.99154000  1
  La  La1  1  0.25475000  0.00204000  0.49154000  1
  La  La2  1  0.74525000  0.99796000  0.50846000  1
  La  La3  1  0.75475000  0.00204000  0.00846000  1
  H  H4  1  0.01810000  0.32750000  0.63180000  1
  H  H5  1  0.04810000  0.27520000  0.79440000  1
  H  H6  1  0.05480000  0.66470000  0.51320000  1
  H  H7  1  0.08950000  0.15440000  0.32340000  1
  H  H8  1  0.09710000  0.43320000  0.30600000  1
  H  H9  1  0.09720000  0.71450000  0.85330000  1
  H  H10  1  0.10250000  0.40210000  0.14440000  1
  H  H11  1  0.10260000  0.72690000  0.06840000  1
  H  H12  1  0.11700000  0.79920000  0.12080000  1
  H  H13  1  0.12500000  0.72210000  0.46140000  1
  H  H14  1  0.12720000  0.36990000  0.71630000  1
  H  H15  1  0.16890000  0.05450000  0.29790000  1
  H  H16  1  0.33110000  0.94550000  0.79790000  1
  H  H17  1  0.37280000  0.63010000  0.21630000  1
  H  H18  1  0.37500000  0.27790000  0.96140000  1
  H  H19  1  0.38300000  0.20080000  0.62080000  1
  H  H20  1  0.39740000  0.27310000  0.56840000  1
  H  H21  1  0.39750000  0.59790000  0.64440000  1
  H  H22  1  0.40280000  0.28550000  0.35330000  1
  H  H23  1  0.40290000  0.56680000  0.80600000  1
  H  H24  1  0.41050000  0.84560000  0.82340000  1
  H  H25  1  0.44520000  0.33530000  0.01320000  1
  H  H26  1  0.45190000  0.72480000  0.29440000  1
  H  H27  1  0.48190000  0.67250000  0.13180000  1
  H  H28  1  0.51810000  0.32750000  0.86820000  1
  H  H29  1  0.54810000  0.27520000  0.70560000  1
  H  H30  1  0.55480000  0.66470000  0.98680000  1
  H  H31  1  0.58950000  0.15440000  0.17660000  1
  H  H32  1  0.59710000  0.43320000  0.19400000  1
  H  H33  1  0.59720000  0.71450000  0.64670000  1
  H  H34  1  0.60250000  0.40210000  0.35560000  1
  H  H35  1  0.60260000  0.72690000  0.43160000  1
  H  H36  1  0.61700000  0.79920000  0.37920000  1
  H  H37  1  0.62500000  0.72210000  0.03860000  1
  H  H38  1  0.62720000  0.36990000  0.78370000  1
  H  H39  1  0.66890000  0.05450000  0.20210000  1
  H  H40  1  0.83110000  0.94550000  0.70210000  1
  H  H41  1  0.87280000  0.63010000  0.28370000  1
  H  H42  1  0.87500000  0.27790000  0.53860000  1
  H  H43  1  0.88300000  0.20080000  0.87920000  1
  H  H44  1  0.89740000  0.27310000  0.93160000  1
  H  H45  1  0.89750000  0.59790000  0.85560000  1
  H  H46  1  0.90280000  0.28550000  0.14670000  1
  H  H47  1  0.90290000  0.56680000  0.69400000  1
  H  H48  1  0.91050000  0.84560000  0.67660000  1
  H  H49  1  0.94520000  0.33530000  0.48680000  1
  H  H50  1  0.95190000  0.72480000  0.20560000  1
  H  H51  1  0.98190000  0.67250000  0.36820000  1
  C  C52  1  0.02950000  0.70100000  0.47960000  1
  C  C53  1  0.03510000  0.68290000  0.77360000  1
  C  C54  1  0.04430000  0.76340000  0.09610000  1
  C  C55  1  0.05230000  0.15290000  0.93000000  1
  C  C56  1  0.05960000  0.19910000  0.50815000  1
  C  C57  1  0.07500000  0.37080000  0.60750000  1
  C  C58  1  0.08130000  0.40540000  0.22520000  1
  C  C59  1  0.08370000  0.32160000  0.82200000  1
  C  C60  1  0.10900000  0.73170000  0.81670000  1
  C  C61  1  0.13540000  0.45550000  0.27240000  1
  C  C62  1  0.13840000  0.43730000  0.17560000  1
  C  C63  1  0.18360000  0.41060000  0.81740000  1
  C  C64  1  0.18610000  0.11770000  0.32100000  1
  C  C65  1  0.18960000  0.44600000  0.61950000  1
  C  C66  1  0.19940000  0.42770000  0.71860000  1
  C  C67  1  0.22720000  0.07910000  0.37642000  1
  C  C68  1  0.24790000  0.53950000  0.26880000  1
  C  C69  1  0.24900000  0.52140000  0.17150000  1
  C  C70  1  0.25100000  0.47860000  0.67150000  1
  C  C71  1  0.25210000  0.46050000  0.76880000  1
  C  C72  1  0.27280000  0.92090000  0.87642000  1
  C  C73  1  0.30060000  0.57230000  0.21860000  1
  C  C74  1  0.31040000  0.55400000  0.11950000  1
  C  C75  1  0.31390000  0.88230000  0.82100000  1
  C  C76  1  0.31640000  0.58940000  0.31740000  1
  C  C77  1  0.36160000  0.56270000  0.67560000  1
  C  C78  1  0.36460000  0.54450000  0.77240000  1
  C  C79  1  0.39100000  0.26830000  0.31670000  1
  C  C80  1  0.41630000  0.67840000  0.32200000  1
  C  C81  1  0.41870000  0.59460000  0.72520000  1
  C  C82  1  0.42500000  0.62920000  0.10750000  1
  C  C83  1  0.44040000  0.80090000  0.00815000  1
  C  C84  1  0.44770000  0.84710000  0.43000000  1
  C  C85  1  0.45570000  0.23660000  0.59610000  1
  C  C86  1  0.46490000  0.31710000  0.27360000  1
  C  C87  1  0.47050000  0.29900000  0.97960000  1
  C  C88  1  0.52950000  0.70100000  0.02040000  1
  C  C89  1  0.53510000  0.68290000  0.72640000  1
  C  C90  1  0.54430000  0.76340000  0.40390000  1
  C  C91  1  0.55230000  0.15290000  0.57000000  1
  C  C92  1  0.55960000  0.19910000  0.99185000  1
  C  C93  1  0.57500000  0.37080000  0.89250000  1
  C  C94  1  0.58130000  0.40540000  0.27480000  1
  C  C95  1  0.58370000  0.32160000  0.67800000  1
  C  C96  1  0.60900000  0.73170000  0.68330000  1
  C  C97  1  0.63540000  0.45550000  0.22760000  1
  C  C98  1  0.63840000  0.43730000  0.32440000  1
  C  C99  1  0.68360000  0.41060000  0.68260000  1
  C  C100  1  0.68610000  0.11770000  0.17900000  1
  C  C101  1  0.68960000  0.44600000  0.88050000  1
  C  C102  1  0.69940000  0.42770000  0.78140000  1
  C  C103  1  0.72720000  0.07910000  0.12358000  1
  C  C104  1  0.74790000  0.53950000  0.23120000  1
  C  C105  1  0.74900000  0.52140000  0.32850000  1
  C  C106  1  0.75100000  0.47860000  0.82850000  1
  C  C107  1  0.75210000  0.46050000  0.73120000  1
  C  C108  1  0.77280000  0.92090000  0.62358000  1
  C  C109  1  0.80060000  0.57230000  0.28140000  1
  C  C110  1  0.81040000  0.55400000  0.38050000  1
  C  C111  1  0.81390000  0.88230000  0.67900000  1
  C  C112  1  0.81640000  0.58940000  0.18260000  1
  C  C113  1  0.86160000  0.56270000  0.82440000  1
  C  C114  1  0.86460000  0.54450000  0.72760000  1
  C  C115  1  0.89100000  0.26830000  0.18330000  1
  C  C116  1  0.91630000  0.67840000  0.17800000  1
  C  C117  1  0.91870000  0.59460000  0.77480000  1
  C  C118  1  0.92500000  0.62920000  0.39250000  1
  C  C119  1  0.94040000  0.80090000  0.49185000  1
  C  C120  1  0.94770000  0.84710000  0.07000000  1
  C  C121  1  0.95570000  0.23660000  0.90390000  1
  C  C122  1  0.96490000  0.31710000  0.22640000  1
  C  C123  1  0.97050000  0.29900000  0.52040000  1
  N  N124  1  0.04940000  0.31660000  0.87437000  1
  N  N125  1  0.06140000  0.37240000  0.55444000  1
  N  N126  1  0.08890000  0.73230000  0.72837000  1
  N  N127  1  0.12270000  0.39480000  0.90198000  1
  N  N128  1  0.16190000  0.44440000  0.53195000  1
  N  N129  1  0.19030000  0.80880000  0.74145000  1
  N  N130  1  0.20190000  0.80940000  0.79500000  1
  N  N131  1  0.20490000  0.45300000  0.86707000  1
  N  N132  1  0.23910000  0.48990000  0.57206000  1
  N  N133  1  0.26090000  0.51010000  0.07206000  1
  N  N134  1  0.29510000  0.54700000  0.36707000  1
  N  N135  1  0.29810000  0.19060000  0.29500000  1
  N  N136  1  0.30970000  0.19120000  0.24145000  1
  N  N137  1  0.33810000  0.55560000  0.03195000  1
  N  N138  1  0.37730000  0.60520000  0.40198000  1
  N  N139  1  0.41110000  0.26770000  0.22837000  1
  N  N140  1  0.43860000  0.62760000  0.05444000  1
  N  N141  1  0.45060000  0.68340000  0.37437000  1
  N  N142  1  0.54940000  0.31660000  0.62563000  1
  N  N143  1  0.56140000  0.37240000  0.94556000  1
  N  N144  1  0.58890000  0.73230000  0.77163000  1
  N  N145  1  0.62270000  0.39480000  0.59802000  1
  N  N146  1  0.66190000  0.44440000  0.96805000  1
  N  N147  1  0.69030000  0.80880000  0.75855000  1
  N  N148  1  0.70190000  0.80940000  0.70500000  1
  N  N149  1  0.70490000  0.45300000  0.63293000  1
  N  N150  1  0.73910000  0.48990000  0.92794000  1
  N  N151  1  0.76090000  0.51010000  0.42794000  1
  N  N152  1  0.79510000  0.54700000  0.13293000  1
  N  N153  1  0.79810000  0.19060000  0.20500000  1
  N  N154  1  0.80970000  0.19120000  0.25855000  1
  N  N155  1  0.83810000  0.55560000  0.46805000  1
  N  N156  1  0.87730000  0.60520000  0.09802000  1
  N  N157  1  0.91110000  0.26770000  0.27163000  1
  N  N158  1  0.93860000  0.62760000  0.44556000  1
  N  N159  1  0.95060000  0.68340000  0.12563000  1
  O  O160  1  0.01370000  0.89090000  0.49636000  1
  O  O161  1  0.01640000  0.91620000  0.03884000  1
  O  O162  1  0.11900000  0.03110000  0.40138000  1
  O  O163  1  0.14270000  0.90820000  0.89650000  1
  O  O164  1  0.19170000  0.15160000  0.92206000  1
  O  O165  1  0.20110000  0.20620000  0.50242000  1
  O  O166  1  0.29890000  0.79380000  0.00242000  1
  O  O167  1  0.30830000  0.84840000  0.42206000  1
  O  O168  1  0.35730000  0.09180000  0.39650000  1
  O  O169  1  0.38100000  0.96890000  0.90138000  1
  O  O170  1  0.48360000  0.08380000  0.53884000  1
  O  O171  1  0.48630000  0.10910000  0.99636000  1
  O  O172  1  0.51370000  0.89090000  0.00364000  1
  O  O173  1  0.51640000  0.91620000  0.46116000  1
  O  O174  1  0.61900000  0.03110000  0.09862000  1
  O  O175  1  0.64270000  0.90820000  0.60350000  1
  O  O176  1  0.69170000  0.15160000  0.57794000  1
  O  O177  1  0.70110000  0.20620000  0.99758000  1
  O  O178  1  0.79890000  0.79380000  0.49758000  1
  O  O179  1  0.80830000  0.84840000  0.07794000  1
  O  O180  1  0.85730000  0.09180000  0.10350000  1
  O  O181  1  0.88100000  0.96890000  0.59862000  1
  O  O182  1  0.98360000  0.08380000  0.96116000  1
  O  O183  1  0.98630000  0.10910000  0.50364000  1
