# generated using pymatgen
data_ZnHC4N11
_symmetry_space_group_name_H-M   'P 1'
_cell_length_a   14.62060000
_cell_length_b   14.62060000
_cell_length_c   14.62060000
_cell_angle_alpha   109.38000000
_cell_angle_beta   109.38000000
_cell_angle_gamma   109.38000000
_symmetry_Int_Tables_number   1
_chemical_formula_structural   ZnHC4N11
_chemical_formula_sum   'Zn6 H6 C24 N66'
_cell_volume   2413.96984179
_cell_formula_units_Z   6
loop_
 _symmetry_equiv_pos_site_id
 _symmetry_equiv_pos_as_xyz
  1  'x, y, z'
loop_
 _atom_site_type_symbol
 _atom_site_label
 _atom_site_symmetry_multiplicity
 _atom_site_fract_x
 _atom_site_fract_y
 _atom_site_fract_z
 _atom_site_occupancy
  Zn  Zn0  1  0.55036000  0.80078000  0.30648000  1
  Zn  Zn1  1  0.19922000  0.69352000  0.44964000  1
  Zn  Zn2  1  0.30648000  0.55036000  0.80078000  1
  Zn  Zn3  1  0.69352000  0.44964000  0.19922000  1
  Zn  Zn4  1  0.80078000  0.30648000  0.55036000  1
  Zn  Zn5  1  0.44964000  0.19922000  0.69352000  1
  H  H6  1  0.30720000  0.94000000  0.30570000  1
  H  H7  1  0.06000000  0.69430000  0.69280000  1
  H  H8  1  0.69430000  0.69280000  0.06000000  1
  H  H9  1  0.30570000  0.30720000  0.94000000  1
  H  H10  1  0.94000000  0.30570000  0.30720000  1
  H  H11  1  0.69280000  0.06000000  0.69430000  1
  C  C12  1  0.44952000  0.94952000  0.58276000  1
  C  C13  1  0.34609000  0.94794000  0.57077000  1
  C  C14  1  0.47143000  0.87589000  0.51628000  1
  C  C15  1  0.39848000  0.77005000  0.41187000  1
  C  C16  1  0.42923000  0.65391000  0.05206000  1
  C  C17  1  0.58813000  0.60152000  0.22995000  1
  C  C18  1  0.22995000  0.58813000  0.60152000  1
  C  C19  1  0.94952000  0.58276000  0.44952000  1
  C  C20  1  0.94794000  0.57077000  0.34609000  1
  C  C21  1  0.41724000  0.55048000  0.05048000  1
  C  C22  1  0.48372000  0.52857000  0.12411000  1
  C  C23  1  0.87589000  0.51628000  0.47143000  1
  C  C24  1  0.12411000  0.48372000  0.52857000  1
  C  C25  1  0.51628000  0.47143000  0.87589000  1
  C  C26  1  0.58276000  0.44952000  0.94952000  1
  C  C27  1  0.05206000  0.42923000  0.65391000  1
  C  C28  1  0.05048000  0.41724000  0.55048000  1
  C  C29  1  0.77005000  0.41187000  0.39848000  1
  C  C30  1  0.41187000  0.39848000  0.77005000  1
  C  C31  1  0.57077000  0.34609000  0.94794000  1
  C  C32  1  0.60152000  0.22995000  0.58813000  1
  C  C33  1  0.52857000  0.12411000  0.48372000  1
  C  C34  1  0.65391000  0.05206000  0.42923000  1
  C  C35  1  0.55048000  0.05048000  0.41724000  1
  N  N36  1  0.77027000  0.99679000  0.41854000  1
  N  N37  1  0.37770000  0.98470000  0.35010000  1
  N  N38  1  0.45349000  0.96178000  0.33293000  1
  N  N39  1  0.66245000  0.96122000  0.39063000  1
  N  N40  1  0.58229000  0.92034000  0.56107000  1
  N  N41  1  0.17501000  0.89533000  0.52836000  1
  N  N42  1  0.24704000  0.85738000  0.51978000  1
  N  N43  1  0.47164000  0.82499000  0.10467000  1
  N  N44  1  0.41854000  0.77027000  0.99679000  1
  N  N45  1  0.48022000  0.75296000  0.14262000  1
  N  N46  1  0.36820000  0.74620000  0.65950000  1
  N  N47  1  0.72030000  0.73730000  0.39310000  1
  N  N48  1  0.42720000  0.73459000  0.33521000  1
  N  N49  1  0.39310000  0.72030000  0.73730000  1
  N  N50  1  0.62106000  0.70367000  0.30697000  1
  N  N51  1  0.29633000  0.69303000  0.37894000  1
  N  N52  1  0.03822000  0.66707000  0.54651000  1
  N  N53  1  0.26541000  0.66479000  0.57280000  1
  N  N54  1  0.39063000  0.66245000  0.96122000  1
  N  N55  1  0.74620000  0.65950000  0.36820000  1
  N  N56  1  0.01530000  0.64990000  0.62230000  1
  N  N57  1  0.34050000  0.63180000  0.25380000  1
  N  N58  1  0.64990000  0.62230000  0.01530000  1
  N  N59  1  0.30697000  0.62106000  0.70367000  1
  N  N60  1  0.03878000  0.60937000  0.33755000  1
  N  N61  1  0.26270000  0.60690000  0.27970000  1
  N  N62  1  0.56107000  0.58229000  0.92034000  1
  N  N63  1  0.00321000  0.58146000  0.22973000  1
  N  N64  1  0.66479000  0.57280000  0.26541000  1
  N  N65  1  0.92034000  0.56107000  0.58229000  1
  N  N66  1  0.66707000  0.54651000  0.03822000  1
  N  N67  1  0.89533000  0.52836000  0.17501000  1
  N  N68  1  0.85738000  0.51978000  0.24704000  1
  N  N69  1  0.14262000  0.48022000  0.75296000  1
  N  N70  1  0.10467000  0.47164000  0.82499000  1
  N  N71  1  0.33293000  0.45349000  0.96178000  1
  N  N72  1  0.07966000  0.43893000  0.41771000  1
  N  N73  1  0.33521000  0.42720000  0.73459000  1
  N  N74  1  0.99679000  0.41854000  0.77027000  1
  N  N75  1  0.43893000  0.41771000  0.07966000  1
  N  N76  1  0.73730000  0.39310000  0.72030000  1
  N  N77  1  0.96122000  0.39063000  0.66245000  1
  N  N78  1  0.69303000  0.37894000  0.29633000  1
  N  N79  1  0.35010000  0.37770000  0.98470000  1
  N  N80  1  0.65950000  0.36820000  0.74620000  1
  N  N81  1  0.98470000  0.35010000  0.37770000  1
  N  N82  1  0.25380000  0.34050000  0.63180000  1
  N  N83  1  0.60937000  0.33755000  0.03878000  1
  N  N84  1  0.73459000  0.33521000  0.42720000  1
  N  N85  1  0.96178000  0.33293000  0.45349000  1
  N  N86  1  0.70367000  0.30697000  0.62106000  1
  N  N87  1  0.37894000  0.29633000  0.69303000  1
  N  N88  1  0.60690000  0.27970000  0.26270000  1
  N  N89  1  0.57280000  0.26541000  0.66479000  1
  N  N90  1  0.27970000  0.26270000  0.60690000  1
  N  N91  1  0.63180000  0.25380000  0.34050000  1
  N  N92  1  0.51978000  0.24704000  0.85738000  1
  N  N93  1  0.58146000  0.22973000  0.00321000  1
  N  N94  1  0.52836000  0.17501000  0.89533000  1
  N  N95  1  0.75296000  0.14262000  0.48022000  1
  N  N96  1  0.82499000  0.10467000  0.47164000  1
  N  N97  1  0.41771000  0.07966000  0.43893000  1
  N  N98  1  0.33755000  0.03878000  0.60937000  1
  N  N99  1  0.54651000  0.03822000  0.66707000  1
  N  N100  1  0.62230000  0.01530000  0.64990000  1
  N  N101  1  0.22973000  0.00321000  0.58146000  1
