# generated using pymatgen
data_LuPH7C7NO9
_symmetry_space_group_name_H-M   'P 1'
_cell_length_a   11.25060000
_cell_length_b   14.83540000
_cell_length_c   16.18430000
_cell_angle_alpha   90.00000000
_cell_angle_beta   90.00000000
_cell_angle_gamma   90.00000000
_symmetry_Int_Tables_number   1
_chemical_formula_structural   LuPH7C7NO9
_chemical_formula_sum   'Lu8 P8 H56 C56 N8 O72'
_cell_volume   2701.27540781
_cell_formula_units_Z   8
loop_
 _symmetry_equiv_pos_site_id
 _symmetry_equiv_pos_as_xyz
  1  'x, y, z'
loop_
 _atom_site_type_symbol
 _atom_site_label
 _atom_site_symmetry_multiplicity
 _atom_site_fract_x
 _atom_site_fract_y
 _atom_site_fract_z
 _atom_site_occupancy
  Lu  Lu0  1  0.22703000  0.25270000  0.93189000  1
  Lu  Lu1  1  0.24309000  0.80465000  0.05502000  1
  Lu  Lu2  1  0.25691000  0.19535000  0.55502000  1
  Lu  Lu3  1  0.27297000  0.74730000  0.43189000  1
  Lu  Lu4  1  0.72703000  0.24730000  0.06811000  1
  Lu  Lu5  1  0.74309000  0.69535000  0.94498000  1
  Lu  Lu6  1  0.75691000  0.30465000  0.44498000  1
  Lu  Lu7  1  0.77297000  0.75270000  0.56811000  1
  P  P8  1  0.18780000  0.04950000  0.04520000  1
  P  P9  1  0.23860000  0.18150000  0.33319000  1
  P  P10  1  0.26140000  0.81850000  0.83319000  1
  P  P11  1  0.31220000  0.95050000  0.54520000  1
  P  P12  1  0.68780000  0.45050000  0.95480000  1
  P  P13  1  0.73860000  0.31850000  0.66681000  1
  P  P14  1  0.76140000  0.68150000  0.16681000  1
  P  P15  1  0.81220000  0.54950000  0.45480000  1
  H  H16  1  0.00040000  0.57710000  0.83740000  1
  H  H17  1  0.01720000  0.37770000  0.67370000  1
  H  H18  1  0.03400000  0.98820000  0.02870000  1
  H  H19  1  0.08530000  0.93300000  0.62730000  1
  H  H20  1  0.08990000  0.85690000  0.69450000  1
  H  H21  1  0.09600000  0.24880000  0.29410000  1
  H  H22  1  0.11260000  0.09140000  0.17510000  1
  H  H23  1  0.13710000  0.65210000  0.75770000  1
  H  H24  1  0.14720000  0.45950000  0.59650000  1
  H  H25  1  0.17220000  0.03630000  0.30510000  1
  H  H26  1  0.19270000  0.96460000  0.82700000  1
  H  H27  1  0.20300000  0.60190000  0.63650000  1
  H  H28  1  0.20950000  0.16090000  0.14730000  1
  H  H29  1  0.22740000  0.00700000  0.69580000  1
  H  H30  1  0.27260000  0.99300000  0.19580000  1
  H  H31  1  0.29050000  0.83910000  0.64730000  1
  H  H32  1  0.29700000  0.39810000  0.13650000  1
  H  H33  1  0.30730000  0.03540000  0.32700000  1
  H  H34  1  0.32780000  0.96370000  0.80510000  1
  H  H35  1  0.35280000  0.54050000  0.09650000  1
  H  H36  1  0.36290000  0.34790000  0.25770000  1
  H  H37  1  0.38740000  0.90860000  0.67510000  1
  H  H38  1  0.40400000  0.75120000  0.79410000  1
  H  H39  1  0.41010000  0.14310000  0.19450000  1
  H  H40  1  0.41470000  0.06700000  0.12730000  1
  H  H41  1  0.46600000  0.01180000  0.52870000  1
  H  H42  1  0.48280000  0.62230000  0.17370000  1
  H  H43  1  0.49960000  0.42290000  0.33740000  1
  H  H44  1  0.50040000  0.92290000  0.16260000  1
  H  H45  1  0.51720000  0.12230000  0.32630000  1
  H  H46  1  0.53400000  0.51180000  0.97130000  1
  H  H47  1  0.58530000  0.56700000  0.37270000  1
  H  H48  1  0.58990000  0.64310000  0.30550000  1
  H  H49  1  0.59600000  0.25120000  0.70590000  1
  H  H50  1  0.61260000  0.40860000  0.82490000  1
  H  H51  1  0.63710000  0.84790000  0.24230000  1
  H  H52  1  0.64720000  0.04050000  0.40350000  1
  H  H53  1  0.67220000  0.46370000  0.69490000  1
  H  H54  1  0.69270000  0.53540000  0.17300000  1
  H  H55  1  0.70300000  0.89810000  0.36350000  1
  H  H56  1  0.70950000  0.33910000  0.85270000  1
  H  H57  1  0.72740000  0.49300000  0.30420000  1
  H  H58  1  0.77260000  0.50700000  0.80420000  1
  H  H59  1  0.79050000  0.66090000  0.35270000  1
  H  H60  1  0.79700000  0.10190000  0.86350000  1
  H  H61  1  0.80730000  0.46460000  0.67300000  1
  H  H62  1  0.82780000  0.53630000  0.19490000  1
  H  H63  1  0.85280000  0.95950000  0.90350000  1
  H  H64  1  0.86290000  0.15210000  0.74230000  1
  H  H65  1  0.88740000  0.59140000  0.32490000  1
  H  H66  1  0.90400000  0.74880000  0.20590000  1
  H  H67  1  0.91010000  0.35690000  0.80550000  1
  H  H68  1  0.91470000  0.43300000  0.87270000  1
  H  H69  1  0.96600000  0.48820000  0.47130000  1
  H  H70  1  0.98280000  0.87770000  0.82630000  1
  H  H71  1  0.99960000  0.07710000  0.66260000  1
  C  C72  1  0.00150000  0.25630000  0.04390000  1
  C  C73  1  0.00730000  0.97280000  0.73750000  1
  C  C74  1  0.01540000  0.70420000  0.99400000  1
  C  C75  1  0.02970000  0.55270000  0.78850000  1
  C  C76  1  0.03060000  0.29830000  0.48620000  1
  C  C77  1  0.03940000  0.43530000  0.69040000  1
  C  C78  1  0.04580000  0.73380000  0.54330000  1
  C  C79  1  0.09970000  0.92110000  0.68540000  1
  C  C80  1  0.11690000  0.48380000  0.64510000  1
  C  C81  1  0.15200000  0.56810000  0.66940000  1
  C  C82  1  0.19110000  0.09710000  0.15080000  1
  C  C83  1  0.23690000  0.17770000  0.75010000  1
  C  C84  1  0.24730000  0.06620000  0.29450000  1
  C  C85  1  0.24810000  0.72330000  0.23650000  1
  C  C86  1  0.25190000  0.27670000  0.73650000  1
  C  C87  1  0.25270000  0.93380000  0.79450000  1
  C  C88  1  0.26310000  0.82230000  0.25010000  1
  C  C89  1  0.30890000  0.90290000  0.65080000  1
  C  C90  1  0.34800000  0.43190000  0.16940000  1
  C  C91  1  0.38310000  0.51620000  0.14510000  1
  C  C92  1  0.40030000  0.07890000  0.18540000  1
  C  C93  1  0.45420000  0.26620000  0.04330000  1
  C  C94  1  0.46060000  0.56470000  0.19040000  1
  C  C95  1  0.46940000  0.70170000  0.98620000  1
  C  C96  1  0.47030000  0.44730000  0.28850000  1
  C  C97  1  0.48460000  0.29580000  0.49400000  1
  C  C98  1  0.49270000  0.02720000  0.23750000  1
  C  C99  1  0.49850000  0.74370000  0.54390000  1
  C  C100  1  0.50150000  0.24370000  0.95610000  1
  C  C101  1  0.50730000  0.52720000  0.26250000  1
  C  C102  1  0.51540000  0.79580000  0.00600000  1
  C  C103  1  0.52970000  0.94730000  0.21150000  1
  C  C104  1  0.53060000  0.20170000  0.51380000  1
  C  C105  1  0.53940000  0.06470000  0.30960000  1
  C  C106  1  0.54580000  0.76620000  0.45670000  1
  C  C107  1  0.59970000  0.57890000  0.31460000  1
  C  C108  1  0.61690000  0.01620000  0.35490000  1
  C  C109  1  0.65200000  0.93190000  0.33060000  1
  C  C110  1  0.69110000  0.40290000  0.84920000  1
  C  C111  1  0.73690000  0.32230000  0.24990000  1
  C  C112  1  0.74730000  0.43380000  0.70550000  1
  C  C113  1  0.74810000  0.77670000  0.76350000  1
  C  C114  1  0.75190000  0.22330000  0.26350000  1
  C  C115  1  0.75270000  0.56620000  0.20550000  1
  C  C116  1  0.76310000  0.67770000  0.74990000  1
  C  C117  1  0.80890000  0.59710000  0.34920000  1
  C  C118  1  0.84800000  0.06810000  0.83060000  1
  C  C119  1  0.88310000  0.98380000  0.85490000  1
  C  C120  1  0.90030000  0.42110000  0.81460000  1
  C  C121  1  0.95420000  0.23380000  0.95670000  1
  C  C122  1  0.96060000  0.93530000  0.80960000  1
  C  C123  1  0.96940000  0.79830000  0.01380000  1
  C  C124  1  0.97030000  0.05270000  0.71150000  1
  C  C125  1  0.98460000  0.20420000  0.50600000  1
  C  C126  1  0.99270000  0.47280000  0.76250000  1
  C  C127  1  0.99850000  0.75630000  0.45610000  1
  N  N128  1  0.11240000  0.60070000  0.74030000  1
  N  N129  1  0.22170000  0.94680000  0.70570000  1
  N  N130  1  0.27830000  0.05320000  0.20570000  1
  N  N131  1  0.38760000  0.39930000  0.24030000  1
  N  N132  1  0.61240000  0.89930000  0.25970000  1
  N  N133  1  0.72170000  0.55320000  0.29430000  1
  N  N134  1  0.77830000  0.44680000  0.79430000  1
  N  N135  1  0.88760000  0.10070000  0.75970000  1
  O  O136  1  0.02900000  0.23510000  0.90000000  1
  O  O137  1  0.04240000  0.84790000  0.05050000  1
  O  O138  1  0.05420000  0.04120000  0.02560000  1
  O  O139  1  0.05700000  0.15220000  0.54470000  1
  O  O140  1  0.07390000  0.76200000  0.39850000  1
  O  O141  1  0.10400000  0.20650000  0.32610000  1
  O  O142  1  0.11130000  0.26870000  0.05120000  1
  O  O143  1  0.12080000  0.68320000  0.01180000  1
  O  O144  1  0.13270000  0.31540000  0.50720000  1
  O  O145  1  0.15240000  0.72080000  0.54870000  1
  O  O146  1  0.17920000  0.76100000  0.78420000  1
  O  O147  1  0.22460000  0.15010000  0.82290000  1
  O  O148  1  0.23370000  0.69790000  0.16490000  1
  O  O149  1  0.23550000  0.13050000  0.68540000  1
  O  O150  1  0.23660000  0.82780000  0.92140000  1
  O  O151  1  0.24070000  0.11560000  0.98630000  1
  O  O152  1  0.24580000  0.95940000  0.04810000  1
  O  O153  1  0.24790000  0.32570000  0.80180000  1
  O  O154  1  0.25210000  0.67430000  0.30180000  1
  O  O155  1  0.25420000  0.04060000  0.54810000  1
  O  O156  1  0.25930000  0.88440000  0.48630000  1
  O  O157  1  0.26340000  0.17220000  0.42140000  1
  O  O158  1  0.26450000  0.86950000  0.18540000  1
  O  O159  1  0.26630000  0.30210000  0.66490000  1
  O  O160  1  0.27540000  0.84990000  0.32290000  1
  O  O161  1  0.32080000  0.23900000  0.28420000  1
  O  O162  1  0.34760000  0.27920000  0.04870000  1
  O  O163  1  0.36730000  0.68460000  0.00720000  1
  O  O164  1  0.37920000  0.31680000  0.51180000  1
  O  O165  1  0.38870000  0.73130000  0.55120000  1
  O  O166  1  0.39600000  0.79350000  0.82610000  1
  O  O167  1  0.42610000  0.23800000  0.89850000  1
  O  O168  1  0.44300000  0.84780000  0.04470000  1
  O  O169  1  0.44580000  0.95880000  0.52560000  1
  O  O170  1  0.45760000  0.15210000  0.55050000  1
  O  O171  1  0.47100000  0.76490000  0.40000000  1
  O  O172  1  0.52900000  0.26490000  0.10000000  1
  O  O173  1  0.54240000  0.65210000  0.94950000  1
  O  O174  1  0.55420000  0.45880000  0.97440000  1
  O  O175  1  0.55700000  0.34780000  0.45530000  1
  O  O176  1  0.57390000  0.73800000  0.60150000  1
  O  O177  1  0.60400000  0.29350000  0.67390000  1
  O  O178  1  0.61130000  0.23130000  0.94880000  1
  O  O179  1  0.62080000  0.81680000  0.98820000  1
  O  O180  1  0.63270000  0.18460000  0.49280000  1
  O  O181  1  0.65240000  0.77920000  0.45130000  1
  O  O182  1  0.67920000  0.73900000  0.21580000  1
  O  O183  1  0.72460000  0.34990000  0.17710000  1
  O  O184  1  0.73370000  0.80210000  0.83510000  1
  O  O185  1  0.73550000  0.36950000  0.31460000  1
  O  O186  1  0.73660000  0.67220000  0.07860000  1
  O  O187  1  0.74070000  0.38440000  0.01370000  1
  O  O188  1  0.74580000  0.54060000  0.95190000  1
  O  O189  1  0.74790000  0.17430000  0.19820000  1
  O  O190  1  0.75210000  0.82570000  0.69820000  1
  O  O191  1  0.75420000  0.45940000  0.45190000  1
  O  O192  1  0.75930000  0.61560000  0.51370000  1
  O  O193  1  0.76340000  0.32780000  0.57860000  1
  O  O194  1  0.76450000  0.63050000  0.81460000  1
  O  O195  1  0.76630000  0.19790000  0.33510000  1
  O  O196  1  0.77540000  0.65010000  0.67710000  1
  O  O197  1  0.82080000  0.26100000  0.71580000  1
  O  O198  1  0.84760000  0.22080000  0.95130000  1
  O  O199  1  0.86730000  0.81540000  0.99280000  1
  O  O200  1  0.87920000  0.18320000  0.48820000  1
  O  O201  1  0.88870000  0.76870000  0.44880000  1
  O  O202  1  0.89600000  0.70650000  0.17390000  1
  O  O203  1  0.92610000  0.26200000  0.10150000  1
  O  O204  1  0.94300000  0.65220000  0.95530000  1
  O  O205  1  0.94580000  0.54120000  0.47440000  1
  O  O206  1  0.95760000  0.34790000  0.44950000  1
  O  O207  1  0.97100000  0.73510000  0.60000000  1
