# generated using pymatgen
data_Mn3H39C42N8O9
_symmetry_space_group_name_H-M   'P 1'
_cell_length_a   17.61710000
_cell_length_b   30.05160000
_cell_length_c   30.05159693
_cell_angle_alpha   85.07130173
_cell_angle_beta   72.95551908
_cell_angle_gamma   72.95550000
_symmetry_Int_Tables_number   1
_chemical_formula_structural   Mn3H39C42N8O9
_chemical_formula_sum   'Mn24 H312 C336 N64 O72'
_cell_volume   14543.05729054
_cell_formula_units_Z   8
loop_
 _symmetry_equiv_pos_site_id
 _symmetry_equiv_pos_as_xyz
  1  'x, y, z'
loop_
 _atom_site_type_symbol
 _atom_site_label
 _atom_site_symmetry_multiplicity
 _atom_site_fract_x
 _atom_site_fract_y
 _atom_site_fract_z
 _atom_site_occupancy
  Mn  Mn0  1  0.85203000  0.08566000  0.14280000  1
  Mn  Mn1  1  0.00517000  0.64280000  0.91434000  1
  Mn  Mn2  1  0.28896000  0.96979000  0.62121000  1
  Mn  Mn3  1  0.91017000  0.87879000  0.96979000  1
  Mn  Mn4  1  0.43769000  0.14280000  0.41434000  1
  Mn  Mn5  1  0.78858000  0.42527000  0.00319000  1
  Mn  Mn6  1  0.71385000  0.00319000  0.07473000  1
  Mn  Mn7  1  0.20823000  0.50319000  0.57473000  1
  Mn  Mn8  1  0.87996000  0.53021000  0.87879000  1
  Mn  Mn9  1  0.21704000  0.07473000  0.49681000  1
  Mn  Mn10  1  0.24125000  0.37879000  0.46979000  1
  Mn  Mn11  1  0.91951000  0.58566000  0.64280000  1
  Mn  Mn12  1  0.08049000  0.41434000  0.35720000  1
  Mn  Mn13  1  0.75875000  0.62121000  0.53021000  1
  Mn  Mn14  1  0.78296000  0.92527000  0.50319000  1
  Mn  Mn15  1  0.12004000  0.46979000  0.12121000  1
  Mn  Mn16  1  0.79177000  0.49681000  0.42527000  1
  Mn  Mn17  1  0.28615000  0.99681000  0.92527000  1
  Mn  Mn18  1  0.21142000  0.57473000  0.99681000  1
  Mn  Mn19  1  0.56231000  0.85720000  0.58566000  1
  Mn  Mn20  1  0.08983000  0.12121000  0.03021000  1
  Mn  Mn21  1  0.71104000  0.03021000  0.37879000  1
  Mn  Mn22  1  0.99483000  0.35720000  0.08566000  1
  Mn  Mn23  1  0.14797000  0.91434000  0.85720000  1
  H  H24  1  0.12960000  0.54150000  0.86990000  1
  H  H25  1  0.76470000  0.57580000  0.23320000  1
  H  H26  1  0.30130000  0.42590000  0.68850000  1
  H  H27  1  0.08370000  0.75360000  0.90480000  1
  H  H28  1  0.87850000  0.64010000  0.10970000  1
  H  H29  1  0.54100000  0.34030000  0.44670000  1
  H  H30  1  0.88070000  0.58670000  0.10690000  1
  H  H31  1  0.08380000  0.04680000  0.90200000  1
  H  H32  1  0.85950000  0.92090000  0.12470000  1
  H  H33  1  0.37170000  0.14010000  0.60970000  1
  H  H34  1  0.33670000  0.10250000  0.64410000  1
  H  H35  1  0.35440000  0.67940000  0.62360000  1
  H  H36  1  0.40070000  0.83930000  0.57710000  1
  H  H37  1  0.88590000  0.49750000  0.09170000  1
  H  H38  1  0.95960000  0.25000000  0.01380000  1
  H  H39  1  0.57430000  0.91330000  0.39310000  1
  H  H40  1  0.01420000  0.40200000  0.95320000  1
  H  H41  1  0.70960000  0.01380000  0.25000000  1
  H  H42  1  0.47710000  0.94770000  0.47610000  1
  H  H43  1  0.81040000  0.30820000  0.13760000  1
  H  H44  1  0.54710000  0.47200000  0.39680000  1
  H  H45  1  0.08330000  0.39750000  0.85590000  1
  H  H46  1  0.19090000  0.91330000  0.74690000  1
  H  H47  1  0.63260000  0.96740000  0.29900000  1
  H  H48  1  0.77950000  0.53210000  0.15150000  1
  H  H49  1  0.39880000  0.69650000  0.52830000  1
  H  H50  1  0.90090000  0.55230000  0.02390000  1
  H  H51  1  0.26800000  0.63370000  0.65270000  1
  H  H52  1  0.01920000  0.14410000  0.89750000  1
  H  H53  1  0.66270000  0.09520000  0.25360000  1
  H  H54  1  0.36940000  0.09800000  0.54680000  1
  H  H55  1  0.43070000  0.87180000  0.48440000  1
  H  H56  1  0.34260000  0.77990000  0.56810000  1
  H  H57  1  0.43710000  0.48470000  0.46830000  1
  H  H58  1  0.98420000  0.37530000  0.92090000  1
  H  H59  1  0.12170000  0.69930000  0.78290000  1
  H  H60  1  0.95320000  0.02390000  0.94770000  1
  H  H61  1  0.10100000  0.46740000  0.79900000  1
  H  H62  1  0.93160000  0.20100000  0.96740000  1
  H  H63  1  0.38600000  0.96860000  0.51060000  1
  H  H64  1  0.54890000  0.42570000  0.34170000  1
  H  H65  1  0.29510000  0.70900000  0.59400000  1
  H  H66  1  0.69470000  0.29270000  0.19150000  1
  H  H67  1  0.88340000  0.09170000  0.00250000  1
  H  H68  1  0.73250000  0.49380000  0.15200000  1
  H  H69  1  0.47510000  0.00250000  0.40830000  1
  H  H70  1  0.96740000  0.10690000  0.91330000  1
  H  H71  1  0.01860000  0.10970000  0.85990000  1
  H  H72  1  0.67900000  0.21710000  0.19930000  1
  H  H73  1  0.22800000  0.56620000  0.64820000  1
  H  H74  1  0.82890000  0.13010000  0.04150000  1
  H  H75  1  0.44650000  0.31460000  0.42320000  1
  H  H76  1  0.34870000  0.63580000  0.51720000  1
  H  H77  1  0.89660000  0.98940000  0.96860000  1
  H  H78  1  0.28040000  0.12470000  0.57910000  1
  H  H79  1  0.86520000  0.53140000  0.98940000  1
  H  H80  1  0.74140000  0.53000000  0.10980000  1
  H  H81  1  0.93780000  0.75310000  0.91330000  1
  H  H82  1  0.40420000  0.90940000  0.44680000  1
  H  H83  1  0.57370000  0.92420000  0.26680000  1
  H  H84  1  0.33990000  0.90740000  0.49660000  1
  H  H85  1  0.45900000  0.04150000  0.36990000  1
  H  H86  1  0.11380000  0.69150000  0.70730000  1
  H  H87  1  0.30610000  0.57110000  0.51190000  1
  H  H88  1  0.97780000  0.92290000  0.83930000  1
  H  H89  1  0.13030000  0.92320000  0.68540000  1
  H  H90  1  0.76040000  0.59060000  0.05320000  1
  H  H91  1  0.19820000  0.85110000  0.61430000  1
  H  H92  1  0.46310000  0.96790000  0.34850000  1
  H  H93  1  0.61860000  0.13760000  0.19180000  1
  H  H94  1  0.39580000  0.25310000  0.41330000  1
  H  H95  1  0.78690000  0.62820000  0.01560000  1
  H  H96  1  0.45070000  0.38570000  0.35110000  1
  H  H97  1  0.91510000  0.01560000  0.87180000  1
  H  H98  1  0.81160000  0.15150000  0.96790000  1
  H  H99  1  0.02660000  0.51380000  0.75000000  1
  H  H100  1  0.58430000  0.92590000  0.18850000  1
  H  H101  1  0.70580000  0.35180000  0.06620000  1
  H  H102  1  0.38120000  0.97000000  0.39020000  1
  H  H103  1  0.84050000  0.23320000  0.92420000  1
  H  H104  1  0.85100000  0.05320000  0.90940000  1
  H  H105  1  0.74390000  0.59260000  0.00340000  1
  H  H106  1  0.83650000  0.00340000  0.90740000  1
  H  H107  1  0.05200000  0.63760000  0.69180000  1
  H  H108  1  0.98850000  0.59520000  0.75360000  1
  H  H109  1  0.77140000  0.10980000  0.97000000  1
  H  H110  1  0.81710000  0.66070000  0.92290000  1
  H  H111  1  0.81570000  0.81460000  0.92320000  1
  H  H112  1  0.72630000  0.15200000  0.00620000  1
  H  H113  1  0.59830000  0.34730000  0.13370000  1
  H  H114  1  0.37830000  0.00620000  0.34800000  1
  H  H115  1  0.09490000  0.42090000  0.62470000  1
  H  H116  1  0.22340000  0.25000000  0.48620000  1
  H  H117  1  0.55760000  0.06620000  0.14820000  1
  H  H118  1  0.49590000  0.40600000  0.20900000  1
  H  H119  1  0.77280000  0.31150000  0.92590000  1
  H  H120  1  0.48740000  0.19150000  0.20730000  1
  H  H121  1  0.62280000  0.48810000  0.07110000  1
  H  H122  1  0.91070000  0.93190000  0.77990000  1
  H  H123  1  0.10940000  0.84170000  0.57430000  1
  H  H124  1  0.39610000  0.19930000  0.28290000  1
  H  H125  1  0.01230000  0.94670000  0.65970000  1
  H  H126  1  0.81250000  0.88570000  0.85110000  1
  H  H127  1  0.06080000  0.35590000  0.60250000  1
  H  H128  1  0.25790000  0.25360000  0.40480000  1
  H  H129  1  0.25270000  0.50340000  0.40740000  1
  H  H130  1  0.97800000  0.87640000  0.67940000  1
  H  H131  1  0.37750000  0.43190000  0.27990000  1
  H  H132  1  0.51550000  0.48280000  0.13580000  1
  H  H133  1  0.46620000  0.37640000  0.17940000  1
  H  H134  1  0.10000000  0.29900000  0.53260000  1
  H  H135  1  0.03260000  0.45320000  0.59800000  1
  H  H136  1  0.98820000  0.39030000  0.64010000  1
  H  H137  1  0.92710000  0.97170000  0.69650000  1
  H  H138  1  0.61090000  0.07110000  0.01190000  1
  H  H139  1  0.69060000  0.72010000  0.93190000  1
  H  H140  1  0.11550000  0.65200000  0.50620000  1
  H  H141  1  0.14880000  0.60980000  0.47000000  1
  H  H142  1  0.67200000  0.84030000  0.94670000  1
  H  H143  1  0.25620000  0.19180000  0.36240000  1
  H  H144  1  0.14540000  0.48940000  0.46860000  1
  H  H145  1  0.18200000  0.01190000  0.42890000  1
  H  H146  1  0.09460000  0.96830000  0.51530000  1
  H  H147  1  0.85110000  0.58670000  0.75310000  1
  H  H148  1  0.90460000  0.71710000  0.69930000  1
  H  H149  1  0.40470000  0.47170000  0.19650000  1
  H  H150  1  0.26000000  0.42290000  0.33930000  1
  H  H151  1  0.44560000  0.13370000  0.15270000  1
  H  H152  1  0.88910000  0.90600000  0.70900000  1
  H  H153  1  0.18640000  0.55320000  0.40940000  1
  H  H154  1  0.62360000  0.80350000  0.97170000  1
  H  H155  1  0.01020000  0.18850000  0.57410000  1
  H  H156  1  0.05610000  0.89680000  0.52800000  1
  H  H157  1  0.60990000  0.98470000  0.96830000  1
  H  H158  1  0.98760000  0.39310000  0.58670000  1
  H  H159  1  0.99790000  0.26680000  0.57580000  1
  H  H160  1  0.19750000  0.51560000  0.37180000  1
  H  H161  1  0.57820000  0.53170000  0.98470000  1
  H  H162  1  0.12380000  0.14820000  0.43380000  1
  H  H163  1  0.92070000  0.84730000  0.63370000  1
  H  H164  1  0.73890000  0.57680000  0.81460000  1
  H  H165  1  0.66360000  0.64890000  0.88570000  1
  H  H166  1  0.47460000  0.34170000  0.07430000  1
  H  H167  1  0.51910000  0.39680000  0.02800000  1
  H  H168  1  0.99950000  0.63010000  0.54150000  1
  H  H169  1  0.38130000  0.44670000  0.15970000  1
  H  H170  1  0.06900000  0.65150000  0.46790000  1
  H  H171  1  0.65740000  0.82060000  0.87640000  1
  H  H172  1  0.68370000  0.92570000  0.84170000  1
  H  H173  1  0.02240000  0.59170000  0.50250000  1
  H  H174  1  0.07520000  0.52390000  0.44770000  1
  H  H175  1  0.41590000  0.02800000  0.10320000  1
  H  H176  1  0.49830000  0.13580000  0.01720000  1
  H  H177  1  0.82110000  0.79270000  0.69150000  1
  H  H178  1  0.59810000  0.79100000  0.90600000  1
  H  H179  1  0.86590000  0.98280000  0.63580000  1
  H  H180  1  0.13410000  0.01720000  0.36420000  1
  H  H181  1  0.40190000  0.20900000  0.09400000  1
  H  H182  1  0.17890000  0.20730000  0.30850000  1
  H  H183  1  0.50170000  0.86420000  0.98280000  1
  H  H184  1  0.58410000  0.97200000  0.89680000  1
  H  H185  1  0.92480000  0.47610000  0.55230000  1
  H  H186  1  0.97760000  0.40830000  0.49750000  1
  H  H187  1  0.31630000  0.07430000  0.15830000  1
  H  H188  1  0.34260000  0.17940000  0.12360000  1
  H  H189  1  0.93100000  0.34850000  0.53210000  1
  H  H190  1  0.61870000  0.55330000  0.84030000  1
  H  H191  1  0.00050000  0.36990000  0.45850000  1
  H  H192  1  0.48090000  0.60320000  0.97200000  1
  H  H193  1  0.52540000  0.65830000  0.92570000  1
  H  H194  1  0.33640000  0.35110000  0.11430000  1
  H  H195  1  0.26110000  0.42320000  0.18540000  1
  H  H196  1  0.07930000  0.15270000  0.36630000  1
  H  H197  1  0.87620000  0.85180000  0.56620000  1
  H  H198  1  0.42180000  0.46830000  0.01530000  1
  H  H199  1  0.80250000  0.48440000  0.62820000  1
  H  H200  1  0.00210000  0.73320000  0.42420000  1
  H  H201  1  0.01240000  0.60690000  0.41330000  1
  H  H202  1  0.39010000  0.01530000  0.03170000  1
  H  H203  1  0.94390000  0.10320000  0.47200000  1
  H  H204  1  0.98980000  0.81150000  0.42590000  1
  H  H205  1  0.37640000  0.19650000  0.02830000  1
  H  H206  1  0.81360000  0.44680000  0.59060000  1
  H  H207  1  0.11090000  0.09400000  0.29100000  1
  H  H208  1  0.55440000  0.86630000  0.84730000  1
  H  H209  1  0.74000000  0.57710000  0.66070000  1
  H  H210  1  0.59530000  0.52830000  0.80350000  1
  H  H211  1  0.09540000  0.28290000  0.30070000  1
  H  H212  1  0.14890000  0.41330000  0.24690000  1
  H  H213  1  0.90540000  0.03170000  0.48470000  1
  H  H214  1  0.81800000  0.98810000  0.57110000  1
  H  H215  1  0.85460000  0.51060000  0.53140000  1
  H  H216  1  0.74380000  0.80820000  0.63760000  1
  H  H217  1  0.32800000  0.15970000  0.05330000  1
  H  H218  1  0.85120000  0.39020000  0.53000000  1
  H  H219  1  0.88450000  0.34800000  0.49380000  1
  H  H220  1  0.30940000  0.27990000  0.06810000  1
  H  H221  1  0.38910000  0.92890000  0.98810000  1
  H  H222  1  0.07290000  0.02830000  0.30350000  1
  H  H223  1  0.01180000  0.60970000  0.35990000  1
  H  H224  1  0.96740000  0.54680000  0.40200000  1
  H  H225  1  0.90000000  0.70100000  0.46740000  1
  H  H226  1  0.53380000  0.62360000  0.82060000  1
  H  H227  1  0.48450000  0.51720000  0.86420000  1
  H  H228  1  0.62250000  0.56810000  0.72010000  1
  H  H229  1  0.02200000  0.12360000  0.32060000  1
  H  H230  1  0.74730000  0.49660000  0.59260000  1
  H  H231  1  0.74210000  0.74640000  0.59520000  1
  H  H232  1  0.93920000  0.64410000  0.39750000  1
  H  H233  1  0.18750000  0.11430000  0.14890000  1
  H  H234  1  0.98770000  0.05330000  0.34030000  1
  H  H235  1  0.60390000  0.80070000  0.71710000  1
  H  H236  1  0.89060000  0.15830000  0.42570000  1
  H  H237  1  0.08930000  0.06810000  0.22010000  1
  H  H238  1  0.37720000  0.51190000  0.92890000  1
  H  H239  1  0.51260000  0.80850000  0.79270000  1
  H  H240  1  0.22720000  0.68850000  0.07410000  1
  H  H241  1  0.50410000  0.59400000  0.79100000  1
  H  H242  1  0.44240000  0.93380000  0.85180000  1
  H  H243  1  0.77660000  0.75000000  0.51380000  1
  H  H244  1  0.90510000  0.57910000  0.37530000  1
  H  H245  1  0.62170000  0.99380000  0.65200000  1
  H  H246  1  0.40170000  0.65270000  0.86630000  1
  H  H247  1  0.27370000  0.84800000  0.99380000  1
  H  H248  1  0.18430000  0.18540000  0.07680000  1
  H  H249  1  0.18290000  0.33930000  0.07710000  1
  H  H250  1  0.22860000  0.89020000  0.03000000  1
  H  H251  1  0.01150000  0.40480000  0.24640000  1
  H  H252  1  0.94800000  0.36240000  0.30820000  1
  H  H253  1  0.16350000  0.99660000  0.09260000  1
  H  H254  1  0.25610000  0.40740000  0.99660000  1
  H  H255  1  0.14900000  0.94680000  0.09060000  1
  H  H256  1  0.15950000  0.76680000  0.07580000  1
  H  H257  1  0.61880000  0.03000000  0.60980000  1
  H  H258  1  0.29420000  0.64820000  0.93380000  1
  H  H259  1  0.41570000  0.07410000  0.81150000  1
  H  H260  1  0.97340000  0.48620000  0.25000000  1
  H  H261  1  0.18840000  0.84850000  0.03210000  1
  H  H262  1  0.08490000  0.98440000  0.12820000  1
  H  H263  1  0.54930000  0.61430000  0.64890000  1
  H  H264  1  0.21310000  0.37180000  0.98440000  1
  H  H265  1  0.60420000  0.74690000  0.58670000  1
  H  H266  1  0.38140000  0.86240000  0.80820000  1
  H  H267  1  0.53690000  0.03210000  0.65150000  1
  H  H268  1  0.80180000  0.14890000  0.38570000  1
  H  H269  1  0.23960000  0.40940000  0.94680000  1
  H  H270  1  0.86970000  0.07680000  0.31460000  1
  H  H271  1  0.02220000  0.07710000  0.16070000  1
  H  H272  1  0.69390000  0.42890000  0.48810000  1
  H  H273  1  0.88620000  0.30850000  0.29270000  1
  H  H274  1  0.54100000  0.95850000  0.63010000  1
  H  H275  1  0.66010000  0.09260000  0.50340000  1
  H  H276  1  0.42630000  0.07580000  0.73320000  1
  H  H277  1  0.59580000  0.09060000  0.55320000  1
  H  H278  1  0.06220000  0.24690000  0.08670000  1
  H  H279  1  0.25860000  0.47000000  0.89020000  1
  H  H280  1  0.13480000  0.46860000  0.01060000  1
  H  H281  1  0.71960000  0.87530000  0.42090000  1
  H  H282  1  0.10340000  0.01060000  0.03140000  1
  H  H283  1  0.65130000  0.36420000  0.48280000  1
  H  H284  1  0.55350000  0.68540000  0.57680000  1
  H  H285  1  0.17110000  0.86990000  0.95850000  1
  H  H286  1  0.77200000  0.43380000  0.35180000  1
  H  H287  1  0.32100000  0.78290000  0.80070000  1
  H  H288  1  0.98140000  0.89030000  0.14010000  1
  H  H289  1  0.03260000  0.89310000  0.08670000  1
  H  H290  1  0.52490000  0.99750000  0.59170000  1
  H  H291  1  0.26750000  0.50620000  0.84800000  1
  H  H292  1  0.11660000  0.90830000  0.99750000  1
  H  H293  1  0.30530000  0.70730000  0.80850000  1
  H  H294  1  0.70490000  0.29100000  0.40600000  1
  H  H295  1  0.45110000  0.57430000  0.65830000  1
  H  H296  1  0.61400000  0.03140000  0.48940000  1
  H  H297  1  0.06840000  0.79900000  0.03260000  1
  H  H298  1  0.89900000  0.53260000  0.20100000  1
  H  H299  1  0.04680000  0.97610000  0.05230000  1
  H  H300  1  0.87830000  0.30070000  0.21710000  1
  H  H301  1  0.01580000  0.62470000  0.07910000  1
  H  H302  1  0.56290000  0.51530000  0.53170000  1
  H  H303  1  0.65740000  0.22010000  0.43190000  1
  H  H304  1  0.56930000  0.12820000  0.51560000  1
  H  H305  1  0.63060000  0.90200000  0.45320000  1
  H  H306  1  0.33730000  0.90480000  0.74640000  1
  H  H307  1  0.98080000  0.85590000  0.10250000  1
  H  H308  1  0.73200000  0.36630000  0.34730000  1
  H  H309  1  0.09910000  0.44770000  0.97610000  1
  H  H310  1  0.60120000  0.30350000  0.47170000  1
  H  H311  1  0.22050000  0.46790000  0.84850000  1
  H  H312  1  0.36740000  0.03260000  0.70100000  1
  H  H313  1  0.80910000  0.08670000  0.25310000  1
  H  H314  1  0.91670000  0.60250000  0.14410000  1
  H  H315  1  0.45290000  0.52800000  0.60320000  1
  H  H316  1  0.18960000  0.69180000  0.86240000  1
  H  H317  1  0.52290000  0.05230000  0.52390000  1
  H  H318  1  0.29040000  0.98620000  0.75000000  1
  H  H319  1  0.98580000  0.59800000  0.04680000  1
  H  H320  1  0.42570000  0.08670000  0.60690000  1
  H  H321  1  0.04040000  0.75000000  0.98620000  1
  H  H322  1  0.11410000  0.50250000  0.90830000  1
  H  H323  1  0.59930000  0.16070000  0.42290000  1
  H  H324  1  0.64560000  0.32060000  0.37640000  1
  H  H325  1  0.66330000  0.89750000  0.35590000  1
  H  H326  1  0.62830000  0.85990000  0.39030000  1
  H  H327  1  0.14050000  0.07910000  0.87530000  1
  H  H328  1  0.91620000  0.95320000  0.09800000  1
  H  H329  1  0.11930000  0.41330000  0.89310000  1
  H  H330  1  0.45900000  0.65970000  0.55330000  1
  H  H331  1  0.12150000  0.35990000  0.89030000  1
  H  H332  1  0.91630000  0.24640000  0.09520000  1
  H  H333  1  0.69870000  0.57410000  0.31150000  1
  H  H334  1  0.23530000  0.42420000  0.76680000  1
  H  H335  1  0.87040000  0.45850000  0.13010000  1
  C  C336  1  0.45952000  0.91569000  0.53967000  1
  C  C337  1  0.09140000  0.07820000  0.90140000  1
  C  C338  1  0.56780000  0.19230000  0.42290000  1
  C  C339  1  0.55680000  0.27390000  0.43130000  1
  C  C340  1  0.86830000  0.24040000  0.11620000  1
  C  C341  1  0.86174000  0.19521000  0.12091000  1
  C  C342  1  0.36940000  0.10770000  0.61270000  1
  C  C343  1  0.08980000  0.39230000  0.88730000  1
  C  C344  1  0.06755000  0.84165000  0.90685000  1
  C  C345  1  0.41340000  0.68900000  0.55800000  1
  C  C346  1  0.39730000  0.77190000  0.57090000  1
  C  C347  1  0.84691000  0.47919000  0.10699000  1
  C  C348  1  0.20560000  0.44320000  0.74700000  1
  C  C349  1  0.80565000  0.27735000  0.14175000  1
  C  C350  1  0.89195000  0.91453000  0.05417000  1
  C  C351  1  0.24540000  0.44380000  0.70040000  1
  C  C352  1  0.79050000  0.18602000  0.15318000  1
  C  C353  1  0.34300000  0.68140000  0.59300000  1
  C  C354  1  0.90520000  0.33884000  0.02776000  1
  C  C355  1  0.59080000  0.09315000  0.34165000  1
  C  C356  1  0.43100000  0.93970000  0.50010000  1
  C  C357  1  0.00720000  0.40140000  0.92180000  1
  C  C358  1  0.68570000  0.99558000  0.23682000  1
  C  C359  1  0.92252000  0.26318000  0.99558000  1
  C  C360  1  0.99919000  0.96033000  0.91569000  1
  C  C361  1  0.84322000  0.44948000  0.07128000  1
  C  C362  1  0.01790000  0.11270000  0.89230000  1
  C  C363  1  0.73650000  0.26810000  0.17330000  1
  C  C364  1  0.33040000  0.09860000  0.57820000  1
  C  C365  1  0.50480000  0.45690000  0.40210000  1
  C  C366  1  0.72750000  0.22280000  0.17860000  1
  C  C367  1  0.63920000  0.96830000  0.26650000  1
  C  C368  1  0.31870000  0.63870000  0.58690000  1
  C  C369  1  0.74404000  0.02776000  0.16116000  1
  C  C370  1  0.47930000  0.28330000  0.42390000  1
  C  C371  1  0.27980000  0.62020000  0.62320000  1
  C  C372  1  0.76860000  0.51140000  0.13220000  1
  C  C373  1  0.12600000  0.46830000  0.76650000  1
  C  C374  1  0.30648000  0.05417000  0.58547000  1
  C  C375  1  0.69783000  0.99699000  0.18935000  1
  C  C376  1  0.13300000  0.91750000  0.75390000  1
  C  C377  1  0.43940000  0.46440000  0.44520000  1
  C  C378  1  0.88718000  0.31065000  0.99699000  1
  C  C379  1  0.39830000  0.90360000  0.48000000  1
  C  C380  1  0.50600000  0.42910000  0.37010000  1
  C  C381  1  0.91488000  0.58431000  0.96033000  1
  C  C382  1  0.25370000  0.58000000  0.62040000  1
  C  C383  1  0.90570000  0.23350000  0.96830000  1
  C  C384  1  0.09390000  0.67860000  0.77720000  1
  C  C385  1  0.93110000  0.99990000  0.93970000  1
  C  C386  1  0.87080000  0.56030000  0.99990000  1
  C  C387  1  0.32530000  0.62110000  0.54510000  1
  C  C388  1  0.05632000  0.65318000  0.81398000  1
  C  C389  1  0.20073000  0.47237000  0.66897000  1
  C  C390  1  0.60870000  0.11620000  0.25960000  1
  C  C391  1  0.44950000  0.24610000  0.41750000  1
  C  C392  1  0.55695000  0.12091000  0.30479000  1
  C  C393  1  0.94612000  0.44583000  0.91453000  1
  C  C394  1  0.60420000  0.94320000  0.24700000  1
  C  C395  1  0.82610000  0.10699000  0.02081000  1
  C  C396  1  0.79270000  0.07128000  0.05052000  1
  C  C397  1  0.29920000  0.58270000  0.54170000  1
  C  C398  1  0.37820000  0.44000000  0.45180000  1
  C  C399  1  0.65793000  0.97237000  0.16897000  1
  C  C400  1  0.43309000  0.02081000  0.39301000  1
  C  C401  1  0.44830000  0.40480000  0.37540000  1
  C  C402  1  0.01735000  0.62091000  0.80479000  1
  C  C403  1  0.09020000  0.67330000  0.73190000  1
  C  C404  1  0.08190000  0.49558000  0.73682000  1
  C  C405  1  0.00930000  0.92290000  0.80770000  1
  C  C406  1  0.97440000  0.59315000  0.84165000  1
  C  C407  1  0.09680000  0.92390000  0.71670000  1
  C  C408  1  0.61040000  0.94380000  0.20040000  1
  C  C409  1  0.31207000  0.44903000  0.49523000  1
  C  C410  1  0.58300000  0.14175000  0.22265000  1
  C  C411  1  0.11583000  0.49699000  0.68935000  1
  C  C412  1  0.88690000  0.74610000  0.91750000  1
  C  C413  1  0.38584000  0.40916000  0.41796000  1
  C  C414  1  0.78190000  0.59640000  0.02000000  1
  C  C415  1  0.82690000  0.33103000  0.97237000  1
  C  C416  1  0.85120000  0.25300000  0.94320000  1
  C  C417  1  0.36398000  0.05052000  0.42872000  1
  C  C418  1  0.47652000  0.15318000  0.31398000  1
  C  C419  1  0.19620000  0.91796000  0.59084000  1
  C  C420  1  0.87830000  0.02000000  0.90360000  1
  C  C421  1  0.41220000  0.98860000  0.36780000  1
  C  C422  1  0.05260000  0.64175000  0.72265000  1
  C  C423  1  0.01550000  0.61620000  0.75960000  1
  C  C424  1  0.17630000  0.87540000  0.59520000  1
  C  C425  1  0.78000000  0.13220000  0.98860000  1
  C  C426  1  0.81080000  0.29960000  0.94380000  1
  C  C427  1  0.66630000  0.37960000  0.08000000  1
  C  C428  1  0.27180000  0.16116000  0.47224000  1
  C  C429  1  0.19270000  0.99523000  0.55097000  1
  C  C430  1  0.96820000  0.92910000  0.77190000  1
  C  C431  1  0.81700000  0.69230000  0.92290000  1
  C  C432  1  0.74367000  0.94903000  0.99523000  1
  C  C433  1  0.01190000  0.93130000  0.72610000  1
  C  C434  1  0.81350000  0.78330000  0.92390000  1
  C  C435  1  0.50460000  0.17330000  0.23190000  1
  C  C436  1  0.17000000  0.95180000  0.56000000  1
  C  C437  1  0.06704000  0.52776000  0.66116000  1
  C  C438  1  0.45030000  0.17860000  0.27720000  1
  C  C439  1  0.60000000  0.37680000  0.12020000  1
  C  C440  1  0.78704000  0.90916000  0.91796000  1
  C  C441  1  0.61810000  0.45830000  0.08270000  1
  C  C442  1  0.19482000  0.18935000  0.50301000  1
  C  C443  1  0.12390000  0.87010000  0.57090000  1
  C  C444  1  0.13935000  0.41453000  0.55417000  1
  C  C445  1  0.73890000  0.50477000  0.94903000  1
  C  C446  1  0.18128000  0.23682000  0.50442000  1
  C  C447  1  0.73000000  0.94000000  0.95180000  1
  C  C448  1  0.54260000  0.41310000  0.13870000  1
  C  C449  1  0.55360000  0.45490000  0.12110000  1
  C  C450  1  0.07100000  0.42180000  0.59860000  1
  C  C451  1  0.73800000  0.77390000  0.93130000  1
  C  C452  1  0.74010000  0.72810000  0.92910000  1
  C  C453  1  0.54590000  0.08000000  0.12040000  1
  C  C454  1  0.97140000  0.94200000  0.68900000  1
  C  C455  1  0.13030000  0.16897000  0.52763000  1
  C  C456  1  0.47560000  0.40700000  0.18140000  1
  C  C457  1  0.11540000  0.94520000  0.53560000  1
  C  C458  1  0.77150000  0.90480000  0.87540000  1
  C  C459  1  0.10750000  0.26650000  0.53170000  1
  C  C460  1  0.09310000  0.90210000  0.54310000  1
  C  C461  1  0.08550000  0.57128000  0.55052000  1
  C  C462  1  0.02290000  0.38730000  0.60770000  1
  C  C463  1  0.68180000  0.54820000  0.94000000  1
  C  C464  1  0.57640000  0.08270000  0.04170000  1
  C  C465  1  0.93600000  0.90700000  0.68140000  1
  C  C466  1  0.70500000  0.58204000  0.90916000  1
  C  C467  1  0.05420000  0.20040000  0.55620000  1
  C  C468  1  0.22490000  0.25960000  0.38380000  1
  C  C469  1  0.04740000  0.24700000  0.55680000  1
  C  C470  1  0.33080000  0.42910000  0.27190000  1
  C  C471  1  0.66040000  0.81100000  0.94200000  1
  C  C472  1  0.19810000  0.52000000  0.40360000  1
  C  C473  1  0.47680000  0.12020000  0.12320000  1
  C  C474  1  0.65100000  0.96440000  0.94520000  1
  C  C475  1  0.18395000  0.34165000  0.40685000  1
  C  C476  1  0.09920000  0.63220000  0.48860000  1
  C  C477  1  0.39760000  0.44200000  0.18900000  1
  C  C478  1  0.22475000  0.22265000  0.35825000  1
  C  C479  1  0.15910000  0.04170000  0.41730000  1
  C  C480  1  0.12930000  0.49990000  0.43970000  1
  C  C481  1  0.26010000  0.42290000  0.30770000  1
  C  C482  1  0.04610000  0.60699000  0.52081000  1
  C  C483  1  0.69480000  0.92910000  0.87010000  1
  C  C484  1  0.59620000  0.55480000  0.96440000  1
  C  C485  1  0.17786000  0.30479000  0.37909000  1
  C  C486  1  0.33070000  0.43130000  0.22610000  1
  C  C487  1  0.50850000  0.12110000  0.04510000  1
  C  C488  1  0.64690000  0.62460000  0.90480000  1
  C  C489  1  0.80440000  0.58250000  0.74610000  1
  C  C490  1  0.87110000  0.72280000  0.67860000  1
  C  C491  1  0.12590000  0.12040000  0.42000000  1
  C  C492  1  0.90560000  0.91310000  0.63870000  1
  C  C493  1  0.45570000  0.13870000  0.08690000  1
  C  C494  1  0.12479000  0.46033000  0.41569000  1
  C  C495  1  0.63620000  0.95690000  0.90210000  1
  C  C496  1  0.61740000  0.81860000  0.90700000  1
  C  C497  1  0.87030000  0.68602000  0.65318000  1
  C  C498  1  0.90300000  0.87680000  0.62020000  1
  C  C499  1  0.73740000  0.57610000  0.78330000  1
  C  C500  1  0.12960000  0.04510000  0.37890000  1
  C  C501  1  0.43510000  0.37010000  0.07090000  1
  C  C502  1  0.46170000  0.40210000  0.04310000  1
  C  C503  1  0.17790000  0.23190000  0.32670000  1
  C  C504  1  0.82210000  0.76810000  0.67330000  1
  C  C505  1  0.53830000  0.59790000  0.95690000  1
  C  C506  1  0.56490000  0.62990000  0.92910000  1
  C  C507  1  0.87040000  0.95490000  0.62110000  1
  C  C508  1  0.26260000  0.42390000  0.21670000  1
  C  C509  1  0.09700000  0.12320000  0.37980000  1
  C  C510  1  0.12970000  0.31398000  0.34682000  1
  C  C511  1  0.38260000  0.18140000  0.09300000  1
  C  C512  1  0.36380000  0.04310000  0.09790000  1
  C  C513  1  0.87521000  0.53967000  0.58431000  1
  C  C514  1  0.54430000  0.86130000  0.91310000  1
  C  C515  1  0.09440000  0.08690000  0.36130000  1
  C  C516  1  0.87410000  0.87960000  0.58000000  1
  C  C517  1  0.12890000  0.27720000  0.32140000  1
  C  C518  1  0.19560000  0.41750000  0.25390000  1
  C  C519  1  0.35310000  0.37540000  0.09520000  1
  C  C520  1  0.49150000  0.87890000  0.95490000  1
  C  C521  1  0.66930000  0.56870000  0.77390000  1
  C  C522  1  0.82214000  0.69521000  0.62091000  1
  C  C523  1  0.40380000  0.44520000  0.03560000  1
  C  C524  1  0.30520000  0.07090000  0.12990000  1
  C  C525  1  0.95390000  0.39301000  0.47919000  1
  C  C526  1  0.73990000  0.57710000  0.69230000  1
  C  C527  1  0.87070000  0.50010000  0.56030000  1
  C  C528  1  0.84090000  0.95830000  0.58270000  1
  C  C529  1  0.77525000  0.77735000  0.64175000  1
  C  C530  1  0.60240000  0.55800000  0.81100000  1
  C  C531  1  0.90080000  0.36780000  0.51140000  1
  C  C532  1  0.81605000  0.65835000  0.59315000  1
  C  C533  1  0.34900000  0.03560000  0.05480000  1
  C  C534  1  0.52320000  0.87980000  0.87680000  1
  C  C535  1  0.80190000  0.48000000  0.59640000  1
  C  C536  1  0.33960000  0.18900000  0.05800000  1
  C  C537  1  0.66920000  0.57090000  0.72810000  1
  C  C538  1  0.95260000  0.75300000  0.44320000  1
  C  C539  1  0.77510000  0.74040000  0.61620000  1
  C  C540  1  0.94580000  0.79960000  0.44380000  1
  C  C541  1  0.29500000  0.41796000  0.09084000  1
  C  C542  1  0.06400000  0.09300000  0.31860000  1
  C  C543  1  0.42360000  0.91730000  0.95830000  1
  C  C544  1  0.31820000  0.45180000  0.06000000  1
  C  C545  1  0.97710000  0.61270000  0.39230000  1
  C  C546  1  0.91450000  0.42872000  0.44948000  1
  C  C547  1  0.90690000  0.09790000  0.45690000  1
  C  C548  1  0.89250000  0.73350000  0.46830000  1
  C  C549  1  0.22850000  0.09520000  0.12460000  1
  C  C550  1  0.88460000  0.05480000  0.46440000  1
  C  C551  1  0.52440000  0.59300000  0.81860000  1
  C  C552  1  0.86970000  0.83103000  0.47237000  1
  C  C553  1  0.02860000  0.05800000  0.31100000  1
  C  C554  1  0.45410000  0.92000000  0.87960000  1
  C  C555  1  0.25990000  0.27190000  0.07090000  1
  C  C556  1  0.26200000  0.22610000  0.06870000  1
  C  C557  1  0.92900000  0.57820000  0.40140000  1
  C  C558  1  0.44640000  0.54510000  0.87890000  1
  C  C559  1  0.45740000  0.58690000  0.86130000  1
  C  C560  1  0.27000000  0.06000000  0.04820000  1
  C  C561  1  0.81872000  0.76318000  0.49558000  1
  C  C562  1  0.26110000  0.49523000  0.05097000  1
  C  C563  1  0.86065000  0.58547000  0.44583000  1
  C  C564  1  0.87610000  0.12990000  0.42910000  1
  C  C565  1  0.80518000  0.81065000  0.49699000  1
  C  C566  1  0.38190000  0.54170000  0.91730000  1
  C  C567  1  0.21296000  0.09084000  0.08204000  1
  C  C568  1  0.40000000  0.62320000  0.87980000  1
  C  C569  1  0.54970000  0.82140000  0.72280000  1
  C  C570  1  0.93296000  0.47224000  0.33884000  1
  C  C571  1  0.83000000  0.04820000  0.44000000  1
  C  C572  1  0.49540000  0.82670000  0.76810000  1
  C  C573  1  0.18650000  0.21670000  0.07610000  1
  C  C574  1  0.98810000  0.06870000  0.27390000  1
  C  C575  1  0.25633000  0.05097000  0.00477000  1
  C  C576  1  0.18300000  0.30770000  0.07710000  1
  C  C577  1  0.03180000  0.07090000  0.22810000  1
  C  C578  1  0.80730000  0.00477000  0.44903000  1
  C  C579  1  0.72820000  0.83884000  0.52776000  1
  C  C580  1  0.33370000  0.62040000  0.92000000  1
  C  C581  1  0.18920000  0.70040000  0.05620000  1
  C  C582  1  0.22000000  0.86780000  0.01140000  1
  C  C583  1  0.82370000  0.12460000  0.40480000  1
  C  C584  1  0.98450000  0.38380000  0.24040000  1
  C  C585  1  0.94740000  0.35825000  0.27735000  1
  C  C586  1  0.58780000  0.01140000  0.63220000  1
  C  C587  1  0.12170000  0.98000000  0.09640000  1
  C  C588  1  0.80380000  0.08204000  0.40916000  1
  C  C589  1  0.52348000  0.84682000  0.68602000  1
  C  C590  1  0.63602000  0.94948000  0.57128000  1
  C  C591  1  0.14880000  0.74700000  0.05680000  1
  C  C592  1  0.17310000  0.66897000  0.02763000  1
  C  C593  1  0.21810000  0.40360000  0.98000000  1
  C  C594  1  0.61416000  0.59084000  0.58204000  1
  C  C595  1  0.11310000  0.25390000  0.08250000  1
  C  C596  1  0.88417000  0.50301000  0.31065000  1
  C  C597  1  0.41700000  0.85825000  0.77735000  1
  C  C598  1  0.68793000  0.55097000  0.50477000  1
  C  C599  1  0.38960000  0.05620000  0.79960000  1
  C  C600  1  0.90320000  0.07610000  0.28330000  1
  C  C601  1  0.02560000  0.40685000  0.15835000  1
  C  C602  1  0.99070000  0.07710000  0.19230000  1
  C  C603  1  0.91810000  0.50442000  0.26318000  1
  C  C604  1  0.90980000  0.32670000  0.26810000  1
  C  C605  1  0.98265000  0.37909000  0.19521000  1
  C  C606  1  0.55170000  0.59520000  0.62460000  1
  C  C607  1  0.56691000  0.97919000  0.60699000  1
  C  C608  1  0.34207000  0.02763000  0.83103000  1
  C  C609  1  0.62180000  0.56000000  0.54820000  1
  C  C610  1  0.70080000  0.41730000  0.45830000  1
  C  C611  1  0.20730000  0.92872000  0.94948000  1
  C  C612  1  0.17390000  0.89301000  0.97919000  1
  C  C613  1  0.39580000  0.05680000  0.75300000  1
  C  C614  1  0.05388000  0.55417000  0.08547000  1
  C  C615  1  0.44305000  0.87909000  0.69521000  1
  C  C616  1  0.55050000  0.75390000  0.58250000  1
  C  C617  1  0.39130000  0.88380000  0.74040000  1
  C  C618  1  0.79927000  0.52763000  0.33103000  1
  C  C619  1  0.94368000  0.34682000  0.18602000  1
  C  C620  1  0.67470000  0.37890000  0.45490000  1
  C  C621  1  0.12920000  0.43970000  0.00010000  1
  C  C622  1  0.06890000  0.00010000  0.06030000  1
  C  C623  1  0.90610000  0.32140000  0.22280000  1
  C  C624  1  0.09430000  0.76650000  0.03170000  1
  C  C625  1  0.74630000  0.42000000  0.37960000  1
  C  C626  1  0.08512000  0.41569000  0.03967000  1
  C  C627  1  0.49400000  0.57090000  0.62990000  1
  C  C628  1  0.60170000  0.09640000  0.52000000  1
  C  C629  1  0.11282000  0.68935000  0.00301000  1
  C  C630  1  0.56060000  0.53560000  0.55480000  1
  C  C631  1  0.86700000  0.08250000  0.24610000  1
  C  C632  1  0.30217000  0.00301000  0.81065000  1
  C  C633  1  0.69352000  0.94583000  0.41453000  1
  C  C634  1  0.87400000  0.53170000  0.23350000  1
  C  C635  1  0.23140000  0.48860000  0.86780000  1
  C  C636  1  0.72020000  0.37980000  0.37680000  1
  C  C637  1  0.52070000  0.71670000  0.57610000  1
  C  C638  1  0.25596000  0.97224000  0.83884000  1
  C  C639  1  0.68130000  0.36130000  0.41310000  1
  C  C640  1  0.36080000  0.03170000  0.73350000  1
  C  C641  1  0.27250000  0.77720000  0.82140000  1
  C  C642  1  0.49520000  0.54310000  0.59790000  1
  C  C643  1  0.66960000  0.90140000  0.42180000  1
  C  C644  1  0.26350000  0.73190000  0.82670000  1
  C  C645  1  0.98210000  0.88730000  0.10770000  1
  C  C646  1  0.15678000  0.55052000  0.92872000  1
  C  C647  1  0.00081000  0.03967000  0.08431000  1
  C  C648  1  0.07748000  0.73682000  0.00442000  1
  C  C649  1  0.31430000  0.00442000  0.76318000  1
  C  C650  1  0.99280000  0.59860000  0.07820000  1
  C  C651  1  0.56900000  0.06030000  0.49990000  1
  C  C652  1  0.40920000  0.90685000  0.65835000  1
  C  C653  1  0.09480000  0.66116000  0.97224000  1
  C  C654  1  0.65700000  0.31860000  0.40700000  1
  C  C655  1  0.20950000  0.81398000  0.84682000  1
  C  C656  1  0.75460000  0.55620000  0.29960000  1
  C  C657  1  0.10805000  0.08547000  0.94583000  1
  C  C658  1  0.19435000  0.72265000  0.85825000  1
  C  C659  1  0.79440000  0.55680000  0.25300000  1
  C  C660  1  0.15309000  0.52081000  0.89301000  1
  C  C661  1  0.60270000  0.22810000  0.42910000  1
  C  C662  1  0.58660000  0.31100000  0.44200000  1
  C  C663  1  0.93245000  0.15835000  0.09315000  1
  C  C664  1  0.91020000  0.60770000  0.11270000  1
  C  C665  1  0.63060000  0.89230000  0.38730000  1
  C  C666  1  0.13826000  0.80479000  0.87909000  1
  C  C667  1  0.13170000  0.75960000  0.88380000  1
  C  C668  1  0.44320000  0.72610000  0.56870000  1
  C  C669  1  0.43220000  0.80770000  0.57710000  1
  C  C670  1  0.90860000  0.92180000  0.09860000  1
  C  C671  1  0.54048000  0.08431000  0.46033000  1
  N  N672  1  0.41614000  0.92769000  0.58183000  1
  N  N673  1  0.06923000  0.88526000  0.89968000  1
  N  N674  1  0.88187000  0.40579000  0.06847000  1
  N  N675  1  0.54551000  0.10032000  0.38526000  1
  N  N676  1  0.99797000  0.91817000  0.92769000  1
  N  N677  1  0.49300000  0.20206000  0.41714000  1
  N  N678  1  0.86488000  0.38373000  0.03411000  1
  N  N679  1  0.08986000  0.91714000  0.79794000  1
  N  N680  1  0.78766000  0.06847000  0.09421000  1
  N  N681  1  0.82038000  0.94003000  0.04681000  1
  N  N682  1  0.74861000  0.03411000  0.11627000  1
  N  N683  1  0.96891000  0.60032000  0.88526000  1
  N  N684  1  0.26490000  0.56190000  0.57930000  1
  N  N685  1  0.92566000  0.57231000  0.91817000  1
  N  N686  1  0.26041000  0.04681000  0.55997000  1
  N  N687  1  0.81460000  0.92685000  0.00395000  1
  N  N688  1  0.24145000  0.00395000  0.57315000  1
  N  N689  1  0.86719000  0.45319000  0.94003000  1
  N  N690  1  0.88780000  0.70206000  0.91714000  1
  N  N691  1  0.35613000  0.09421000  0.43153000  1
  N  N692  1  0.25460000  0.42685000  0.50395000  1
  N  N693  1  0.28272000  0.11627000  0.46589000  1
  N  N694  1  0.81855000  0.49605000  0.92685000  1
  N  N695  1  0.19278000  0.44003000  0.54681000  1
  N  N696  1  0.67320000  0.42070000  0.06190000  1
  N  N697  1  0.10101000  0.53411000  0.61627000  1
  N  N698  1  0.59390000  0.06190000  0.07930000  1
  N  N699  1  0.04966000  0.56847000  0.59421000  1
  N  N700  1  0.15580000  0.07930000  0.43810000  1
  N  N701  1  0.15617000  0.41817000  0.42769000  1
  N  N702  1  0.14583000  0.38526000  0.39968000  1
  N  N703  1  0.80494000  0.58286000  0.70206000  1
  N  N704  1  0.19506000  0.41714000  0.29794000  1
  N  N705  1  0.85417000  0.61474000  0.60032000  1
  N  N706  1  0.84383000  0.58183000  0.57231000  1
  N  N707  1  0.84420000  0.92070000  0.56190000  1
  N  N708  1  0.95034000  0.43153000  0.40579000  1
  N  N709  1  0.40610000  0.93810000  0.92070000  1
  N  N710  1  0.89899000  0.46589000  0.38373000  1
  N  N711  1  0.32680000  0.57930000  0.93810000  1
  N  N712  1  0.80722000  0.55997000  0.45319000  1
  N  N713  1  0.18145000  0.50395000  0.07315000  1
  N  N714  1  0.71728000  0.88373000  0.53411000  1
  N  N715  1  0.74540000  0.57315000  0.49605000  1
  N  N716  1  0.64387000  0.90579000  0.56847000  1
  N  N717  1  0.11220000  0.29794000  0.08286000  1
  N  N718  1  0.13281000  0.54681000  0.05997000  1
  N  N719  1  0.75855000  0.99605000  0.42685000  1
  N  N720  1  0.18540000  0.07315000  0.99605000  1
  N  N721  1  0.73959000  0.95319000  0.44003000  1
  N  N722  1  0.07434000  0.42769000  0.08183000  1
  N  N723  1  0.73510000  0.43810000  0.42070000  1
  N  N724  1  0.03109000  0.39968000  0.11474000  1
  N  N725  1  0.25139000  0.96589000  0.88373000  1
  N  N726  1  0.17962000  0.05997000  0.95319000  1
  N  N727  1  0.21234000  0.93153000  0.90579000  1
  N  N728  1  0.91014000  0.08286000  0.20206000  1
  N  N729  1  0.13512000  0.61627000  0.96589000  1
  N  N730  1  0.50700000  0.79794000  0.58286000  1
  N  N731  1  0.00203000  0.08183000  0.07231000  1
  N  N732  1  0.45449000  0.89968000  0.61474000  1
  N  N733  1  0.11813000  0.59421000  0.93153000  1
  N  N734  1  0.93077000  0.11474000  0.10032000  1
  N  N735  1  0.58386000  0.07231000  0.41817000  1
  O  O736  1  0.03992000  0.68178000  0.95038000  1
  O  O737  1  0.66016000  0.06261000  0.33007000  1
  O  O738  1  0.94490000  0.88393000  0.02447000  1
  O  O739  1  0.77830000  0.04962000  0.18178000  1
  O  O740  1  0.00977000  0.83007000  0.93739000  1
  O  O741  1  0.32883000  0.02447000  0.61607000  1
  O  O742  1  0.06050000  0.96952000  0.88248000  1
  O  O743  1  0.46998000  0.11752000  0.46952000  1
  O  O744  1  0.77822000  0.14352000  0.16104000  1
  O  O745  1  0.06074000  0.66104000  0.85648000  1
  O  O746  1  0.94298000  0.61752000  0.96952000  1
  O  O747  1  0.24149000  0.47137000  0.62445000  1
  O  O748  1  0.24318000  0.92219000  0.61785000  1
  O  O749  1  0.96937000  0.47553000  0.88393000  1
  O  O750  1  0.79894000  0.46947000  0.04285000  1
  O  O751  1  0.31315000  0.47785000  0.52405000  1
  O  O752  1  0.76841000  0.04285000  0.03053000  1
  O  O753  1  0.66269000  0.97137000  0.12445000  1
  O  O754  1  0.86103000  0.88215000  0.92219000  1
  O  O755  1  0.32792000  0.18178000  0.45038000  1
  O  O756  1  0.42174000  0.16104000  0.35648000  1
  O  O757  1  0.94716000  0.56261000  0.83007000  1
  O  O758  1  0.31126000  0.03053000  0.45715000  1
  O  O759  1  0.78714000  0.37555000  0.97137000  1
  O  O760  1  0.33463000  0.38215000  0.42219000  1
  O  O761  1  0.68495000  0.97785000  0.02405000  1
  O  O762  1  0.15821000  0.54285000  0.53053000  1
  O  O763  1  0.70900000  0.47595000  0.97785000  1
  O  O764  1  0.16280000  0.02405000  0.52215000  1
  O  O765  1  0.99030000  0.54962000  0.68178000  1
  O  O766  1  0.14670000  0.38393000  0.52447000  1
  O  O767  1  0.78322000  0.57781000  0.88215000  1
  O  O768  1  0.13406000  0.12445000  0.52863000  1
  O  O769  1  0.22277000  0.33007000  0.43739000  1
  O  O770  1  0.91722000  0.64352000  0.66104000  1
  O  O771  1  0.91250000  0.53048000  0.61752000  1
  O  O772  1  0.08750000  0.46952000  0.38248000  1
  O  O773  1  0.08278000  0.35648000  0.33896000  1
  O  O774  1  0.77723000  0.66993000  0.56261000  1
  O  O775  1  0.86594000  0.87555000  0.47137000  1
  O  O776  1  0.21678000  0.42219000  0.11785000  1
  O  O777  1  0.85330000  0.61607000  0.47553000  1
  O  O778  1  0.00970000  0.45038000  0.31822000  1
  O  O779  1  0.83720000  0.97595000  0.47785000  1
  O  O780  1  0.29100000  0.52405000  0.02215000  1
  O  O781  1  0.84179000  0.45715000  0.46947000  1
  O  O782  1  0.31505000  0.02215000  0.97595000  1
  O  O783  1  0.66537000  0.61785000  0.57781000  1
  O  O784  1  0.21286000  0.62445000  0.02863000  1
  O  O785  1  0.68874000  0.96947000  0.54285000  1
  O  O786  1  0.05284000  0.43739000  0.16993000  1
  O  O787  1  0.57826000  0.83896000  0.64352000  1
  O  O788  1  0.67208000  0.81822000  0.54962000  1
  O  O789  1  0.13897000  0.11785000  0.07781000  1
  O  O790  1  0.33731000  0.02863000  0.87555000  1
  O  O791  1  0.23159000  0.95715000  0.96947000  1
  O  O792  1  0.68685000  0.52215000  0.47595000  1
  O  O793  1  0.20106000  0.53053000  0.95715000  1
  O  O794  1  0.03063000  0.52447000  0.11607000  1
  O  O795  1  0.75682000  0.07781000  0.38215000  1
  O  O796  1  0.75851000  0.52863000  0.37555000  1
  O  O797  1  0.05702000  0.38248000  0.03048000  1
  O  O798  1  0.93926000  0.33896000  0.14352000  1
  O  O799  1  0.22178000  0.85648000  0.83896000  1
  O  O800  1  0.53002000  0.88248000  0.53048000  1
  O  O801  1  0.93950000  0.03048000  0.11752000  1
  O  O802  1  0.67117000  0.97553000  0.38393000  1
  O  O803  1  0.99023000  0.16993000  0.06261000  1
  O  O804  1  0.22170000  0.95038000  0.81822000  1
  O  O805  1  0.05510000  0.11607000  0.97553000  1
  O  O806  1  0.33984000  0.93739000  0.66993000  1
  O  O807  1  0.96008000  0.31822000  0.04962000  1
