# generated using pymatgen
data_ErH24C27(SO3)2
_symmetry_space_group_name_H-M   'P 1'
_cell_length_a   9.00680000
_cell_length_b   14.80350000
_cell_length_c   22.98370000
_cell_angle_alpha   90.00000000
_cell_angle_beta   90.00000000
_cell_angle_gamma   92.78700000
_symmetry_Int_Tables_number   1
_chemical_formula_structural   ErH24C27(SO3)2
_chemical_formula_sum   'Er4 H96 C108 S8 O24'
_cell_volume   3060.84178779
_cell_formula_units_Z   4
loop_
 _symmetry_equiv_pos_site_id
 _symmetry_equiv_pos_as_xyz
  1  'x, y, z'
loop_
 _atom_site_type_symbol
 _atom_site_label
 _atom_site_symmetry_multiplicity
 _atom_site_fract_x
 _atom_site_fract_y
 _atom_site_fract_z
 _atom_site_occupancy
  Er  Er0  1  0.21016000  0.00396000  0.98161000  1
  Er  Er1  1  0.28984000  0.49604000  0.48161000  1
  Er  Er2  1  0.71016000  0.50396000  0.51839000  1
  Er  Er3  1  0.78984000  0.99604000  0.01839000  1
  H  H4  1  0.00040000  0.68940000  0.89450000  1
  H  H5  1  0.00530000  0.15100000  0.37990000  1
  H  H6  1  0.06720000  0.48410000  0.07270000  1
  H  H7  1  0.07110000  0.02240000  0.56520000  1
  H  H8  1  0.10510000  0.90400000  0.38310000  1
  H  H9  1  0.10570000  0.44390000  0.87270000  1
  H  H10  1  0.11040000  0.77330000  0.61840000  1
  H  H11  1  0.11740000  0.23610000  0.10380000  1
  H  H12  1  0.12830000  0.24430000  0.72760000  1
  H  H13  1  0.13210000  0.71380000  0.24050000  1
  H  H14  1  0.15850000  0.87030000  0.64080000  1
  H  H15  1  0.16300000  0.33370000  0.12610000  1
  H  H16  1  0.16350000  0.34160000  0.70280000  1
  H  H17  1  0.16860000  0.64060000  0.85470000  1
  H  H18  1  0.17340000  0.10450000  0.34110000  1
  H  H19  1  0.17620000  0.81020000  0.21600000  1
  H  H20  1  0.17940000  0.24980000  0.47950000  1
  H  H21  1  0.18400000  0.25670000  0.66340000  1
  H  H22  1  0.19190000  0.72470000  0.17670000  1
  H  H23  1  0.20040000  0.71800000  0.00040000  1
  H  H24  1  0.20300000  0.37580000  0.79370000  1
  H  H25  1  0.20810000  0.83690000  0.30760000  1
  H  H26  1  0.21300000  0.09930000  0.49580000  1
  H  H27  1  0.22150000  0.56450000  0.00980000  1
  H  H28  1  0.27850000  0.93550000  0.50980000  1
  H  H29  1  0.28700000  0.40070000  0.99580000  1
  H  H30  1  0.29190000  0.66310000  0.80760000  1
  H  H31  1  0.29700000  0.12420000  0.29370000  1
  H  H32  1  0.29960000  0.78200000  0.50040000  1
  H  H33  1  0.30810000  0.77530000  0.67670000  1
  H  H34  1  0.31600000  0.24330000  0.16340000  1
  H  H35  1  0.32060000  0.25020000  0.97950000  1
  H  H36  1  0.32380000  0.68980000  0.71600000  1
  H  H37  1  0.32660000  0.39550000  0.84110000  1
  H  H38  1  0.33140000  0.85940000  0.35470000  1
  H  H39  1  0.33650000  0.15840000  0.20280000  1
  H  H40  1  0.33700000  0.16630000  0.62610000  1
  H  H41  1  0.34150000  0.62970000  0.14080000  1
  H  H42  1  0.36790000  0.78620000  0.74050000  1
  H  H43  1  0.37170000  0.25570000  0.22760000  1
  H  H44  1  0.38260000  0.26390000  0.60380000  1
  H  H45  1  0.38960000  0.72670000  0.11840000  1
  H  H46  1  0.39430000  0.05610000  0.37270000  1
  H  H47  1  0.39490000  0.59600000  0.88310000  1
  H  H48  1  0.42890000  0.47760000  0.06520000  1
  H  H49  1  0.43280000  0.01590000  0.57270000  1
  H  H50  1  0.49470000  0.34900000  0.87990000  1
  H  H51  1  0.49960000  0.81060000  0.39450000  1
  H  H52  1  0.50040000  0.18940000  0.60550000  1
  H  H53  1  0.50530000  0.65100000  0.12010000  1
  H  H54  1  0.56720000  0.98410000  0.42730000  1
  H  H55  1  0.57110000  0.52240000  0.93480000  1
  H  H56  1  0.60510000  0.40400000  0.11690000  1
  H  H57  1  0.60570000  0.94390000  0.62730000  1
  H  H58  1  0.61040000  0.27330000  0.88160000  1
  H  H59  1  0.61740000  0.73610000  0.39620000  1
  H  H60  1  0.62830000  0.74430000  0.77240000  1
  H  H61  1  0.63210000  0.21380000  0.25950000  1
  H  H62  1  0.65850000  0.37030000  0.85920000  1
  H  H63  1  0.66300000  0.83370000  0.37390000  1
  H  H64  1  0.66350000  0.84160000  0.79720000  1
  H  H65  1  0.66860000  0.14060000  0.64530000  1
  H  H66  1  0.67340000  0.60450000  0.15890000  1
  H  H67  1  0.67620000  0.31020000  0.28400000  1
  H  H68  1  0.67940000  0.74980000  0.02050000  1
  H  H69  1  0.68400000  0.75670000  0.83660000  1
  H  H70  1  0.69190000  0.22470000  0.32330000  1
  H  H71  1  0.70040000  0.21800000  0.49960000  1
  H  H72  1  0.70300000  0.87580000  0.70630000  1
  H  H73  1  0.70810000  0.33690000  0.19240000  1
  H  H74  1  0.71300000  0.59930000  0.00420000  1
  H  H75  1  0.72150000  0.06450000  0.49020000  1
  H  H76  1  0.77850000  0.43550000  0.99020000  1
  H  H77  1  0.78700000  0.90070000  0.50420000  1
  H  H78  1  0.79190000  0.16310000  0.69240000  1
  H  H79  1  0.79700000  0.62420000  0.20630000  1
  H  H80  1  0.79960000  0.28200000  0.99960000  1
  H  H81  1  0.80810000  0.27530000  0.82330000  1
  H  H82  1  0.81600000  0.74330000  0.33660000  1
  H  H83  1  0.82060000  0.75020000  0.52050000  1
  H  H84  1  0.82380000  0.18980000  0.78400000  1
  H  H85  1  0.82660000  0.89550000  0.65890000  1
  H  H86  1  0.83140000  0.35940000  0.14530000  1
  H  H87  1  0.83650000  0.65840000  0.29720000  1
  H  H88  1  0.83700000  0.66630000  0.87390000  1
  H  H89  1  0.84150000  0.12970000  0.35920000  1
  H  H90  1  0.86790000  0.28620000  0.75950000  1
  H  H91  1  0.87170000  0.75570000  0.27240000  1
  H  H92  1  0.88260000  0.76390000  0.89620000  1
  H  H93  1  0.88960000  0.22670000  0.38160000  1
  H  H94  1  0.89430000  0.55610000  0.12730000  1
  H  H95  1  0.89490000  0.09600000  0.61690000  1
  H  H96  1  0.92890000  0.97760000  0.43480000  1
  H  H97  1  0.93280000  0.51590000  0.92730000  1
  H  H98  1  0.99470000  0.84900000  0.62010000  1
  H  H99  1  0.99960000  0.31060000  0.10550000  1
  C  C100  1  0.00480000  0.63740000  0.47924000  1
  C  C101  1  0.01450000  0.26560000  0.53759000  1
  C  C102  1  0.01950000  0.83030000  0.04394000  1
  C  C103  1  0.03010000  0.73070000  0.05630000  1
  C  C104  1  0.03510000  0.79700000  0.70107000  1
  C  C105  1  0.04220000  0.25930000  0.18616000  1
  C  C106  1  0.04590000  0.41050000  0.89868000  1
  C  C107  1  0.04780000  0.87230000  0.41065000  1
  C  C108  1  0.05740000  0.08330000  0.55823000  1
  C  C109  1  0.05900000  0.54620000  0.06883000  1
  C  C110  1  0.06350000  0.31740000  0.90421000  1
  C  C111  1  0.06980000  0.78110000  0.41965000  1
  C  C112  1  0.07870000  0.82500000  0.63940000  1
  C  C113  1  0.08440000  0.28750000  0.12477000  1
  C  C114  1  0.10160000  0.73210000  0.79358000  1
  C  C115  1  0.10870000  0.19450000  0.27869000  1
  C  C116  1  0.10950000  0.04660000  0.09748000  1
  C  C117  1  0.12110000  0.21900000  0.50714000  1
  C  C118  1  0.13690000  0.68550000  0.02547000  1
  C  C119  1  0.14210000  0.12900000  0.51692000  1
  C  C120  1  0.14270000  0.76100000  0.73743000  1
  C  C121  1  0.14910000  0.22400000  0.22272000  1
  C  C122  1  0.15070000  0.59380000  0.03123000  1
  C  C123  1  0.19230000  0.28000000  0.70230000  1
  C  C124  1  0.20000000  0.74770000  0.21560000  1
  C  C125  1  0.21560000  0.68860000  0.83151000  1
  C  C126  1  0.22160000  0.15140000  0.31723000  1
  C  C127  1  0.27840000  0.34860000  0.81723000  1
  C  C128  1  0.28440000  0.81140000  0.33151000  1
  C  C129  1  0.30000000  0.75230000  0.71560000  1
  C  C130  1  0.30770000  0.22000000  0.20230000  1
  C  C131  1  0.34930000  0.90620000  0.53123000  1
  C  C132  1  0.35090000  0.27600000  0.72272000  1
  C  C133  1  0.35730000  0.73900000  0.23743000  1
  C  C134  1  0.35790000  0.37100000  0.01692000  1
  C  C135  1  0.36310000  0.81450000  0.52547000  1
  C  C136  1  0.37890000  0.28100000  0.00714000  1
  C  C137  1  0.39050000  0.45340000  0.59748000  1
  C  C138  1  0.39130000  0.30550000  0.77869000  1
  C  C139  1  0.39840000  0.76790000  0.29358000  1
  C  C140  1  0.41560000  0.21250000  0.62477000  1
  C  C141  1  0.42130000  0.67500000  0.13940000  1
  C  C142  1  0.43020000  0.71890000  0.91965000  1
  C  C143  1  0.43650000  0.18260000  0.40421000  1
  C  C144  1  0.44100000  0.95380000  0.56883000  1
  C  C145  1  0.44260000  0.41670000  0.05823000  1
  C  C146  1  0.45220000  0.62770000  0.91065000  1
  C  C147  1  0.45410000  0.08950000  0.39868000  1
  C  C148  1  0.45780000  0.24070000  0.68616000  1
  C  C149  1  0.46490000  0.70300000  0.20107000  1
  C  C150  1  0.46990000  0.76930000  0.55630000  1
  C  C151  1  0.48050000  0.66970000  0.54394000  1
  C  C152  1  0.48550000  0.23440000  0.03759000  1
  C  C153  1  0.49520000  0.86260000  0.97924000  1
  C  C154  1  0.50480000  0.13740000  0.02076000  1
  C  C155  1  0.51450000  0.76560000  0.96241000  1
  C  C156  1  0.51950000  0.33030000  0.45606000  1
  C  C157  1  0.53010000  0.23070000  0.44370000  1
  C  C158  1  0.53510000  0.29700000  0.79893000  1
  C  C159  1  0.54220000  0.75930000  0.31384000  1
  C  C160  1  0.54590000  0.91050000  0.60132000  1
  C  C161  1  0.54780000  0.37230000  0.08935000  1
  C  C162  1  0.55740000  0.58330000  0.94177000  1
  C  C163  1  0.55900000  0.04620000  0.43117000  1
  C  C164  1  0.56350000  0.81740000  0.59579000  1
  C  C165  1  0.56980000  0.28110000  0.08035000  1
  C  C166  1  0.57870000  0.32500000  0.86060000  1
  C  C167  1  0.58440000  0.78750000  0.37523000  1
  C  C168  1  0.60160000  0.23210000  0.70642000  1
  C  C169  1  0.60870000  0.69450000  0.22131000  1
  C  C170  1  0.60950000  0.54660000  0.40252000  1
  C  C171  1  0.62110000  0.71900000  0.99286000  1
  C  C172  1  0.63690000  0.18550000  0.47453000  1
  C  C173  1  0.64210000  0.62900000  0.98308000  1
  C  C174  1  0.64270000  0.26100000  0.76257000  1
  C  C175  1  0.64910000  0.72400000  0.27728000  1
  C  C176  1  0.65070000  0.09380000  0.46877000  1
  C  C177  1  0.69230000  0.78000000  0.79770000  1
  C  C178  1  0.70000000  0.24770000  0.28440000  1
  C  C179  1  0.71560000  0.18860000  0.66849000  1
  C  C180  1  0.72160000  0.65140000  0.18277000  1
  C  C181  1  0.77840000  0.84860000  0.68277000  1
  C  C182  1  0.78440000  0.31140000  0.16849000  1
  C  C183  1  0.80000000  0.25230000  0.78440000  1
  C  C184  1  0.80770000  0.72000000  0.29770000  1
  C  C185  1  0.84930000  0.40620000  0.96877000  1
  C  C186  1  0.85090000  0.77600000  0.77728000  1
  C  C187  1  0.85730000  0.23900000  0.26257000  1
  C  C188  1  0.85790000  0.87100000  0.48308000  1
  C  C189  1  0.86310000  0.31450000  0.97453000  1
  C  C190  1  0.87890000  0.78100000  0.49286000  1
  C  C191  1  0.89050000  0.95340000  0.90252000  1
  C  C192  1  0.89130000  0.80550000  0.72131000  1
  C  C193  1  0.89840000  0.26790000  0.20642000  1
  C  C194  1  0.91560000  0.71250000  0.87523000  1
  C  C195  1  0.92130000  0.17500000  0.36060000  1
  C  C196  1  0.93020000  0.21890000  0.58035000  1
  C  C197  1  0.93650000  0.68260000  0.09579000  1
  C  C198  1  0.94100000  0.45380000  0.93117000  1
  C  C199  1  0.94260000  0.91670000  0.44177000  1
  C  C200  1  0.95220000  0.12770000  0.58935000  1
  C  C201  1  0.95410000  0.58950000  0.10132000  1
  C  C202  1  0.95780000  0.74070000  0.81384000  1
  C  C203  1  0.96490000  0.20300000  0.29893000  1
  C  C204  1  0.96990000  0.26930000  0.94370000  1
  C  C205  1  0.98050000  0.16970000  0.95606000  1
  C  C206  1  0.98550000  0.73440000  0.46241000  1
  C  C207  1  0.99520000  0.36260000  0.52076000  1
  S  S208  1  0.19418000  0.25983000  0.86292000  1
  S  S209  1  0.20335000  0.72292000  0.37834000  1
  S  S210  1  0.29665000  0.77708000  0.87834000  1
  S  S211  1  0.30582000  0.24017000  0.36292000  1
  S  S212  1  0.69418000  0.75983000  0.63708000  1
  S  S213  1  0.70335000  0.22292000  0.12166000  1
  S  S214  1  0.79665000  0.27708000  0.62166000  1
  S  S215  1  0.80582000  0.74017000  0.13708000  1
  O  O216  1  0.01920000  0.04471000  0.05593000  1
  O  O217  1  0.08880000  0.39985000  0.48689000  1
  O  O218  1  0.10660000  0.13794000  0.95307000  1
  O  O219  1  0.11600000  0.59987000  0.45982000  1
  O  O220  1  0.13800000  0.87232000  0.03005000  1
  O  O221  1  0.24530000  0.03920000  0.08800000  1
  O  O222  1  0.25470000  0.46080000  0.58800000  1
  O  O223  1  0.36200000  0.62768000  0.53005000  1
  O  O224  1  0.38400000  0.90013000  0.95982000  1
  O  O225  1  0.39340000  0.36206000  0.45307000  1
  O  O226  1  0.41120000  0.10015000  0.98689000  1
  O  O227  1  0.48080000  0.45529000  0.55593000  1
  O  O228  1  0.51920000  0.54471000  0.44407000  1
  O  O229  1  0.58880000  0.89985000  0.01311000  1
  O  O230  1  0.60660000  0.63794000  0.54693000  1
  O  O231  1  0.61600000  0.09987000  0.04018000  1
  O  O232  1  0.63800000  0.37232000  0.46995000  1
  O  O233  1  0.74530000  0.53920000  0.41200000  1
  O  O234  1  0.75470000  0.96080000  0.91200000  1
  O  O235  1  0.86200000  0.12768000  0.96995000  1
  O  O236  1  0.88400000  0.40013000  0.54018000  1
  O  O237  1  0.89340000  0.86206000  0.04693000  1
  O  O238  1  0.91120000  0.60015000  0.51311000  1
  O  O239  1  0.98080000  0.95529000  0.94407000  1
