# generated using pymatgen
data_ErH3C6N2O5
_symmetry_space_group_name_H-M   'P 1'
_cell_length_a   6.15100000
_cell_length_b   11.70600000
_cell_length_c   14.06300000
_cell_angle_alpha   92.25500000
_cell_angle_beta   90.00000000
_cell_angle_gamma   90.00000000
_symmetry_Int_Tables_number   1
_chemical_formula_structural   ErH3C6N2O5
_chemical_formula_sum   'Er4 H12 C24 N8 O20'
_cell_volume   1011.80257048
_cell_formula_units_Z   4
loop_
 _symmetry_equiv_pos_site_id
 _symmetry_equiv_pos_as_xyz
  1  'x, y, z'
loop_
 _atom_site_type_symbol
 _atom_site_label
 _atom_site_symmetry_multiplicity
 _atom_site_fract_x
 _atom_site_fract_y
 _atom_site_fract_z
 _atom_site_occupancy
  Er  Er0  1  0.00667000  0.65373000  0.25417000  1
  Er  Er1  1  0.49333000  0.15373000  0.75417000  1
  Er  Er2  1  0.50667000  0.84627000  0.24583000  1
  Er  Er3  1  0.99333000  0.34627000  0.74583000  1
  H  H4  1  0.21600000  0.11800000  0.97680000  1
  H  H5  1  0.21690000  0.03490000  0.40220000  1
  H  H6  1  0.22200000  0.76600000  0.38000000  1
  H  H7  1  0.27800000  0.26600000  0.88000000  1
  H  H8  1  0.28310000  0.53490000  0.90220000  1
  H  H9  1  0.28400000  0.61800000  0.47680000  1
  H  H10  1  0.71600000  0.38200000  0.52320000  1
  H  H11  1  0.71690000  0.46510000  0.09780000  1
  H  H12  1  0.72200000  0.73400000  0.12000000  1
  H  H13  1  0.77800000  0.23400000  0.62000000  1
  H  H14  1  0.78310000  0.96510000  0.59780000  1
  H  H15  1  0.78400000  0.88200000  0.02320000  1
  C  C16  1  0.15270000  0.57480000  0.03040000  1
  C  C17  1  0.15380000  0.50780000  0.56680000  1
  C  C18  1  0.16580000  0.56990000  0.48520000  1
  C  C19  1  0.16610000  0.51950000  0.94160000  1
  C  C20  1  0.17680000  0.15920000  0.56540000  1
  C  C21  1  0.17790000  0.01780000  0.14490000  1
  C  C22  1  0.32210000  0.51780000  0.64490000  1
  C  C23  1  0.32320000  0.65920000  0.06540000  1
  C  C24  1  0.33390000  0.01950000  0.44160000  1
  C  C25  1  0.33420000  0.06990000  0.98520000  1
  C  C26  1  0.34620000  0.00780000  0.06680000  1
  C  C27  1  0.34730000  0.07480000  0.53040000  1
  C  C28  1  0.65270000  0.92520000  0.46960000  1
  C  C29  1  0.65380000  0.99220000  0.93320000  1
  C  C30  1  0.66580000  0.93010000  0.01480000  1
  C  C31  1  0.66610000  0.98050000  0.55840000  1
  C  C32  1  0.67680000  0.34080000  0.93460000  1
  C  C33  1  0.67790000  0.48220000  0.35510000  1
  C  C34  1  0.82210000  0.98220000  0.85510000  1
  C  C35  1  0.82320000  0.84080000  0.43460000  1
  C  C36  1  0.83390000  0.48050000  0.05840000  1
  C  C37  1  0.83420000  0.43010000  0.51480000  1
  C  C38  1  0.84620000  0.49220000  0.43320000  1
  C  C39  1  0.84730000  0.42520000  0.96960000  1
  N  N40  1  0.01320000  0.56270000  0.41900000  1
  N  N41  1  0.01570000  0.44500000  0.91140000  1
  N  N42  1  0.48430000  0.94500000  0.41140000  1
  N  N43  1  0.48680000  0.06270000  0.91900000  1
  N  N44  1  0.51320000  0.93730000  0.08100000  1
  N  N45  1  0.51570000  0.05500000  0.58860000  1
  N  N46  1  0.98430000  0.55500000  0.08860000  1
  N  N47  1  0.98680000  0.43730000  0.58100000  1
  O  O48  1  0.01560000  0.17210000  0.51660000  1
  O  O49  1  0.01840000  0.07960000  0.13110000  1
  O  O50  1  0.21490000  0.96210000  0.21800000  1
  O  O51  1  0.21670000  0.21110000  0.64540000  1
  O  O52  1  0.23000000  0.24670000  0.82896000  1
  O  O53  1  0.27000000  0.74670000  0.32896000  1
  O  O54  1  0.28330000  0.71110000  0.14540000  1
  O  O55  1  0.28510000  0.46210000  0.71800000  1
  O  O56  1  0.48160000  0.57960000  0.63110000  1
  O  O57  1  0.48440000  0.67210000  0.01660000  1
  O  O58  1  0.51560000  0.32790000  0.98340000  1
  O  O59  1  0.51840000  0.42040000  0.36890000  1
  O  O60  1  0.71490000  0.53790000  0.28200000  1
  O  O61  1  0.71670000  0.28890000  0.85460000  1
  O  O62  1  0.73000000  0.25330000  0.67104000  1
  O  O63  1  0.77000000  0.75330000  0.17104000  1
  O  O64  1  0.78330000  0.78890000  0.35460000  1
  O  O65  1  0.78510000  0.03790000  0.78200000  1
  O  O66  1  0.98160000  0.92040000  0.86890000  1
  O  O67  1  0.98440000  0.82790000  0.48340000  1
