# generated using pymatgen
data_Zn2H6C5N8O3
_symmetry_space_group_name_H-M   'P 1'
_cell_length_a   9.35310000
_cell_length_b   9.80550000
_cell_length_c   16.19410000
_cell_angle_alpha   90.00000000
_cell_angle_beta   90.00000000
_cell_angle_gamma   90.00000000
_symmetry_Int_Tables_number   1
_chemical_formula_structural   Zn2H6C5N8O3
_chemical_formula_sum   'Zn8 H24 C20 N32 O12'
_cell_volume   1485.19041746
_cell_formula_units_Z   4
loop_
 _symmetry_equiv_pos_site_id
 _symmetry_equiv_pos_as_xyz
  1  'x, y, z'
loop_
 _atom_site_type_symbol
 _atom_site_label
 _atom_site_symmetry_multiplicity
 _atom_site_fract_x
 _atom_site_fract_y
 _atom_site_fract_z
 _atom_site_occupancy
  Zn  Zn0  1  0.05950000  0.87998000  0.08234000  1
  Zn  Zn1  1  0.05950000  0.87998000  0.41766000  1
  Zn  Zn2  1  0.44050000  0.37998000  0.08234000  1
  Zn  Zn3  1  0.44050000  0.37998000  0.41766000  1
  Zn  Zn4  1  0.55950000  0.62002000  0.58234000  1
  Zn  Zn5  1  0.55950000  0.62002000  0.91766000  1
  Zn  Zn6  1  0.94050000  0.12002000  0.58234000  1
  Zn  Zn7  1  0.94050000  0.12002000  0.91766000  1
  H  H8  1  0.08120000  0.60440000  0.16830000  1
  H  H9  1  0.08120000  0.60440000  0.33170000  1
  H  H10  1  0.17040000  0.47870000  0.16480000  1
  H  H11  1  0.17040000  0.47870000  0.33520000  1
  H  H12  1  0.17260000  0.32920000  0.53190000  1
  H  H13  1  0.17260000  0.32920000  0.96810000  1
  H  H14  1  0.32740000  0.82920000  0.53190000  1
  H  H15  1  0.32740000  0.82920000  0.96810000  1
  H  H16  1  0.32960000  0.97870000  0.16480000  1
  H  H17  1  0.32960000  0.97870000  0.33520000  1
  H  H18  1  0.41880000  0.10440000  0.16830000  1
  H  H19  1  0.41880000  0.10440000  0.33170000  1
  H  H20  1  0.58120000  0.89560000  0.66830000  1
  H  H21  1  0.58120000  0.89560000  0.83170000  1
  H  H22  1  0.67040000  0.02130000  0.66480000  1
  H  H23  1  0.67040000  0.02130000  0.83520000  1
  H  H24  1  0.67260000  0.17080000  0.03190000  1
  H  H25  1  0.67260000  0.17080000  0.46810000  1
  H  H26  1  0.82740000  0.67080000  0.03190000  1
  H  H27  1  0.82740000  0.67080000  0.46810000  1
  H  H28  1  0.82960000  0.52130000  0.66480000  1
  H  H29  1  0.82960000  0.52130000  0.83520000  1
  H  H30  1  0.91880000  0.39560000  0.66830000  1
  H  H31  1  0.91880000  0.39560000  0.83170000  1
  C  C32  1  0.02470000  0.85960000  0.25000000  1
  C  C33  1  0.18240000  0.25420000  0.00280000  1
  C  C34  1  0.18240000  0.25420000  0.49720000  1
  C  C35  1  0.24030000  0.62100000  0.09320000  1
  C  C36  1  0.24030000  0.62100000  0.40680000  1
  C  C37  1  0.25970000  0.12100000  0.09320000  1
  C  C38  1  0.25970000  0.12100000  0.40680000  1
  C  C39  1  0.31760000  0.75420000  0.00280000  1
  C  C40  1  0.31760000  0.75420000  0.49720000  1
  C  C41  1  0.47530000  0.35960000  0.25000000  1
  C  C42  1  0.52470000  0.64040000  0.75000000  1
  C  C43  1  0.68240000  0.24580000  0.50280000  1
  C  C44  1  0.68240000  0.24580000  0.99720000  1
  C  C45  1  0.74030000  0.87900000  0.59320000  1
  C  C46  1  0.74030000  0.87900000  0.90680000  1
  C  C47  1  0.75970000  0.37900000  0.59320000  1
  C  C48  1  0.75970000  0.37900000  0.90680000  1
  C  C49  1  0.81760000  0.74580000  0.50280000  1
  C  C50  1  0.81760000  0.74580000  0.99720000  1
  C  C51  1  0.97530000  0.14040000  0.75000000  1
  N  N52  1  0.09760000  0.15130000  0.00110000  1
  N  N53  1  0.09760000  0.15130000  0.49890000  1
  N  N54  1  0.14550000  0.06090000  0.05980000  1
  N  N55  1  0.14550000  0.06090000  0.44020000  1
  N  N56  1  0.15340000  0.56080000  0.14880000  1
  N  N57  1  0.15340000  0.56080000  0.35120000  1
  N  N58  1  0.21370000  0.74280000  0.05920000  1
  N  N59  1  0.21370000  0.74280000  0.44080000  1
  N  N60  1  0.28630000  0.24280000  0.05920000  1
  N  N61  1  0.28630000  0.24280000  0.44080000  1
  N  N62  1  0.34660000  0.06080000  0.14880000  1
  N  N63  1  0.34660000  0.06080000  0.35120000  1
  N  N64  1  0.35450000  0.56090000  0.05980000  1
  N  N65  1  0.35450000  0.56090000  0.44020000  1
  N  N66  1  0.40240000  0.65130000  0.00110000  1
  N  N67  1  0.40240000  0.65130000  0.49890000  1
  N  N68  1  0.59760000  0.34870000  0.50110000  1
  N  N69  1  0.59760000  0.34870000  0.99890000  1
  N  N70  1  0.64550000  0.43910000  0.55980000  1
  N  N71  1  0.64550000  0.43910000  0.94020000  1
  N  N72  1  0.65340000  0.93920000  0.64880000  1
  N  N73  1  0.65340000  0.93920000  0.85120000  1
  N  N74  1  0.71370000  0.75720000  0.55920000  1
  N  N75  1  0.71370000  0.75720000  0.94080000  1
  N  N76  1  0.78630000  0.25720000  0.55920000  1
  N  N77  1  0.78630000  0.25720000  0.94080000  1
  N  N78  1  0.84660000  0.43920000  0.64880000  1
  N  N79  1  0.84660000  0.43920000  0.85120000  1
  N  N80  1  0.85450000  0.93910000  0.55980000  1
  N  N81  1  0.85450000  0.93910000  0.94020000  1
  N  N82  1  0.90240000  0.84870000  0.50110000  1
  N  N83  1  0.90240000  0.84870000  0.99890000  1
  O  O84  1  0.04180000  0.16220000  0.68200000  1
  O  O85  1  0.04180000  0.16220000  0.81800000  1
  O  O86  1  0.15020000  0.89010000  0.25000000  1
  O  O87  1  0.34980000  0.39010000  0.25000000  1
  O  O88  1  0.45820000  0.66220000  0.68200000  1
  O  O89  1  0.45820000  0.66220000  0.81800000  1
  O  O90  1  0.54180000  0.33780000  0.18200000  1
  O  O91  1  0.54180000  0.33780000  0.31800000  1
  O  O92  1  0.65020000  0.60990000  0.75000000  1
  O  O93  1  0.84980000  0.10990000  0.75000000  1
  O  O94  1  0.95820000  0.83780000  0.18200000  1
  O  O95  1  0.95820000  0.83780000  0.31800000  1
