# generated using pymatgen
data_CoH8C10NO5
_symmetry_space_group_name_H-M   'P 1'
_cell_length_a   6.70020000
_cell_length_b   7.68170000
_cell_length_c   27.13310000
_cell_angle_alpha   90.00000000
_cell_angle_beta   90.00000000
_cell_angle_gamma   90.00000000
_symmetry_Int_Tables_number   1
_chemical_formula_structural   CoH8C10NO5
_chemical_formula_sum   'Co4 H32 C40 N4 O20'
_cell_volume   1396.51152528
_cell_formula_units_Z   4
loop_
 _symmetry_equiv_pos_site_id
 _symmetry_equiv_pos_as_xyz
  1  'x, y, z'
loop_
 _atom_site_type_symbol
 _atom_site_label
 _atom_site_symmetry_multiplicity
 _atom_site_fract_x
 _atom_site_fract_y
 _atom_site_fract_z
 _atom_site_occupancy
  Co  Co0  1  0.99587000  0.75034000  0.71742000  1
  Co  Co1  1  0.50413000  0.24966000  0.21742000  1
  Co  Co2  1  0.49587000  0.24966000  0.78258000  1
  Co  Co3  1  0.00413000  0.75034000  0.28258000  1
  H  H4  1  0.98960000  0.90960000  0.84870000  1
  H  H5  1  0.96820000  0.88330000  0.61070000  1
  H  H6  1  0.91300000  0.32170000  0.81870000  1
  H  H7  1  0.90710000  0.62990000  0.13950000  1
  H  H8  1  0.88370000  0.31050000  0.11260000  1
  H  H9  1  0.85210000  0.88340000  0.46240000  1
  H  H10  1  0.83100000  0.21620000  0.02780000  1
  H  H11  1  0.78440000  0.25570000  0.64540000  1
  H  H12  1  0.71560000  0.74430000  0.14540000  1
  H  H13  1  0.66900000  0.78380000  0.52780000  1
  H  H14  1  0.64790000  0.11660000  0.96240000  1
  H  H15  1  0.61630000  0.68950000  0.61260000  1
  H  H16  1  0.59290000  0.37010000  0.63950000  1
  H  H17  1  0.58700000  0.67830000  0.31870000  1
  H  H18  1  0.53180000  0.11670000  0.11070000  1
  H  H19  1  0.51040000  0.09040000  0.34870000  1
  H  H20  1  0.48960000  0.09040000  0.65130000  1
  H  H21  1  0.46820000  0.11670000  0.88930000  1
  H  H22  1  0.41300000  0.67830000  0.68130000  1
  H  H23  1  0.40710000  0.37010000  0.36050000  1
  H  H24  1  0.38370000  0.68950000  0.38740000  1
  H  H25  1  0.35210000  0.11660000  0.03760000  1
  H  H26  1  0.33100000  0.78380000  0.47220000  1
  H  H27  1  0.28440000  0.74430000  0.85460000  1
  H  H28  1  0.21560000  0.25570000  0.35460000  1
  H  H29  1  0.16900000  0.21620000  0.97220000  1
  H  H30  1  0.14790000  0.88340000  0.53760000  1
  H  H31  1  0.11630000  0.31050000  0.88740000  1
  H  H32  1  0.09290000  0.62990000  0.86050000  1
  H  H33  1  0.08700000  0.32170000  0.18130000  1
  H  H34  1  0.03180000  0.88330000  0.38930000  1
  H  H35  1  0.01040000  0.90960000  0.15130000  1
  C  C36  1  0.98400000  0.27470000  0.88940000  1
  C  C37  1  0.96840000  0.21550000  0.02290000  1
  C  C38  1  0.95780000  0.84970000  0.18050000  1
  C  C39  1  0.90610000  0.21460000  0.93300000  1
  C  C40  1  0.90340000  0.83730000  0.38960000  1
  C  C41  1  0.85930000  0.28070000  0.84810000  1
  C  C42  1  0.83340000  0.97960000  0.20990000  1
  C  C43  1  0.82970000  0.69760000  0.16290000  1
  C  C44  1  0.79410000  0.84280000  0.43340000  1
  C  C45  1  0.75320000  0.57490000  0.20280000  1
  C  C46  1  0.74680000  0.42510000  0.70280000  1
  C  C47  1  0.70590000  0.15720000  0.93340000  1
  C  C48  1  0.67030000  0.30240000  0.66290000  1
  C  C49  1  0.66660000  0.02040000  0.70990000  1
  C  C50  1  0.64070000  0.71930000  0.34810000  1
  C  C51  1  0.59660000  0.16270000  0.88960000  1
  C  C52  1  0.59390000  0.78540000  0.43300000  1
  C  C53  1  0.54220000  0.15030000  0.68050000  1
  C  C54  1  0.53160000  0.78450000  0.52290000  1
  C  C55  1  0.51600000  0.72530000  0.38940000  1
  C  C56  1  0.48400000  0.72530000  0.61060000  1
  C  C57  1  0.46840000  0.78450000  0.47710000  1
  C  C58  1  0.45780000  0.15030000  0.31950000  1
  C  C59  1  0.40610000  0.78540000  0.56700000  1
  C  C60  1  0.40340000  0.16270000  0.11040000  1
  C  C61  1  0.35930000  0.71930000  0.65190000  1
  C  C62  1  0.33333333  0.02040000  0.29010000  1
  C  C63  1  0.32970000  0.30240000  0.33710000  1
  C  C64  1  0.29410000  0.15720000  0.06660000  1
  C  C65  1  0.25320000  0.42510000  0.29720000  1
  C  C66  1  0.24680000  0.57490000  0.79720000  1
  C  C67  1  0.20590000  0.84280000  0.56660000  1
  C  C68  1  0.17030000  0.69760000  0.83710000  1
  C  C69  1  0.16660000  0.97960000  0.79010000  1
  C  C70  1  0.14070000  0.28070000  0.15190000  1
  C  C71  1  0.09660000  0.83730000  0.61040000  1
  C  C72  1  0.09390000  0.21460000  0.06700000  1
  C  C73  1  0.04220000  0.84970000  0.81950000  1
  C  C74  1  0.03160000  0.21550000  0.97710000  1
  C  C75  1  0.01600000  0.27470000  0.11060000  1
  N  N76  1  0.83050000  0.76830000  0.34810000  1
  N  N77  1  0.66950000  0.23170000  0.84810000  1
  N  N78  1  0.33050000  0.23170000  0.15190000  1
  N  N79  1  0.16950000  0.76830000  0.65190000  1
  O  O80  1  0.87580000  0.78160000  0.79200000  1
  O  O81  1  0.85650000  0.97550000  0.25640000  1
  O  O82  1  0.84160000  0.55110000  0.68610000  1
  O  O83  1  0.78970000  0.60020000  0.24790000  1
  O  O84  1  0.77770000  0.92190000  0.68700000  1
  O  O85  1  0.72230000  0.07810000  0.18700000  1
  O  O86  1  0.71030000  0.39980000  0.74790000  1
  O  O87  1  0.65840000  0.44890000  0.18610000  1
  O  O88  1  0.64350000  0.02450000  0.75640000  1
  O  O89  1  0.62420000  0.21840000  0.29200000  1
  O  O90  1  0.37580000  0.21840000  0.70800000  1
  O  O91  1  0.35650000  0.02450000  0.24360000  1
  O  O92  1  0.34160000  0.44890000  0.81390000  1
  O  O93  1  0.28970000  0.39980000  0.25210000  1
  O  O94  1  0.27770000  0.07810000  0.81300000  1
  O  O95  1  0.22230000  0.92190000  0.31300000  1
  O  O96  1  0.21030000  0.60020000  0.75210000  1
  O  O97  1  0.15840000  0.55110000  0.31390000  1
  O  O98  1  0.14350000  0.97550000  0.74360000  1
  O  O99  1  0.12420000  0.78160000  0.20800000  1
