# generated using pymatgen
data_VH8C14O5
_symmetry_space_group_name_H-M   'P 1'
_cell_length_a   6.95700000
_cell_length_b   15.25880000
_cell_length_c   15.25880000
_cell_angle_alpha   84.75870000
_cell_angle_beta   76.82260000
_cell_angle_gamma   76.82260000
_symmetry_Int_Tables_number   1
_chemical_formula_structural   VH8C14O5
_chemical_formula_sum   'V2 H16 C28 O10'
_cell_volume   1534.30015032
_cell_formula_units_Z   2
loop_
 _symmetry_equiv_pos_site_id
 _symmetry_equiv_pos_as_xyz
  1  'x, y, z'
loop_
 _atom_site_type_symbol
 _atom_site_label
 _atom_site_symmetry_multiplicity
 _atom_site_fract_x
 _atom_site_fract_y
 _atom_site_fract_z
 _atom_site_occupancy
  V  V0  1  0.00000000  0.00000000  0.00000000  1
  V  V1  1  0.50000000  0.00000000  0.00000000  1
  H  H2  1  0.05552000  0.73296000  0.00709000  1
  H  H3  1  0.14096000  0.55739000  0.00303000  1
  H  H4  1  0.20138000  0.44261000  0.99697000  1
  H  H5  1  0.20443000  0.00709000  0.73296000  1
  H  H6  1  0.29557000  0.26704000  0.99291000  1
  H  H7  1  0.29862000  0.00303000  0.55739000  1
  H  H8  1  0.35904000  0.99697000  0.44261000  1
  H  H9  1  0.44448000  0.99291000  0.26704000  1
  H  H10  1  0.55552000  0.00709000  0.73296000  1
  H  H11  1  0.64096000  0.00303000  0.55739000  1
  H  H12  1  0.70138000  0.99697000  0.44261000  1
  H  H13  1  0.70443000  0.73296000  0.00709000  1
  H  H14  1  0.79557000  0.99291000  0.26704000  1
  H  H15  1  0.79862000  0.55739000  0.00303000  1
  H  H16  1  0.85904000  0.44261000  0.99697000  1
  H  H17  1  0.94448000  0.26704000  0.99291000  1
  C  C18  1  0.02600000  0.99800000  0.45000000  1
  C  C19  1  0.08460000  0.00400000  0.69400000  1
  C  C20  1  0.12100000  0.99900000  0.25900000  1
  C  C21  1  0.13700000  0.00300000  0.59500000  1
  C  C22  1  0.16800000  0.00800000  0.15600000  1
  C  C23  1  0.21740000  0.69400000  0.00400000  1
  C  C24  1  0.23500000  0.99700000  0.40500000  1
  C  C25  1  0.26500000  0.59500000  0.00300000  1
  C  C26  1  0.28260000  0.99600000  0.30600000  1
  C  C27  1  0.33200000  0.84400000  0.99200000  1
  C  C28  1  0.36300000  0.40500000  0.99700000  1
  C  C29  1  0.37900000  0.74100000  0.00100000  1
  C  C30  1  0.41540000  0.30600000  0.99600000  1
  C  C31  1  0.47400000  0.55000000  0.00200000  1
  C  C32  1  0.52600000  0.45000000  0.99800000  1
  C  C33  1  0.58460000  0.69400000  0.00400000  1
  C  C34  1  0.62100000  0.25900000  0.99900000  1
  C  C35  1  0.63700000  0.59500000  0.00300000  1
  C  C36  1  0.66800000  0.15600000  0.00800000  1
  C  C37  1  0.71740000  0.00400000  0.69400000  1
  C  C38  1  0.73500000  0.40500000  0.99700000  1
  C  C39  1  0.76500000  0.00300000  0.59500000  1
  C  C40  1  0.78260000  0.30600000  0.99600000  1
  C  C41  1  0.83200000  0.99200000  0.84400000  1
  C  C42  1  0.86300000  0.99700000  0.40500000  1
  C  C43  1  0.87900000  0.00100000  0.74100000  1
  C  C44  1  0.91540000  0.99600000  0.30600000  1
  C  C45  1  0.97400000  0.00200000  0.55000000  1
  O  O46  1  0.01250000  0.01350000  0.11550000  1
  O  O47  1  0.14150000  0.88450000  0.98650000  1
  O  O48  1  0.25000000  0.03800000  0.96200000  1
  O  O49  1  0.35850000  0.01350000  0.11550000  1
  O  O50  1  0.48750000  0.88450000  0.98650000  1
  O  O51  1  0.51250000  0.11550000  0.01350000  1
  O  O52  1  0.64150000  0.98650000  0.88450000  1
  O  O53  1  0.75000000  0.96200000  0.03800000  1
  O  O54  1  0.85850000  0.11550000  0.01350000  1
  O  O55  1  0.98750000  0.98650000  0.88450000  1
