# generated using pymatgen
data_Cu6H9C27N12O13
_symmetry_space_group_name_H-M   'P 1'
_cell_length_a   31.54686194
_cell_length_b   31.54686194
_cell_length_c   31.54686194
_cell_angle_alpha   60.00000000
_cell_angle_beta   60.00000000
_cell_angle_gamma   60.00000000
_symmetry_Int_Tables_number   1
_chemical_formula_structural   Cu6H9C27N12O13
_chemical_formula_sum   'Cu48 H72 C216 N96 O104'
_cell_volume   22200.02673689
_cell_formula_units_Z   8
loop_
 _symmetry_equiv_pos_site_id
 _symmetry_equiv_pos_as_xyz
  1  'x, y, z'
loop_
 _atom_site_type_symbol
 _atom_site_label
 _atom_site_symmetry_multiplicity
 _atom_site_fract_x
 _atom_site_fract_y
 _atom_site_fract_z
 _atom_site_occupancy
  C  C0  1  0.01403000  0.90423000  0.74607000  1
  C  C1  1  0.66433000  0.25393000  0.09577000  1
  C  C2  1  0.90423000  0.01403000  0.74607000  1
  C  C3  1  0.66433000  0.25393000  0.98597000  1
  C  C4  1  0.01403000  0.90423000  0.33567000  1
  C  C5  1  0.25393000  0.66433000  0.09577000  1
  C  C6  1  0.90423000  0.01403000  0.33567000  1
  C  C7  1  0.25393000  0.66433000  0.98597000  1
  C  C8  1  0.01795000  0.84839000  0.77209000  1
  C  C9  1  0.63843000  0.22791000  0.15161000  1
  C  C10  1  0.84839000  0.01795000  0.77209000  1
  C  C11  1  0.63843000  0.22791000  0.98205000  1
  C  C12  1  0.01795000  0.84839000  0.36157000  1
  C  C13  1  0.22791000  0.63843000  0.15161000  1
  C  C14  1  0.84839000  0.01795000  0.36157000  1
  C  C15  1  0.22791000  0.63843000  0.98205000  1
  C  C16  1  0.02102000  0.82164000  0.74622000  1
  C  C17  1  0.58888000  0.25378000  0.17836000  1
  C  C18  1  0.82164000  0.02102000  0.74622000  1
  C  C19  1  0.58888000  0.25378000  0.97898000  1
  C  C20  1  0.02102000  0.82164000  0.41112000  1
  C  C21  1  0.25378000  0.58888000  0.17836000  1
  C  C22  1  0.82164000  0.02102000  0.41112000  1
  C  C23  1  0.25378000  0.58888000  0.97898000  1
  C  C24  1  0.01693000  0.82303000  0.82303000  1
  C  C25  1  0.66299000  0.17697000  0.17697000  1
  C  C26  1  0.82303000  0.01693000  0.82303000  1
  C  C27  1  0.66299000  0.17697000  0.98307000  1
  C  C28  1  0.01693000  0.82303000  0.33701000  1
  C  C29  1  0.17697000  0.66299000  0.17697000  1
  C  C30  1  0.82303000  0.01693000  0.33701000  1
  C  C31  1  0.17697000  0.66299000  0.98307000  1
  C  C32  1  0.02050000  0.77160000  0.77160000  1
  C  C33  1  0.56370000  0.22840000  0.22840000  1
  C  C34  1  0.77160000  0.02050000  0.77160000  1
  C  C35  1  0.56370000  0.22840000  0.97950000  1
  C  C36  1  0.02050000  0.77160000  0.43630000  1
  C  C37  1  0.22840000  0.56370000  0.22840000  1
  C  C38  1  0.77160000  0.02050000  0.43630000  1
  C  C39  1  0.22840000  0.56370000  0.97950000  1
  C  C40  1  0.01795000  0.77209000  0.84839000  1
  C  C41  1  0.63843000  0.15161000  0.22791000  1
  C  C42  1  0.77209000  0.01795000  0.84839000  1
  C  C43  1  0.63843000  0.15161000  0.98205000  1
  C  C44  1  0.01795000  0.77209000  0.36157000  1
  C  C45  1  0.15161000  0.63843000  0.22791000  1
  C  C46  1  0.77209000  0.01795000  0.36157000  1
  C  C47  1  0.15161000  0.63843000  0.98205000  1
  C  C48  1  0.02102000  0.74622000  0.82164000  1
  C  C49  1  0.58888000  0.17836000  0.25378000  1
  C  C50  1  0.74622000  0.02102000  0.82164000  1
  C  C51  1  0.58888000  0.17836000  0.97898000  1
  C  C52  1  0.02102000  0.74622000  0.41112000  1
  C  C53  1  0.17836000  0.58888000  0.25378000  1
  C  C54  1  0.74622000  0.02102000  0.41112000  1
  C  C55  1  0.17836000  0.58888000  0.97898000  1
  C  C56  1  0.02314000  0.74320000  0.74320000  1
  C  C57  1  0.50954000  0.25680000  0.25680000  1
  C  C58  1  0.02314000  0.74320000  0.49046000  1
  C  C59  1  0.25680000  0.50954000  0.25680000  1
  C  C60  1  0.74320000  0.02314000  0.74320000  1
  C  C61  1  0.50954000  0.25680000  0.97686000  1
  C  C62  1  0.74320000  0.02314000  0.49046000  1
  C  C63  1  0.25680000  0.50954000  0.97686000  1
  C  C64  1  0.01403000  0.74607000  0.90423000  1
  C  C65  1  0.66433000  0.09577000  0.25393000  1
  C  C66  1  0.74607000  0.01403000  0.90423000  1
  C  C67  1  0.66433000  0.09577000  0.98597000  1
  C  C68  1  0.01403000  0.74607000  0.33567000  1
  C  C69  1  0.09577000  0.66433000  0.25393000  1
  C  C70  1  0.74607000  0.01403000  0.33567000  1
  C  C71  1  0.09577000  0.66433000  0.98597000  1
  C  C72  1  0.90423000  0.74607000  0.01403000  1
  C  C73  1  0.66433000  0.98597000  0.25393000  1
  C  C74  1  0.74607000  0.90423000  0.01403000  1
  C  C75  1  0.66433000  0.98597000  0.09577000  1
  C  C76  1  0.90423000  0.74607000  0.33567000  1
  C  C77  1  0.98597000  0.66433000  0.25393000  1
  C  C78  1  0.74607000  0.90423000  0.33567000  1
  C  C79  1  0.98597000  0.66433000  0.09577000  1
  C  C80  1  0.82303000  0.82303000  0.01693000  1
  C  C81  1  0.66299000  0.98307000  0.17697000  1
  C  C82  1  0.82303000  0.82303000  0.33701000  1
  C  C83  1  0.98307000  0.66299000  0.17697000  1
  C  C84  1  0.84839000  0.77209000  0.01795000  1
  C  C85  1  0.63843000  0.98205000  0.22791000  1
  C  C86  1  0.77209000  0.84839000  0.01795000  1
  C  C87  1  0.63843000  0.98205000  0.15161000  1
  C  C88  1  0.84839000  0.77209000  0.36157000  1
  C  C89  1  0.98205000  0.63843000  0.22791000  1
  C  C90  1  0.77209000  0.84839000  0.36157000  1
  C  C91  1  0.98205000  0.63843000  0.15161000  1
  C  C92  1  0.82164000  0.74622000  0.02102000  1
  C  C93  1  0.58888000  0.97898000  0.25378000  1
  C  C94  1  0.74622000  0.82164000  0.02102000  1
  C  C95  1  0.58888000  0.97898000  0.17836000  1
  C  C96  1  0.82164000  0.74622000  0.41112000  1
  C  C97  1  0.97898000  0.58888000  0.25378000  1
  C  C98  1  0.74622000  0.82164000  0.41112000  1
  C  C99  1  0.97898000  0.58888000  0.17836000  1
  C  C100  1  0.77160000  0.77160000  0.02050000  1
  C  C101  1  0.56370000  0.97950000  0.22840000  1
  C  C102  1  0.77160000  0.77160000  0.43630000  1
  C  C103  1  0.97950000  0.56370000  0.22840000  1
  C  C104  1  0.02314000  0.49046000  0.74320000  1
  C  C105  1  0.25680000  0.25680000  0.50954000  1
  C  C106  1  0.49046000  0.02314000  0.74320000  1
  C  C107  1  0.25680000  0.25680000  0.97686000  1
  C  C108  1  0.74320000  0.74320000  0.02314000  1
  C  C109  1  0.50954000  0.97686000  0.25680000  1
  C  C110  1  0.74320000  0.74320000  0.49046000  1
  C  C111  1  0.97686000  0.50954000  0.25680000  1
  C  C112  1  0.02050000  0.43630000  0.77160000  1
  C  C113  1  0.22840000  0.22840000  0.56370000  1
  C  C114  1  0.43630000  0.02050000  0.77160000  1
  C  C115  1  0.22840000  0.22840000  0.97950000  1
  C  C116  1  0.02102000  0.41112000  0.82164000  1
  C  C117  1  0.25378000  0.17836000  0.58888000  1
  C  C118  1  0.02102000  0.41112000  0.74622000  1
  C  C119  1  0.17836000  0.25378000  0.58888000  1
  C  C120  1  0.41112000  0.02102000  0.82164000  1
  C  C121  1  0.25378000  0.17836000  0.97898000  1
  C  C122  1  0.41112000  0.02102000  0.74622000  1
  C  C123  1  0.17836000  0.25378000  0.97898000  1
  C  C124  1  0.01795000  0.36157000  0.84839000  1
  C  C125  1  0.22791000  0.15161000  0.63843000  1
  C  C126  1  0.01795000  0.36157000  0.77209000  1
  C  C127  1  0.15161000  0.22791000  0.63843000  1
  C  C128  1  0.36157000  0.01795000  0.84839000  1
  C  C129  1  0.22791000  0.15161000  0.98205000  1
  C  C130  1  0.36157000  0.01795000  0.77209000  1
  C  C131  1  0.15161000  0.22791000  0.98205000  1
  C  C132  1  0.01693000  0.33701000  0.82303000  1
  C  C133  1  0.17697000  0.17697000  0.66299000  1
  C  C134  1  0.33701000  0.01693000  0.82303000  1
  C  C135  1  0.17697000  0.17697000  0.98307000  1
  C  C136  1  0.01403000  0.33567000  0.90423000  1
  C  C137  1  0.25393000  0.09577000  0.66433000  1
  C  C138  1  0.01403000  0.33567000  0.74607000  1
  C  C139  1  0.09577000  0.25393000  0.66433000  1
  C  C140  1  0.33567000  0.01403000  0.90423000  1
  C  C141  1  0.25393000  0.09577000  0.98597000  1
  C  C142  1  0.33567000  0.01403000  0.74607000  1
  C  C143  1  0.09577000  0.25393000  0.98597000  1
  C  C144  1  0.90423000  0.33567000  0.01403000  1
  C  C145  1  0.25393000  0.98597000  0.66433000  1
  C  C146  1  0.90423000  0.33567000  0.74607000  1
  C  C147  1  0.98597000  0.25393000  0.66433000  1
  C  C148  1  0.33567000  0.90423000  0.01403000  1
  C  C149  1  0.25393000  0.98597000  0.09577000  1
  C  C150  1  0.33567000  0.90423000  0.74607000  1
  C  C151  1  0.98597000  0.25393000  0.09577000  1
  C  C152  1  0.74320000  0.49046000  0.02314000  1
  C  C153  1  0.25680000  0.97686000  0.50954000  1
  C  C154  1  0.49046000  0.74320000  0.02314000  1
  C  C155  1  0.25680000  0.97686000  0.25680000  1
  C  C156  1  0.74320000  0.49046000  0.74320000  1
  C  C157  1  0.97686000  0.25680000  0.50954000  1
  C  C158  1  0.49046000  0.74320000  0.74320000  1
  C  C159  1  0.97686000  0.25680000  0.25680000  1
  C  C160  1  0.82164000  0.41112000  0.02102000  1
  C  C161  1  0.25378000  0.97898000  0.58888000  1
  C  C162  1  0.82164000  0.41112000  0.74622000  1
  C  C163  1  0.97898000  0.25378000  0.58888000  1
  C  C164  1  0.41112000  0.82164000  0.02102000  1
  C  C165  1  0.25378000  0.97898000  0.17836000  1
  C  C166  1  0.41112000  0.82164000  0.74622000  1
  C  C167  1  0.97898000  0.25378000  0.17836000  1
  C  C168  1  0.84839000  0.36157000  0.01795000  1
  C  C169  1  0.22791000  0.98205000  0.63843000  1
  C  C170  1  0.84839000  0.36157000  0.77209000  1
  C  C171  1  0.98205000  0.22791000  0.63843000  1
  C  C172  1  0.36157000  0.84839000  0.01795000  1
  C  C173  1  0.22791000  0.98205000  0.15161000  1
  C  C174  1  0.36157000  0.84839000  0.77209000  1
  C  C175  1  0.98205000  0.22791000  0.15161000  1
  C  C176  1  0.77160000  0.43630000  0.02050000  1
  C  C177  1  0.22840000  0.97950000  0.56370000  1
  C  C178  1  0.77160000  0.43630000  0.77160000  1
  C  C179  1  0.97950000  0.22840000  0.56370000  1
  C  C180  1  0.43630000  0.77160000  0.02050000  1
  C  C181  1  0.22840000  0.97950000  0.22840000  1
  C  C182  1  0.43630000  0.77160000  0.77160000  1
  C  C183  1  0.97950000  0.22840000  0.22840000  1
  C  C184  1  0.82303000  0.33701000  0.01693000  1
  C  C185  1  0.17697000  0.98307000  0.66299000  1
  C  C186  1  0.82303000  0.33701000  0.82303000  1
  C  C187  1  0.98307000  0.17697000  0.66299000  1
  C  C188  1  0.33701000  0.82303000  0.01693000  1
  C  C189  1  0.17697000  0.98307000  0.17697000  1
  C  C190  1  0.33701000  0.82303000  0.82303000  1
  C  C191  1  0.98307000  0.17697000  0.17697000  1
  C  C192  1  0.74622000  0.41112000  0.02102000  1
  C  C193  1  0.17836000  0.97898000  0.58888000  1
  C  C194  1  0.74622000  0.41112000  0.82164000  1
  C  C195  1  0.97898000  0.17836000  0.58888000  1
  C  C196  1  0.41112000  0.74622000  0.02102000  1
  C  C197  1  0.17836000  0.97898000  0.25378000  1
  C  C198  1  0.41112000  0.74622000  0.82164000  1
  C  C199  1  0.97898000  0.17836000  0.25378000  1
  C  C200  1  0.77209000  0.36157000  0.01795000  1
  C  C201  1  0.15161000  0.98205000  0.63843000  1
  C  C202  1  0.77209000  0.36157000  0.84839000  1
  C  C203  1  0.98205000  0.15161000  0.63843000  1
  C  C204  1  0.36157000  0.77209000  0.01795000  1
  C  C205  1  0.15161000  0.98205000  0.22791000  1
  C  C206  1  0.36157000  0.77209000  0.84839000  1
  C  C207  1  0.98205000  0.15161000  0.22791000  1
  C  C208  1  0.74607000  0.33567000  0.01403000  1
  C  C209  1  0.09577000  0.98597000  0.66433000  1
  C  C210  1  0.74607000  0.33567000  0.90423000  1
  C  C211  1  0.98597000  0.09577000  0.66433000  1
  C  C212  1  0.33567000  0.74607000  0.01403000  1
  C  C213  1  0.09577000  0.98597000  0.25393000  1
  C  C214  1  0.33567000  0.74607000  0.90423000  1
  C  C215  1  0.98597000  0.09577000  0.25393000  1
  Cu  Cu216  1  0.00000000  1.00000000  0.74706000  1
  Cu  Cu217  1  0.74706000  0.25294000  1.00000000  1
  Cu  Cu218  1  0.00000000  1.00000000  0.66324000  1
  Cu  Cu219  1  0.66324000  0.33676000  1.00000000  1
  Cu  Cu220  1  0.00000000  1.00000000  0.33676000  1
  Cu  Cu221  1  0.33676000  0.66324000  1.00000000  1
  Cu  Cu222  1  0.00000000  1.00000000  0.25294000  1
  Cu  Cu223  1  0.25294000  0.74706000  1.00000000  1
  Cu  Cu224  1  0.02480000  0.72948000  0.62286000  1
  Cu  Cu225  1  0.37714000  0.37714000  0.27052000  1
  Cu  Cu226  1  0.72948000  0.02480000  0.62286000  1
  Cu  Cu227  1  0.37714000  0.37714000  0.97520000  1
  Cu  Cu228  1  0.00000000  0.74706000  1.00000000  1
  Cu  Cu229  1  0.74706000  1.00000000  0.25294000  1
  Cu  Cu230  1  0.74706000  1.00000000  1.00000000  1
  Cu  Cu231  1  0.00000000  0.74706000  0.25294000  1
  Cu  Cu232  1  0.00000000  0.66324000  1.00000000  1
  Cu  Cu233  1  0.66324000  0.00000000  0.33676000  1
  Cu  Cu234  1  0.66324000  0.00000000  1.00000000  1
  Cu  Cu235  1  0.00000000  0.66324000  0.33676000  1
  Cu  Cu236  1  0.02480000  0.62286000  0.72948000  1
  Cu  Cu237  1  0.37714000  0.27052000  0.37714000  1
  Cu  Cu238  1  0.02480000  0.62286000  0.62286000  1
  Cu  Cu239  1  0.27052000  0.37714000  0.37714000  1
  Cu  Cu240  1  0.62286000  0.02480000  0.72948000  1
  Cu  Cu241  1  0.37714000  0.27052000  0.97520000  1
  Cu  Cu242  1  0.62286000  0.02480000  0.62286000  1
  Cu  Cu243  1  0.27052000  0.37714000  0.97520000  1
  Cu  Cu244  1  0.72948000  0.62286000  0.02480000  1
  Cu  Cu245  1  0.37714000  0.97520000  0.37714000  1
  Cu  Cu246  1  0.62286000  0.72948000  0.02480000  1
  Cu  Cu247  1  0.37714000  0.97520000  0.27052000  1
  Cu  Cu248  1  0.72948000  0.62286000  0.62286000  1
  Cu  Cu249  1  0.97520000  0.37714000  0.37714000  1
  Cu  Cu250  1  0.62286000  0.72948000  0.62286000  1
  Cu  Cu251  1  0.97520000  0.37714000  0.27052000  1
  Cu  Cu252  1  1.00000000  0.33676000  1.00000000  1
  Cu  Cu253  1  0.33676000  0.00000000  0.66324000  1
  Cu  Cu254  1  0.00000000  0.33676000  0.66324000  1
  Cu  Cu255  1  0.33676000  0.00000000  1.00000000  1
  Cu  Cu256  1  1.00000000  0.25294000  0.00000000  1
  Cu  Cu257  1  0.25294000  0.00000000  0.74706000  1
  Cu  Cu258  1  0.00000000  0.25294000  0.74706000  1
  Cu  Cu259  1  0.25294000  0.00000000  0.00000000  1
  Cu  Cu260  1  0.62286000  0.62286000  0.02480000  1
  Cu  Cu261  1  0.27052000  0.97520000  0.37714000  1
  Cu  Cu262  1  0.62286000  0.62286000  0.72948000  1
  Cu  Cu263  1  0.97520000  0.27052000  0.37714000  1
  H  H264  1  0.02340000  0.83780000  0.71140000  1
  H  H265  1  0.57260000  0.28860000  0.16220000  1
  H  H266  1  0.83780000  0.02340000  0.71140000  1
  H  H267  1  0.57260000  0.28860000  0.97660000  1
  H  H268  1  0.02340000  0.83780000  0.42740000  1
  H  H269  1  0.28860000  0.57260000  0.16220000  1
  H  H270  1  0.83780000  0.02340000  0.42740000  1
  H  H271  1  0.28860000  0.57260000  0.97660000  1
  H  H272  1  0.01550000  0.84050000  0.84050000  1
  H  H273  1  0.69650000  0.15950000  0.15950000  1
  H  H274  1  0.84050000  0.01550000  0.84050000  1
  H  H275  1  0.69650000  0.15950000  0.98450000  1
  H  H276  1  0.01550000  0.84050000  0.30350000  1
  H  H277  1  0.15950000  0.69650000  0.15950000  1
  H  H278  1  0.84050000  0.01550000  0.30350000  1
  H  H279  1  0.15950000  0.69650000  0.98450000  1
  H  H280  1  0.02340000  0.71140000  0.83780000  1
  H  H281  1  0.57260000  0.16220000  0.28860000  1
  H  H282  1  0.71140000  0.02340000  0.83780000  1
  H  H283  1  0.57260000  0.16220000  0.97660000  1
  H  H284  1  0.02340000  0.71140000  0.42740000  1
  H  H285  1  0.16220000  0.57260000  0.28860000  1
  H  H286  1  0.71140000  0.02340000  0.42740000  1
  H  H287  1  0.16220000  0.57260000  0.97660000  1
  H  H288  1  0.84050000  0.84050000  0.01550000  1
  H  H289  1  0.69650000  0.98450000  0.15950000  1
  H  H290  1  0.84050000  0.84050000  0.30350000  1
  H  H291  1  0.98450000  0.69650000  0.15950000  1
  H  H292  1  0.83780000  0.71140000  0.02340000  1
  H  H293  1  0.57260000  0.97660000  0.28860000  1
  H  H294  1  0.71140000  0.83780000  0.02340000  1
  H  H295  1  0.57260000  0.97660000  0.16220000  1
  H  H296  1  0.83780000  0.71140000  0.42740000  1
  H  H297  1  0.97660000  0.57260000  0.28860000  1
  H  H298  1  0.71140000  0.83780000  0.42740000  1
  H  H299  1  0.97660000  0.57260000  0.16220000  1
  H  H300  1  0.02340000  0.42740000  0.83780000  1
  H  H301  1  0.28860000  0.16220000  0.57260000  1
  H  H302  1  0.02340000  0.42740000  0.71140000  1
  H  H303  1  0.16220000  0.28860000  0.57260000  1
  H  H304  1  0.42740000  0.02340000  0.83780000  1
  H  H305  1  0.28860000  0.16220000  0.97660000  1
  H  H306  1  0.42740000  0.02340000  0.71140000  1
  H  H307  1  0.16220000  0.28860000  0.97660000  1
  H  H308  1  0.01550000  0.30350000  0.84050000  1
  H  H309  1  0.15950000  0.15950000  0.69650000  1
  H  H310  1  0.30350000  0.01550000  0.84050000  1
  H  H311  1  0.15950000  0.15950000  0.98450000  1
  H  H312  1  0.83780000  0.42740000  0.02340000  1
  H  H313  1  0.28860000  0.97660000  0.57260000  1
  H  H314  1  0.83780000  0.42740000  0.71140000  1
  H  H315  1  0.97660000  0.28860000  0.57260000  1
  H  H316  1  0.42740000  0.83780000  0.02340000  1
  H  H317  1  0.28860000  0.97660000  0.16220000  1
  H  H318  1  0.42740000  0.83780000  0.71140000  1
  H  H319  1  0.97660000  0.28860000  0.16220000  1
  H  H320  1  0.84050000  0.30350000  0.01550000  1
  H  H321  1  0.15950000  0.98450000  0.69650000  1
  H  H322  1  0.84050000  0.30350000  0.84050000  1
  H  H323  1  0.98450000  0.15950000  0.69650000  1
  H  H324  1  0.30350000  0.84050000  0.01550000  1
  H  H325  1  0.15950000  0.98450000  0.15950000  1
  H  H326  1  0.30350000  0.84050000  0.84050000  1
  H  H327  1  0.98450000  0.15950000  0.15950000  1
  H  H328  1  0.71140000  0.42740000  0.02340000  1
  H  H329  1  0.16220000  0.97660000  0.57260000  1
  H  H330  1  0.71140000  0.42740000  0.83780000  1
  H  H331  1  0.97660000  0.16220000  0.57260000  1
  H  H332  1  0.42740000  0.71140000  0.02340000  1
  H  H333  1  0.16220000  0.97660000  0.28860000  1
  H  H334  1  0.42740000  0.71140000  0.83780000  1
  H  H335  1  0.97660000  0.16220000  0.28860000  1
  N  N336  1  0.02316000  0.76454000  0.69512000  1
  N  N337  1  0.48282000  0.30488000  0.23546000  1
  N  N338  1  0.02316000  0.76454000  0.51718000  1
  N  N339  1  0.30488000  0.48282000  0.23546000  1
  N  N340  1  0.76454000  0.02316000  0.69512000  1
  N  N341  1  0.48282000  0.30488000  0.97684000  1
  N  N342  1  0.76454000  0.02316000  0.51718000  1
  N  N343  1  0.30488000  0.48282000  0.97684000  1
  N  N344  1  0.02275000  0.72761000  0.68711000  1
  N  N345  1  0.43747000  0.31289000  0.27239000  1
  N  N346  1  0.02275000  0.72761000  0.56253000  1
  N  N347  1  0.31289000  0.43747000  0.27239000  1
  N  N348  1  0.72761000  0.02275000  0.68711000  1
  N  N349  1  0.43747000  0.31289000  0.97725000  1
  N  N350  1  0.72761000  0.02275000  0.56253000  1
  N  N351  1  0.31289000  0.43747000  0.97725000  1
  N  N352  1  0.02316000  0.69512000  0.76454000  1
  N  N353  1  0.48282000  0.23546000  0.30488000  1
  N  N354  1  0.02316000  0.69512000  0.51718000  1
  N  N355  1  0.23546000  0.48282000  0.30488000  1
  N  N356  1  0.69512000  0.02316000  0.76454000  1
  N  N357  1  0.48282000  0.23546000  0.97684000  1
  N  N358  1  0.69512000  0.02316000  0.51718000  1
  N  N359  1  0.23546000  0.48282000  0.97684000  1
  N  N360  1  0.02275000  0.68711000  0.72761000  1
  N  N361  1  0.43747000  0.27239000  0.31289000  1
  N  N362  1  0.02275000  0.68711000  0.56253000  1
  N  N363  1  0.27239000  0.43747000  0.31289000  1
  N  N364  1  0.68711000  0.02275000  0.72761000  1
  N  N365  1  0.43747000  0.27239000  0.97725000  1
  N  N366  1  0.68711000  0.02275000  0.56253000  1
  N  N367  1  0.27239000  0.43747000  0.97725000  1
  N  N368  1  0.02275000  0.56253000  0.72761000  1
  N  N369  1  0.31289000  0.27239000  0.43747000  1
  N  N370  1  0.02275000  0.56253000  0.68711000  1
  N  N371  1  0.27239000  0.31289000  0.43747000  1
  N  N372  1  0.56253000  0.02275000  0.72761000  1
  N  N373  1  0.31289000  0.27239000  0.97725000  1
  N  N374  1  0.56253000  0.02275000  0.68711000  1
  N  N375  1  0.27239000  0.31289000  0.97725000  1
  N  N376  1  0.02316000  0.51718000  0.76454000  1
  N  N377  1  0.30488000  0.23546000  0.48282000  1
  N  N378  1  0.02316000  0.51718000  0.69512000  1
  N  N379  1  0.23546000  0.30488000  0.48282000  1
  N  N380  1  0.51718000  0.02316000  0.76454000  1
  N  N381  1  0.30488000  0.23546000  0.97684000  1
  N  N382  1  0.51718000  0.02316000  0.69512000  1
  N  N383  1  0.23546000  0.30488000  0.97684000  1
  N  N384  1  0.76454000  0.69512000  0.02316000  1
  N  N385  1  0.48282000  0.97684000  0.30488000  1
  N  N386  1  0.69512000  0.76454000  0.02316000  1
  N  N387  1  0.48282000  0.97684000  0.23546000  1
  N  N388  1  0.76454000  0.69512000  0.51718000  1
  N  N389  1  0.97684000  0.48282000  0.30488000  1
  N  N390  1  0.69512000  0.76454000  0.51718000  1
  N  N391  1  0.97684000  0.48282000  0.23546000  1
  N  N392  1  0.72761000  0.68711000  0.02275000  1
  N  N393  1  0.43747000  0.97725000  0.31289000  1
  N  N394  1  0.68711000  0.72761000  0.02275000  1
  N  N395  1  0.43747000  0.97725000  0.27239000  1
  N  N396  1  0.72761000  0.68711000  0.56253000  1
  N  N397  1  0.97725000  0.43747000  0.31289000  1
  N  N398  1  0.68711000  0.72761000  0.56253000  1
  N  N399  1  0.97725000  0.43747000  0.27239000  1
  N  N400  1  0.72761000  0.56253000  0.02275000  1
  N  N401  1  0.31289000  0.97725000  0.43747000  1
  N  N402  1  0.56253000  0.72761000  0.02275000  1
  N  N403  1  0.31289000  0.97725000  0.27239000  1
  N  N404  1  0.72761000  0.56253000  0.68711000  1
  N  N405  1  0.97725000  0.31289000  0.43747000  1
  N  N406  1  0.56253000  0.72761000  0.68711000  1
  N  N407  1  0.97725000  0.31289000  0.27239000  1
  N  N408  1  0.76454000  0.51718000  0.02316000  1
  N  N409  1  0.30488000  0.97684000  0.48282000  1
  N  N410  1  0.51718000  0.76454000  0.02316000  1
  N  N411  1  0.30488000  0.97684000  0.23546000  1
  N  N412  1  0.76454000  0.51718000  0.69512000  1
  N  N413  1  0.97684000  0.30488000  0.48282000  1
  N  N414  1  0.51718000  0.76454000  0.69512000  1
  N  N415  1  0.97684000  0.30488000  0.23546000  1
  N  N416  1  0.68711000  0.56253000  0.02275000  1
  N  N417  1  0.27239000  0.97725000  0.43747000  1
  N  N418  1  0.56253000  0.68711000  0.02275000  1
  N  N419  1  0.27239000  0.97725000  0.31289000  1
  N  N420  1  0.68711000  0.56253000  0.72761000  1
  N  N421  1  0.97725000  0.27239000  0.43747000  1
  N  N422  1  0.56253000  0.68711000  0.72761000  1
  N  N423  1  0.97725000  0.27239000  0.31289000  1
  N  N424  1  0.69512000  0.51718000  0.02316000  1
  N  N425  1  0.23546000  0.97684000  0.48282000  1
  N  N426  1  0.51718000  0.69512000  0.02316000  1
  N  N427  1  0.23546000  0.97684000  0.30488000  1
  N  N428  1  0.69512000  0.51718000  0.76454000  1
  N  N429  1  0.97684000  0.23546000  0.48282000  1
  N  N430  1  0.51718000  0.69512000  0.76454000  1
  N  N431  1  0.97684000  0.23546000  0.30488000  1
  O  O432  1  0.01254000  0.92576000  0.77150000  1
  O  O433  1  0.70980000  0.22850000  0.07424000  1
  O  O434  1  0.92576000  0.01254000  0.77150000  1
  O  O435  1  0.70980000  0.22850000  0.98746000  1
  O  O436  1  0.01254000  0.92576000  0.29020000  1
  O  O437  1  0.22850000  0.70980000  0.07424000  1
  O  O438  1  0.92576000  0.01254000  0.29020000  1
  O  O439  1  0.22850000  0.70980000  0.98746000  1
  O  O440  1  0.01252000  0.92572000  0.70054000  1
  O  O441  1  0.63878000  0.29946000  0.07428000  1
  O  O442  1  0.92572000  0.01252000  0.70054000  1
  O  O443  1  0.63878000  0.29946000  0.98748000  1
  O  O444  1  0.01252000  0.92572000  0.36122000  1
  O  O445  1  0.29946000  0.63878000  0.07428000  1
  O  O446  1  0.92572000  0.01252000  0.36122000  1
  O  O447  1  0.29946000  0.63878000  0.98748000  1
  O  O448  1  0.01254000  0.77150000  0.92576000  1
  O  O449  1  0.70980000  0.07424000  0.22850000  1
  O  O450  1  0.77150000  0.01254000  0.92576000  1
  O  O451  1  0.70980000  0.07424000  0.98746000  1
  O  O452  1  0.01254000  0.77150000  0.29020000  1
  O  O453  1  0.07424000  0.70980000  0.22850000  1
  O  O454  1  0.77150000  0.01254000  0.29020000  1
  O  O455  1  0.07424000  0.70980000  0.98746000  1
  O  O456  1  0.01252000  0.70054000  0.92572000  1
  O  O457  1  0.63878000  0.07428000  0.29946000  1
  O  O458  1  0.70054000  0.01252000  0.92572000  1
  O  O459  1  0.63878000  0.07428000  0.98748000  1
  O  O460  1  0.01252000  0.70054000  0.36122000  1
  O  O461  1  0.07428000  0.63878000  0.29946000  1
  O  O462  1  0.70054000  0.01252000  0.36122000  1
  O  O463  1  0.07428000  0.63878000  0.98748000  1
  O  O464  1  0.92576000  0.77150000  0.01254000  1
  O  O465  1  0.70980000  0.98746000  0.22850000  1
  O  O466  1  0.77150000  0.92576000  0.01254000  1
  O  O467  1  0.70980000  0.98746000  0.07424000  1
  O  O468  1  0.92576000  0.77150000  0.29020000  1
  O  O469  1  0.98746000  0.70980000  0.22850000  1
  O  O470  1  0.77150000  0.92576000  0.29020000  1
  O  O471  1  0.98746000  0.70980000  0.07424000  1
  O  O472  1  0.00443000  0.66519000  0.66519000  1
  O  O473  1  0.33481000  0.33481000  0.33481000  1
  O  O474  1  0.66519000  0.00443000  0.66519000  1
  O  O475  1  0.33481000  0.33481000  0.99557000  1
  O  O476  1  0.92572000  0.70054000  0.01252000  1
  O  O477  1  0.63878000  0.98748000  0.29946000  1
  O  O478  1  0.70054000  0.92572000  0.01252000  1
  O  O479  1  0.63878000  0.98748000  0.07428000  1
  O  O480  1  0.92572000  0.70054000  0.36122000  1
  O  O481  1  0.98748000  0.63878000  0.29946000  1
  O  O482  1  0.70054000  0.92572000  0.36122000  1
  O  O483  1  0.98748000  0.63878000  0.07428000  1
  O  O484  1  0.01252000  0.36122000  0.92572000  1
  O  O485  1  0.29946000  0.07428000  0.63878000  1
  O  O486  1  0.01252000  0.36122000  0.70054000  1
  O  O487  1  0.07428000  0.29946000  0.63878000  1
  O  O488  1  0.36122000  0.01252000  0.92572000  1
  O  O489  1  0.29946000  0.07428000  0.98748000  1
  O  O490  1  0.36122000  0.01252000  0.70054000  1
  O  O491  1  0.07428000  0.29946000  0.98748000  1
  O  O492  1  0.66519000  0.66519000  0.00443000  1
  O  O493  1  0.33481000  0.99557000  0.33481000  1
  O  O494  1  0.66519000  0.66519000  0.66519000  1
  O  O495  1  0.99557000  0.33481000  0.33481000  1
  O  O496  1  0.01254000  0.29020000  0.92576000  1
  O  O497  1  0.22850000  0.07424000  0.70980000  1
  O  O498  1  0.01254000  0.29020000  0.77150000  1
  O  O499  1  0.07424000  0.22850000  0.70980000  1
  O  O500  1  0.29020000  0.01254000  0.92576000  1
  O  O501  1  0.22850000  0.07424000  0.98746000  1
  O  O502  1  0.29020000  0.01254000  0.77150000  1
  O  O503  1  0.07424000  0.22850000  0.98746000  1
  O  O504  1  0.92572000  0.36122000  0.01252000  1
  O  O505  1  0.29946000  0.98748000  0.63878000  1
  O  O506  1  0.92572000  0.36122000  0.70054000  1
  O  O507  1  0.98748000  0.29946000  0.63878000  1
  O  O508  1  0.36122000  0.92572000  0.01252000  1
  O  O509  1  0.29946000  0.98748000  0.07428000  1
  O  O510  1  0.36122000  0.92572000  0.70054000  1
  O  O511  1  0.98748000  0.29946000  0.07428000  1
  O  O512  1  0.92576000  0.29020000  0.01254000  1
  O  O513  1  0.22850000  0.98746000  0.70980000  1
  O  O514  1  0.92576000  0.29020000  0.77150000  1
  O  O515  1  0.98746000  0.22850000  0.70980000  1
  O  O516  1  0.29020000  0.92576000  0.01254000  1
  O  O517  1  0.22850000  0.98746000  0.07424000  1
  O  O518  1  0.29020000  0.92576000  0.77150000  1
  O  O519  1  0.98746000  0.22850000  0.07424000  1
  O  O520  1  0.70054000  0.36122000  0.01252000  1
  O  O521  1  0.07428000  0.98748000  0.63878000  1
  O  O522  1  0.70054000  0.36122000  0.92572000  1
  O  O523  1  0.98748000  0.07428000  0.63878000  1
  O  O524  1  0.36122000  0.70054000  0.01252000  1
  O  O525  1  0.07428000  0.98748000  0.29946000  1
  O  O526  1  0.36122000  0.70054000  0.92572000  1
  O  O527  1  0.98748000  0.07428000  0.29946000  1
  O  O528  1  0.77150000  0.29020000  0.01254000  1
  O  O529  1  0.07424000  0.98746000  0.70980000  1
  O  O530  1  0.77150000  0.29020000  0.92576000  1
  O  O531  1  0.98746000  0.07424000  0.70980000  1
  O  O532  1  0.29020000  0.77150000  0.01254000  1
  O  O533  1  0.07424000  0.98746000  0.22850000  1
  O  O534  1  0.29020000  0.77150000  0.92576000  1
  O  O535  1  0.98746000  0.07424000  0.22850000  1
