# generated using pymatgen
data_Tb2H6(C6O5)3
_symmetry_space_group_name_H-M   'P 1'
_cell_length_a   8.58510000
_cell_length_b   15.41180000
_cell_length_c   28.04670000
_cell_angle_alpha   90.00000000
_cell_angle_beta   90.00000000
_cell_angle_gamma   90.00000000
_symmetry_Int_Tables_number   1
_chemical_formula_structural   Tb2H6(C6O5)3
_chemical_formula_sum   'Tb8 H24 C72 O60'
_cell_volume   3710.91060016
_cell_formula_units_Z   4
loop_
 _symmetry_equiv_pos_site_id
 _symmetry_equiv_pos_as_xyz
  1  'x, y, z'
loop_
 _atom_site_type_symbol
 _atom_site_label
 _atom_site_symmetry_multiplicity
 _atom_site_fract_x
 _atom_site_fract_y
 _atom_site_fract_z
 _atom_site_occupancy
  Tb  Tb0  1  0.05160000  0.79758000  0.08614000  1
  Tb  Tb1  1  0.05160000  0.79758000  0.41386000  1
  Tb  Tb2  1  0.44840000  0.29758000  0.58614000  1
  Tb  Tb3  1  0.44840000  0.29758000  0.91386000  1
  Tb  Tb4  1  0.55160000  0.70242000  0.08614000  1
  Tb  Tb5  1  0.55160000  0.70242000  0.41386000  1
  Tb  Tb6  1  0.94840000  0.20242000  0.58614000  1
  Tb  Tb7  1  0.94840000  0.20242000  0.91386000  1
  H  H8  1  0.08620000  0.48480000  0.59680000  1
  H  H9  1  0.08620000  0.48480000  0.90320000  1
  H  H10  1  0.11570000  0.62430000  0.55140000  1
  H  H11  1  0.11570000  0.62430000  0.94860000  1
  H  H12  1  0.15660000  0.90660000  0.20490000  1
  H  H13  1  0.15660000  0.90660000  0.29510000  1
  H  H14  1  0.34340000  0.40660000  0.70490000  1
  H  H15  1  0.34340000  0.40660000  0.79510000  1
  H  H16  1  0.38430000  0.12430000  0.05140000  1
  H  H17  1  0.38430000  0.12430000  0.44860000  1
  H  H18  1  0.41380000  0.98480000  0.09680000  1
  H  H19  1  0.41380000  0.98480000  0.40320000  1
  H  H20  1  0.58620000  0.01520000  0.59680000  1
  H  H21  1  0.58620000  0.01520000  0.90320000  1
  H  H22  1  0.61570000  0.87570000  0.55140000  1
  H  H23  1  0.61570000  0.87570000  0.94860000  1
  H  H24  1  0.65660000  0.59340000  0.20490000  1
  H  H25  1  0.65660000  0.59340000  0.29510000  1
  H  H26  1  0.84340000  0.09340000  0.70490000  1
  H  H27  1  0.84340000  0.09340000  0.79510000  1
  H  H28  1  0.88430000  0.37570000  0.05140000  1
  H  H29  1  0.88430000  0.37570000  0.44860000  1
  H  H30  1  0.91380000  0.51520000  0.09680000  1
  H  H31  1  0.91380000  0.51520000  0.40320000  1
  C  C32  1  0.01310000  0.50970000  0.57650000  1
  C  C33  1  0.01310000  0.50970000  0.92350000  1
  C  C34  1  0.02980000  0.58760000  0.55100000  1
  C  C35  1  0.02980000  0.58760000  0.94900000  1
  C  C36  1  0.10240000  0.40110000  0.02580000  1
  C  C37  1  0.10240000  0.40110000  0.47420000  1
  C  C38  1  0.13010000  0.52240000  0.06580000  1
  C  C39  1  0.13010000  0.52240000  0.43420000  1
  C  C40  1  0.14790000  0.27010000  0.66410000  1
  C  C41  1  0.14790000  0.27010000  0.83590000  1
  C  C42  1  0.14790000  0.33520000  0.51020000  1
  C  C43  1  0.14790000  0.33520000  0.98980000  1
  C  C44  1  0.19400000  0.30440000  0.71120000  1
  C  C45  1  0.19400000  0.30440000  0.78880000  1
  C  C46  1  0.20390000  0.60580000  0.07750000  1
  C  C47  1  0.20390000  0.60580000  0.42250000  1
  C  C48  1  0.21140000  0.86910000  0.22480000  1
  C  C49  1  0.21140000  0.86910000  0.27520000  1
  C  C50  1  0.28860000  0.36910000  0.72480000  1
  C  C51  1  0.28860000  0.36910000  0.77520000  1
  C  C52  1  0.29610000  0.10580000  0.57750000  1
  C  C53  1  0.29610000  0.10580000  0.92250000  1
  C  C54  1  0.30600000  0.80440000  0.21120000  1
  C  C55  1  0.30600000  0.80440000  0.28880000  1
  C  C56  1  0.35210000  0.77010000  0.16410000  1
  C  C57  1  0.35210000  0.77010000  0.33590000  1
  C  C58  1  0.35210000  0.83520000  0.01020000  1
  C  C59  1  0.35210000  0.83520000  0.48980000  1
  C  C60  1  0.36990000  0.02240000  0.56580000  1
  C  C61  1  0.36990000  0.02240000  0.93420000  1
  C  C62  1  0.39760000  0.90110000  0.52580000  1
  C  C63  1  0.39760000  0.90110000  0.97420000  1
  C  C64  1  0.47020000  0.08760000  0.05100000  1
  C  C65  1  0.47020000  0.08760000  0.44900000  1
  C  C66  1  0.48690000  0.00970000  0.07650000  1
  C  C67  1  0.48690000  0.00970000  0.42350000  1
  C  C68  1  0.51310000  0.99030000  0.57650000  1
  C  C69  1  0.51310000  0.99030000  0.92350000  1
  C  C70  1  0.52980000  0.91240000  0.55100000  1
  C  C71  1  0.52980000  0.91240000  0.94900000  1
  C  C72  1  0.60240000  0.09890000  0.02580000  1
  C  C73  1  0.60240000  0.09890000  0.47420000  1
  C  C74  1  0.63010000  0.97760000  0.06580000  1
  C  C75  1  0.63010000  0.97760000  0.43420000  1
  C  C76  1  0.64790000  0.16480000  0.51020000  1
  C  C77  1  0.64790000  0.16480000  0.98980000  1
  C  C78  1  0.64790000  0.22990000  0.66410000  1
  C  C79  1  0.64790000  0.22990000  0.83590000  1
  C  C80  1  0.69400000  0.19560000  0.71120000  1
  C  C81  1  0.69400000  0.19560000  0.78880000  1
  C  C82  1  0.70390000  0.89420000  0.07750000  1
  C  C83  1  0.70390000  0.89420000  0.42250000  1
  C  C84  1  0.71140000  0.63090000  0.22480000  1
  C  C85  1  0.71140000  0.63090000  0.27520000  1
  C  C86  1  0.78860000  0.13090000  0.72480000  1
  C  C87  1  0.78860000  0.13090000  0.77520000  1
  C  C88  1  0.79610000  0.39420000  0.57750000  1
  C  C89  1  0.79610000  0.39420000  0.92250000  1
  C  C90  1  0.80600000  0.69560000  0.21120000  1
  C  C91  1  0.80600000  0.69560000  0.28880000  1
  C  C92  1  0.85210000  0.66480000  0.01020000  1
  C  C93  1  0.85210000  0.66480000  0.48980000  1
  C  C94  1  0.85210000  0.72990000  0.16410000  1
  C  C95  1  0.85210000  0.72990000  0.33590000  1
  C  C96  1  0.86990000  0.47760000  0.56580000  1
  C  C97  1  0.86990000  0.47760000  0.93420000  1
  C  C98  1  0.89760000  0.59890000  0.52580000  1
  C  C99  1  0.89760000  0.59890000  0.97420000  1
  C  C100  1  0.97020000  0.41240000  0.05100000  1
  C  C101  1  0.97020000  0.41240000  0.44900000  1
  C  C102  1  0.98690000  0.49030000  0.07650000  1
  C  C103  1  0.98690000  0.49030000  0.42350000  1
  O  O104  1  0.04370000  0.28310000  0.52197000  1
  O  O105  1  0.04370000  0.28310000  0.97803000  1
  O  O106  1  0.04980000  0.20960000  0.66257000  1
  O  O107  1  0.04980000  0.20960000  0.83743000  1
  O  O108  1  0.12440000  0.65560000  0.10301000  1
  O  O109  1  0.12440000  0.65560000  0.39699000  1
  O  O110  1  0.13420000  0.26310000  0.75000000  1
  O  O111  1  0.16320000  0.12060000  0.56106000  1
  O  O112  1  0.16320000  0.12060000  0.93894000  1
  O  O113  1  0.20440000  0.46710000  0.03465000  1
  O  O114  1  0.20440000  0.46710000  0.46535000  1
  O  O115  1  0.20680000  0.30370000  0.62736000  1
  O  O116  1  0.20680000  0.30370000  0.87264000  1
  O  O117  1  0.21540000  0.83860000  0.02580000  1
  O  O118  1  0.21540000  0.83860000  0.47420000  1
  O  O119  1  0.28460000  0.33860000  0.52580000  1
  O  O120  1  0.28460000  0.33860000  0.97420000  1
  O  O121  1  0.29320000  0.80370000  0.12736000  1
  O  O122  1  0.29320000  0.80370000  0.37264000  1
  O  O123  1  0.29560000  0.96710000  0.53465000  1
  O  O124  1  0.29560000  0.96710000  0.96535000  1
  O  O125  1  0.33680000  0.62060000  0.06106000  1
  O  O126  1  0.33680000  0.62060000  0.43894000  1
  O  O127  1  0.36580000  0.76310000  0.25000000  1
  O  O128  1  0.37560000  0.15560000  0.60301000  1
  O  O129  1  0.37560000  0.15560000  0.89699000  1
  O  O130  1  0.45020000  0.70960000  0.16257000  1
  O  O131  1  0.45020000  0.70960000  0.33743000  1
  O  O132  1  0.45630000  0.78310000  0.02197000  1
  O  O133  1  0.45630000  0.78310000  0.47803000  1
  O  O134  1  0.54370000  0.21690000  0.52197000  1
  O  O135  1  0.54370000  0.21690000  0.97803000  1
  O  O136  1  0.54980000  0.29040000  0.66257000  1
  O  O137  1  0.54980000  0.29040000  0.83743000  1
  O  O138  1  0.62440000  0.84440000  0.10301000  1
  O  O139  1  0.62440000  0.84440000  0.39699000  1
  O  O140  1  0.63420000  0.23690000  0.75000000  1
  O  O141  1  0.66320000  0.37940000  0.56106000  1
  O  O142  1  0.66320000  0.37940000  0.93894000  1
  O  O143  1  0.70440000  0.03290000  0.03465000  1
  O  O144  1  0.70440000  0.03290000  0.46535000  1
  O  O145  1  0.70680000  0.19630000  0.62736000  1
  O  O146  1  0.70680000  0.19630000  0.87264000  1
  O  O147  1  0.71540000  0.66140000  0.02580000  1
  O  O148  1  0.71540000  0.66140000  0.47420000  1
  O  O149  1  0.78460000  0.16140000  0.52580000  1
  O  O150  1  0.78460000  0.16140000  0.97420000  1
  O  O151  1  0.79320000  0.69630000  0.12736000  1
  O  O152  1  0.79320000  0.69630000  0.37264000  1
  O  O153  1  0.79560000  0.53290000  0.53465000  1
  O  O154  1  0.79560000  0.53290000  0.96535000  1
  O  O155  1  0.83680000  0.87940000  0.06106000  1
  O  O156  1  0.83680000  0.87940000  0.43894000  1
  O  O157  1  0.86580000  0.73690000  0.25000000  1
  O  O158  1  0.87560000  0.34440000  0.60301000  1
  O  O159  1  0.87560000  0.34440000  0.89699000  1
  O  O160  1  0.95020000  0.79040000  0.16257000  1
  O  O161  1  0.95020000  0.79040000  0.33743000  1
  O  O162  1  0.95630000  0.71690000  0.02197000  1
  O  O163  1  0.95630000  0.71690000  0.47803000  1
