# generated using pymatgen
data_Co2H16C29O10
_symmetry_space_group_name_H-M   'P 1'
_cell_length_a   15.50940000
_cell_length_b   17.82510000
_cell_length_c   24.22100000
_cell_angle_alpha   90.00000000
_cell_angle_beta   90.00000000
_cell_angle_gamma   90.00000000
_symmetry_Int_Tables_number   1
_chemical_formula_structural   Co2H16C29O10
_chemical_formula_sum   'Co8 H64 C116 O40'
_cell_volume   6696.05545247
_cell_formula_units_Z   4
loop_
 _symmetry_equiv_pos_site_id
 _symmetry_equiv_pos_as_xyz
  1  'x, y, z'
loop_
 _atom_site_type_symbol
 _atom_site_label
 _atom_site_symmetry_multiplicity
 _atom_site_fract_x
 _atom_site_fract_y
 _atom_site_fract_z
 _atom_site_occupancy
  Co  Co0  1  0.10668000  0.52507000  0.00000000  1
  Co  Co1  1  0.19555000  0.70863000  0.00000000  1
  Co  Co2  1  0.30445000  0.20863000  0.50000000  1
  Co  Co3  1  0.39332000  0.02507000  0.50000000  1
  Co  Co4  1  0.60668000  0.97493000  0.50000000  1
  Co  Co5  1  0.69555000  0.79137000  0.50000000  1
  Co  Co6  1  0.80445000  0.29137000  0.00000000  1
  Co  Co7  1  0.89332000  0.47493000  0.00000000  1
  H  H8  1  0.01740000  0.11650000  0.32070000  1
  H  H9  1  0.01740000  0.11650000  0.67930000  1
  H  H10  1  0.05180000  0.21800000  0.15960000  1
  H  H11  1  0.05180000  0.21800000  0.84040000  1
  H  H12  1  0.08340000  0.12730000  0.22410000  1
  H  H13  1  0.08340000  0.12730000  0.77590000  1
  H  H14  1  0.11800000  0.14810000  0.38470000  1
  H  H15  1  0.11800000  0.14810000  0.61530000  1
  H  H16  1  0.13430000  0.97840000  0.18620000  1
  H  H17  1  0.13430000  0.97840000  0.81380000  1
  H  H18  1  0.15350000  0.93290000  0.28360000  1
  H  H19  1  0.15350000  0.93290000  0.71640000  1
  H  H20  1  0.16460000  0.89030000  0.12140000  1
  H  H21  1  0.16460000  0.89030000  0.87860000  1
  H  H22  1  0.24820000  0.96120000  0.35470000  1
  H  H23  1  0.24820000  0.96120000  0.64530000  1
  H  H24  1  0.25180000  0.46120000  0.14530000  1
  H  H25  1  0.25180000  0.46120000  0.85470000  1
  H  H26  1  0.33540000  0.39030000  0.37860000  1
  H  H27  1  0.33540000  0.39030000  0.62140000  1
  H  H28  1  0.34650000  0.43290000  0.21640000  1
  H  H29  1  0.34650000  0.43290000  0.78360000  1
  H  H30  1  0.36570000  0.47840000  0.31380000  1
  H  H31  1  0.36570000  0.47840000  0.68620000  1
  H  H32  1  0.38200000  0.64810000  0.11530000  1
  H  H33  1  0.38200000  0.64810000  0.88470000  1
  H  H34  1  0.41660000  0.62730000  0.27590000  1
  H  H35  1  0.41660000  0.62730000  0.72410000  1
  H  H36  1  0.44820000  0.71800000  0.34040000  1
  H  H37  1  0.44820000  0.71800000  0.65960000  1
  H  H38  1  0.48260000  0.61650000  0.17930000  1
  H  H39  1  0.48260000  0.61650000  0.82070000  1
  H  H40  1  0.51740000  0.38350000  0.17930000  1
  H  H41  1  0.51740000  0.38350000  0.82070000  1
  H  H42  1  0.55180000  0.28200000  0.34040000  1
  H  H43  1  0.55180000  0.28200000  0.65960000  1
  H  H44  1  0.58340000  0.37270000  0.27590000  1
  H  H45  1  0.58340000  0.37270000  0.72410000  1
  H  H46  1  0.61800000  0.35190000  0.11530000  1
  H  H47  1  0.61800000  0.35190000  0.88470000  1
  H  H48  1  0.63430000  0.52160000  0.31380000  1
  H  H49  1  0.63430000  0.52160000  0.68620000  1
  H  H50  1  0.65350000  0.56710000  0.21640000  1
  H  H51  1  0.65350000  0.56710000  0.78360000  1
  H  H52  1  0.66460000  0.60970000  0.37860000  1
  H  H53  1  0.66460000  0.60970000  0.62140000  1
  H  H54  1  0.74820000  0.53880000  0.14530000  1
  H  H55  1  0.74820000  0.53880000  0.85470000  1
  H  H56  1  0.75180000  0.03880000  0.35470000  1
  H  H57  1  0.75180000  0.03880000  0.64530000  1
  H  H58  1  0.83540000  0.10970000  0.12140000  1
  H  H59  1  0.83540000  0.10970000  0.87860000  1
  H  H60  1  0.84650000  0.06710000  0.28360000  1
  H  H61  1  0.84650000  0.06710000  0.71640000  1
  H  H62  1  0.86570000  0.02160000  0.18620000  1
  H  H63  1  0.86570000  0.02160000  0.81380000  1
  H  H64  1  0.88200000  0.85190000  0.38470000  1
  H  H65  1  0.88200000  0.85190000  0.61530000  1
  H  H66  1  0.91660000  0.87270000  0.22410000  1
  H  H67  1  0.91660000  0.87270000  0.77590000  1
  H  H68  1  0.94820000  0.78200000  0.15960000  1
  H  H69  1  0.94820000  0.78200000  0.84040000  1
  H  H70  1  0.98260000  0.88350000  0.32070000  1
  H  H71  1  0.98260000  0.88350000  0.67930000  1
  C  C72  1  0.00000000  0.00000000  0.25368000  1
  C  C73  1  0.00000000  0.00000000  0.74632000  1
  C  C74  1  0.01420000  0.17790000  0.16454000  1
  C  C75  1  0.01420000  0.17790000  0.83546000  1
  C  C76  1  0.02220000  0.93501000  0.21384000  1
  C  C77  1  0.02220000  0.93501000  0.78616000  1
  C  C78  1  0.03260000  0.12370000  0.20393000  1
  C  C79  1  0.03260000  0.12370000  0.79607000  1
  C  C80  1  0.05970000  0.82707000  0.13232000  1
  C  C81  1  0.05970000  0.82707000  0.86768000  1
  C  C82  1  0.06510000  0.08551000  0.32574000  1
  C  C83  1  0.06510000  0.08551000  0.67426000  1
  C  C84  1  0.07350000  0.02182000  0.29350000  1
  C  C85  1  0.07350000  0.02182000  0.70650000  1
  C  C86  1  0.07830000  0.76820000  0.08937000  1
  C  C87  1  0.07830000  0.76820000  0.91063000  1
  C  C88  1  0.09620000  0.93870000  0.18114000  1
  C  C89  1  0.09620000  0.93870000  0.81886000  1
  C  C90  1  0.11420000  0.88610000  0.14200000  1
  C  C91  1  0.11420000  0.88610000  0.85800000  1
  C  C92  1  0.12490000  0.10400000  0.36467000  1
  C  C93  1  0.12490000  0.10400000  0.63533000  1
  C  C94  1  0.14490000  0.97600000  0.30452000  1
  C  C95  1  0.14490000  0.97600000  0.69548000  1
  C  C96  1  0.19370000  0.06020000  0.37503000  1
  C  C97  1  0.19370000  0.06020000  0.62497000  1
  C  C98  1  0.20320000  0.99380000  0.34627000  1
  C  C99  1  0.20320000  0.99380000  0.65373000  1
  C  C100  1  0.24360000  0.58180000  0.08002000  1
  C  C101  1  0.24360000  0.58180000  0.91998000  1
  C  C102  1  0.25640000  0.08180000  0.41998000  1
  C  C103  1  0.25640000  0.08180000  0.58002000  1
  C  C104  1  0.29680000  0.49380000  0.15373000  1
  C  C105  1  0.29680000  0.49380000  0.84627000  1
  C  C106  1  0.30630000  0.56020000  0.12497000  1
  C  C107  1  0.30630000  0.56020000  0.87503000  1
  C  C108  1  0.35510000  0.47600000  0.19548000  1
  C  C109  1  0.35510000  0.47600000  0.80452000  1
  C  C110  1  0.37510000  0.60400000  0.13533000  1
  C  C111  1  0.37510000  0.60400000  0.86467000  1
  C  C112  1  0.38580000  0.38610000  0.35800000  1
  C  C113  1  0.38580000  0.38610000  0.64200000  1
  C  C114  1  0.40380000  0.43870000  0.31886000  1
  C  C115  1  0.40380000  0.43870000  0.68114000  1
  C  C116  1  0.42170000  0.26820000  0.41063000  1
  C  C117  1  0.42170000  0.26820000  0.58937000  1
  C  C118  1  0.42650000  0.52182000  0.20650000  1
  C  C119  1  0.42650000  0.52182000  0.79350000  1
  C  C120  1  0.43490000  0.58551000  0.17426000  1
  C  C121  1  0.43490000  0.58551000  0.82574000  1
  C  C122  1  0.44030000  0.32707000  0.36768000  1
  C  C123  1  0.44030000  0.32707000  0.63232000  1
  C  C124  1  0.46740000  0.62370000  0.29607000  1
  C  C125  1  0.46740000  0.62370000  0.70393000  1
  C  C126  1  0.47780000  0.43501000  0.28616000  1
  C  C127  1  0.47780000  0.43501000  0.71384000  1
  C  C128  1  0.48580000  0.67790000  0.33546000  1
  C  C129  1  0.48580000  0.67790000  0.66454000  1
  C  C130  1  0.50000000  0.50000000  0.24632000  1
  C  C131  1  0.50000000  0.50000000  0.75368000  1
  C  C132  1  0.51420000  0.32210000  0.33546000  1
  C  C133  1  0.51420000  0.32210000  0.66454000  1
  C  C134  1  0.52220000  0.56499000  0.28616000  1
  C  C135  1  0.52220000  0.56499000  0.71384000  1
  C  C136  1  0.53260000  0.37630000  0.29607000  1
  C  C137  1  0.53260000  0.37630000  0.70393000  1
  C  C138  1  0.55970000  0.67293000  0.36768000  1
  C  C139  1  0.55970000  0.67293000  0.63232000  1
  C  C140  1  0.56510000  0.41449000  0.17426000  1
  C  C141  1  0.56510000  0.41449000  0.82574000  1
  C  C142  1  0.57350000  0.47818000  0.20650000  1
  C  C143  1  0.57350000  0.47818000  0.79350000  1
  C  C144  1  0.57830000  0.73180000  0.41063000  1
  C  C145  1  0.57830000  0.73180000  0.58937000  1
  C  C146  1  0.59620000  0.56130000  0.31886000  1
  C  C147  1  0.59620000  0.56130000  0.68114000  1
  C  C148  1  0.61420000  0.61390000  0.35800000  1
  C  C149  1  0.61420000  0.61390000  0.64200000  1
  C  C150  1  0.62490000  0.39600000  0.13533000  1
  C  C151  1  0.62490000  0.39600000  0.86467000  1
  C  C152  1  0.64490000  0.52400000  0.19548000  1
  C  C153  1  0.64490000  0.52400000  0.80452000  1
  C  C154  1  0.69370000  0.43980000  0.12497000  1
  C  C155  1  0.69370000  0.43980000  0.87503000  1
  C  C156  1  0.70320000  0.50620000  0.15373000  1
  C  C157  1  0.70320000  0.50620000  0.84627000  1
  C  C158  1  0.74360000  0.91820000  0.41998000  1
  C  C159  1  0.74360000  0.91820000  0.58002000  1
  C  C160  1  0.75640000  0.41820000  0.08002000  1
  C  C161  1  0.75640000  0.41820000  0.91998000  1
  C  C162  1  0.79680000  0.00620000  0.34627000  1
  C  C163  1  0.79680000  0.00620000  0.65373000  1
  C  C164  1  0.80630000  0.93980000  0.37503000  1
  C  C165  1  0.80630000  0.93980000  0.62497000  1
  C  C166  1  0.85510000  0.02400000  0.30452000  1
  C  C167  1  0.85510000  0.02400000  0.69548000  1
  C  C168  1  0.87510000  0.89600000  0.36467000  1
  C  C169  1  0.87510000  0.89600000  0.63533000  1
  C  C170  1  0.88580000  0.11390000  0.14200000  1
  C  C171  1  0.88580000  0.11390000  0.85800000  1
  C  C172  1  0.90380000  0.06130000  0.18114000  1
  C  C173  1  0.90380000  0.06130000  0.81886000  1
  C  C174  1  0.92170000  0.23180000  0.08937000  1
  C  C175  1  0.92170000  0.23180000  0.91063000  1
  C  C176  1  0.92650000  0.97818000  0.29350000  1
  C  C177  1  0.92650000  0.97818000  0.70650000  1
  C  C178  1  0.93490000  0.91449000  0.32574000  1
  C  C179  1  0.93490000  0.91449000  0.67426000  1
  C  C180  1  0.94030000  0.17293000  0.13232000  1
  C  C181  1  0.94030000  0.17293000  0.86768000  1
  C  C182  1  0.96740000  0.87630000  0.20393000  1
  C  C183  1  0.96740000  0.87630000  0.79607000  1
  C  C184  1  0.97780000  0.06499000  0.21384000  1
  C  C185  1  0.97780000  0.06499000  0.78616000  1
  C  C186  1  0.98580000  0.82210000  0.16454000  1
  C  C187  1  0.98580000  0.82210000  0.83546000  1
  O  O188  1  0.00000000  0.50000000  0.05802000  1
  O  O189  1  0.00000000  0.50000000  0.94198000  1
  O  O190  1  0.02770000  0.71431000  0.08497000  1
  O  O191  1  0.02770000  0.71431000  0.91503000  1
  O  O192  1  0.07720000  0.63869000  0.00000000  1
  O  O193  1  0.14429000  0.77842000  0.06042000  1
  O  O194  1  0.14429000  0.77842000  0.93958000  1
  O  O195  1  0.18850000  0.53362000  0.06595000  1
  O  O196  1  0.18850000  0.53362000  0.93405000  1
  O  O197  1  0.24825000  0.14609000  0.43900000  1
  O  O198  1  0.24825000  0.14609000  0.56100000  1
  O  O199  1  0.25175000  0.64609000  0.06100000  1
  O  O200  1  0.25175000  0.64609000  0.93900000  1
  O  O201  1  0.31150000  0.03362000  0.43405000  1
  O  O202  1  0.31150000  0.03362000  0.56595000  1
  O  O203  1  0.35571000  0.27842000  0.43958000  1
  O  O204  1  0.35571000  0.27842000  0.56042000  1
  O  O205  1  0.42280000  0.13869000  0.50000000  1
  O  O206  1  0.47230000  0.21431000  0.41503000  1
  O  O207  1  0.47230000  0.21431000  0.58497000  1
  O  O208  1  0.50000000  0.00000000  0.44198000  1
  O  O209  1  0.50000000  0.00000000  0.55802000  1
  O  O210  1  0.52770000  0.78569000  0.41503000  1
  O  O211  1  0.52770000  0.78569000  0.58497000  1
  O  O212  1  0.57720000  0.86131000  0.50000000  1
  O  O213  1  0.64429000  0.72158000  0.43958000  1
  O  O214  1  0.64429000  0.72158000  0.56042000  1
  O  O215  1  0.68850000  0.96638000  0.43405000  1
  O  O216  1  0.68850000  0.96638000  0.56595000  1
  O  O217  1  0.74825000  0.35391000  0.06100000  1
  O  O218  1  0.74825000  0.35391000  0.93900000  1
  O  O219  1  0.75175000  0.85391000  0.43900000  1
  O  O220  1  0.75175000  0.85391000  0.56100000  1
  O  O221  1  0.81150000  0.46638000  0.06595000  1
  O  O222  1  0.81150000  0.46638000  0.93405000  1
  O  O223  1  0.85571000  0.22158000  0.06042000  1
  O  O224  1  0.85571000  0.22158000  0.93958000  1
  O  O225  1  0.92280000  0.36131000  0.00000000  1
  O  O226  1  0.97230000  0.28569000  0.08497000  1
  O  O227  1  0.97230000  0.28569000  0.91503000  1
