# generated using pymatgen
data_EuH12C9(SO2)3
_symmetry_space_group_name_H-M   'P 1'
_cell_length_a   9.16860000
_cell_length_b   11.11450000
_cell_length_c   11.18990000
_cell_angle_alpha   77.15600000
_cell_angle_beta   68.19500000
_cell_angle_gamma   78.35000000
_symmetry_Int_Tables_number   1
_chemical_formula_structural   EuH12C9(SO2)3
_chemical_formula_sum   'Eu2 H24 C18 S6 O12'
_cell_volume   1023.21260256
_cell_formula_units_Z   2
loop_
 _symmetry_equiv_pos_site_id
 _symmetry_equiv_pos_as_xyz
  1  'x, y, z'
loop_
 _atom_site_type_symbol
 _atom_site_label
 _atom_site_symmetry_multiplicity
 _atom_site_fract_x
 _atom_site_fract_y
 _atom_site_fract_z
 _atom_site_occupancy
  Eu  Eu0  1  0.27359000  0.48365000  0.47988000  1
  Eu  Eu1  1  0.72641000  0.51635000  0.52012000  1
  H  H2  1  0.03000000  0.18850000  0.28130000  1
  H  H3  1  0.05200000  0.55540000  0.13300000  1
  H  H4  1  0.07720000  0.84210000  0.23760000  1
  H  H5  1  0.07740000  0.59070000  0.98410000  1
  H  H6  1  0.10490000  0.77440000  0.77880000  1
  H  H7  1  0.12320000  0.91680000  0.43350000  1
  H  H8  1  0.13500000  0.05720000  0.42580000  1
  H  H9  1  0.20810000  0.46380000  0.84140000  1
  H  H10  1  0.21440000  0.73180000  0.20650000  1
  H  H11  1  0.26490000  0.32180000  0.83890000  1
  H  H12  1  0.32430000  0.54680000  0.08790000  1
  H  H13  1  0.35080000  0.58460000  0.93830000  1
  H  H14  1  0.64920000  0.41540000  0.06170000  1
  H  H15  1  0.67570000  0.45320000  0.91210000  1
  H  H16  1  0.73510000  0.67820000  0.16110000  1
  H  H17  1  0.78560000  0.26820000  0.79350000  1
  H  H18  1  0.79190000  0.53620000  0.15860000  1
  H  H19  1  0.86500000  0.94280000  0.57420000  1
  H  H20  1  0.87680000  0.08320000  0.56650000  1
  H  H21  1  0.89510000  0.22560000  0.22120000  1
  H  H22  1  0.92260000  0.40930000  0.01590000  1
  H  H23  1  0.92280000  0.15790000  0.76240000  1
  H  H24  1  0.94800000  0.44460000  0.86700000  1
  H  H25  1  0.97000000  0.81150000  0.71870000  1
  C  C26  1  0.00550000  0.67360000  0.33190000  1
  C  C27  1  0.08410000  0.79990000  0.69730000  1
  C  C28  1  0.08650000  0.98560000  0.48230000  1
  C  C29  1  0.10340000  0.75830000  0.21720000  1
  C  C30  1  0.11480000  0.60060000  0.05140000  1
  C  C31  1  0.15450000  0.69240000  0.61800000  1
  C  C32  1  0.28610000  0.54040000  0.01980000  1
  C  C33  1  0.29390000  0.39800000  0.84710000  1
  C  C34  1  0.43890000  0.42790000  0.73270000  1
  C  C35  1  0.56110000  0.57210000  0.26730000  1
  C  C36  1  0.70610000  0.60200000  0.15290000  1
  C  C37  1  0.71390000  0.45960000  0.98020000  1
  C  C38  1  0.84550000  0.30760000  0.38200000  1
  C  C39  1  0.88520000  0.39940000  0.94860000  1
  C  C40  1  0.89660000  0.24170000  0.78280000  1
  C  C41  1  0.91350000  0.01440000  0.51770000  1
  C  C42  1  0.91590000  0.20010000  0.30270000  1
  C  C43  1  0.99450000  0.32640000  0.66810000  1
  S  S44  1  0.07780000  0.76299000  0.06503000  1
  S  S45  1  0.15150000  0.94450000  0.62460000  1
  S  S46  1  0.30590000  0.37920000  0.00618000  1
  S  S47  1  0.69410000  0.62080000  0.99382000  1
  S  S48  1  0.84850000  0.05550000  0.37540000  1
  S  S49  1  0.92220000  0.23701000  0.93497000  1
  O  O50  1  0.07210000  0.60500000  0.40570000  1
  O  O51  1  0.08690000  0.59450000  0.66330000  1
  O  O52  1  0.13810000  0.32560000  0.65110000  1
  O  O53  1  0.27080000  0.70140000  0.51480000  1
  O  O54  1  0.42590000  0.45320000  0.62150000  1
  O  O55  1  0.43210000  0.56850000  0.25510000  1
  O  O56  1  0.56790000  0.43150000  0.74490000  1
  O  O57  1  0.57410000  0.54680000  0.37850000  1
  O  O58  1  0.72920000  0.29860000  0.48520000  1
  O  O59  1  0.86190000  0.67440000  0.34890000  1
  O  O60  1  0.91310000  0.40550000  0.33670000  1
  O  O61  1  0.92790000  0.39500000  0.59430000  1
