# generated using pymatgen
data_Co5H76C95(N9O10)2
_symmetry_space_group_name_H-M   'P 1'
_cell_length_a   16.20990000
_cell_length_b   17.20610000
_cell_length_c   34.91230000
_cell_angle_alpha   94.60400000
_cell_angle_beta   90.00000000
_cell_angle_gamma   90.00000000
_symmetry_Int_Tables_number   1
_chemical_formula_structural   Co5H76C95(N9O10)2
_chemical_formula_sum   'Co20 H304 C380 N72 O80'
_cell_volume   9705.94051675
_cell_formula_units_Z   4
loop_
 _symmetry_equiv_pos_site_id
 _symmetry_equiv_pos_as_xyz
  1  'x, y, z'
loop_
 _atom_site_type_symbol
 _atom_site_label
 _atom_site_symmetry_multiplicity
 _atom_site_fract_x
 _atom_site_fract_y
 _atom_site_fract_z
 _atom_site_occupancy
  Co  Co0  1  0.02725000  0.54800000  0.83625000  1
  Co  Co1  1  0.06911000  0.91488000  0.64667000  1
  Co  Co2  1  0.21872000  0.11369000  0.01183000  1
  Co  Co3  1  0.23616000  0.39017000  0.51108000  1
  Co  Co4  1  0.24426000  0.27967000  0.79493000  1
  Co  Co5  1  0.25574000  0.77967000  0.29493000  1
  Co  Co6  1  0.26384000  0.89017000  0.01108000  1
  Co  Co7  1  0.28128000  0.61369000  0.51183000  1
  Co  Co8  1  0.43089000  0.41488000  0.14667000  1
  Co  Co9  1  0.47275000  0.04800000  0.33625000  1
  Co  Co10  1  0.52725000  0.95200000  0.66375000  1
  Co  Co11  1  0.56911000  0.58512000  0.85333000  1
  Co  Co12  1  0.71872000  0.38631000  0.48817000  1
  Co  Co13  1  0.73616000  0.10983000  0.98892000  1
  Co  Co14  1  0.74426000  0.22033000  0.70507000  1
  Co  Co15  1  0.75574000  0.72033000  0.20507000  1
  Co  Co16  1  0.76384000  0.60983000  0.48892000  1
  Co  Co17  1  0.78128000  0.88631000  0.98817000  1
  Co  Co18  1  0.93089000  0.08512000  0.35333000  1
  Co  Co19  1  0.97275000  0.45200000  0.16375000  1
  H  H20  1  0.00310000  0.92680000  0.49560000  1
  H  H21  1  0.00330000  0.09930000  0.91760000  1
  H  H22  1  0.00520000  0.99560000  0.95910000  1
  H  H23  1  0.00680000  0.76690000  0.95010000  1
  H  H24  1  0.01070000  0.67860000  0.53420000  1
  H  H25  1  0.01140000  0.40380000  0.24800000  1
  H  H26  1  0.01510000  0.41070000  0.02510000  1
  H  H27  1  0.01860000  0.18200000  0.47200000  1
  H  H28  1  0.02050000  0.73210000  0.82280000  1
  H  H29  1  0.02290000  0.87640000  0.73480000  1
  H  H30  1  0.02410000  0.14100000  0.85770000  1
  H  H31  1  0.02730000  0.79740000  0.02710000  1
  H  H32  1  0.03280000  0.73410000  0.66650000  1
  H  H33  1  0.03770000  0.62620000  0.49750000  1
  H  H34  1  0.04030000  0.91430000  0.94350000  1
  H  H35  1  0.04230000  0.53410000  0.02570000  1
  H  H36  1  0.04560000  0.36020000  0.30330000  1
  H  H37  1  0.04590000  0.16950000  0.21550000  1
  H  H38  1  0.05200000  0.57620000  0.57410000  1
  H  H39  1  0.05320000  0.30350000  0.05790000  1
  H  H40  1  0.05760000  0.09000000  0.78600000  1
  H  H41  1  0.05960000  0.95070000  0.31860000  1
  H  H42  1  0.06560000  0.41110000  0.61120000  1
  H  H43  1  0.06640000  0.99150000  0.44690000  1
  H  H44  1  0.06940000  0.48900000  0.56030000  1
  H  H45  1  0.07680000  0.68610000  0.44090000  1
  H  H46  1  0.07920000  0.15000000  0.40930000  1
  H  H47  1  0.08560000  0.38670000  0.67400000  1
  H  H48  1  0.09010000  0.73900000  0.07640000  1
  H  H49  1  0.09570000  0.59130000  0.20490000  1
  H  H50  1  0.09940000  0.45870000  0.74300000  1
  H  H51  1  0.10180000  0.79710000  0.40920000  1
  H  H52  1  0.11370000  0.94840000  0.18870000  1
  H  H53  1  0.11620000  0.31010000  0.92920000  1
  H  H54  1  0.11950000  0.93720000  0.25410000  1
  H  H55  1  0.12000000  0.94430000  0.41590000  1
  H  H56  1  0.12530000  0.41420000  0.41080000  1
  H  H57  1  0.12670000  0.24040000  0.86620000  1
  H  H58  1  0.13720000  0.10530000  0.11040000  1
  H  H59  1  0.13910000  0.04090000  0.78180000  1
  H  H60  1  0.13980000  0.57360000  0.33310000  1
  H  H61  1  0.14070000  0.54020000  0.07660000  1
  H  H62  1  0.14080000  0.59770000  0.27180000  1
  H  H63  1  0.14260000  0.38170000  0.12040000  1
  H  H64  1  0.14470000  0.27670000  0.41140000  1
  H  H65  1  0.14970000  0.91880000  0.88980000  1
  H  H66  1  0.15410000  0.00520000  0.06720000  1
  H  H67  1  0.15420000  0.00220000  0.57500000  1
  H  H68  1  0.15600000  0.51040000  0.45500000  1
  H  H69  1  0.15940000  0.62150000  0.09850000  1
  H  H70  1  0.16650000  0.78120000  0.59090000  1
  H  H71  1  0.16790000  0.66110000  0.92090000  1
  H  H72  1  0.17070000  0.61860000  0.63210000  1
  H  H73  1  0.17220000  0.96410000  0.83150000  1
  H  H74  1  0.17530000  0.79830000  0.93880000  1
  H  H75  1  0.17550000  0.51430000  0.74650000  1
  H  H76  1  0.18790000  0.38330000  0.20320000  1
  H  H77  1  0.19000000  0.24700000  0.11960000  1
  H  H78  1  0.19000000  0.59320000  0.69530000  1
  H  H79  1  0.19390000  0.24280000  0.21450000  1
  H  H80  1  0.19860000  0.53810000  0.91850000  1
  H  H81  1  0.20010000  0.87070000  0.15070000  1
  H  H82  1  0.20040000  0.15130000  0.25790000  1
  H  H83  1  0.20730000  0.80560000  0.83310000  1
  H  H84  1  0.21330000  0.11680000  0.32270000  1
  H  H85  1  0.21360000  0.89650000  0.79010000  1
  H  H86  1  0.21500000  0.19440000  0.93350000  1
  H  H87  1  0.21890000  0.19570000  0.52090000  1
  H  H88  1  0.22230000  0.91730000  0.36720000  1
  H  H89  1  0.22390000  0.06420000  0.52850000  1
  H  H90  1  0.22750000  0.64000000  0.37240000  1
  H  H91  1  0.23190000  0.44240000  0.23280000  1
  H  H92  1  0.23860000  0.79860000  0.53130000  1
  H  H93  1  0.23960000  0.18070000  0.35480000  1
  H  H94  1  0.24520000  0.35000000  0.97620000  1
  H  H95  1  0.24660000  0.80520000  0.09000000  1
  H  H96  1  0.25340000  0.30520000  0.59000000  1
  H  H97  1  0.25480000  0.85000000  0.47620000  1
  H  H98  1  0.26040000  0.68070000  0.85480000  1
  H  H99  1  0.26140000  0.29860000  0.03130000  1
  H  H100  1  0.26810000  0.94240000  0.73280000  1
  H  H101  1  0.27250000  0.14000000  0.87240000  1
  H  H102  1  0.27610000  0.56420000  0.02850000  1
  H  H103  1  0.27770000  0.41730000  0.86720000  1
  H  H104  1  0.28110000  0.69570000  0.02090000  1
  H  H105  1  0.28500000  0.69440000  0.43350000  1
  H  H106  1  0.28640000  0.39650000  0.29010000  1
  H  H107  1  0.28670000  0.61680000  0.82270000  1
  H  H108  1  0.29270000  0.30560000  0.33310000  1
  H  H109  1  0.29960000  0.65130000  0.75790000  1
  H  H110  1  0.29990000  0.37070000  0.65070000  1
  H  H111  1  0.30140000  0.03810000  0.41850000  1
  H  H112  1  0.30610000  0.74280000  0.71450000  1
  H  H113  1  0.31000000  0.09320000  0.19530000  1
  H  H114  1  0.31000000  0.74700000  0.61960000  1
  H  H115  1  0.31210000  0.88330000  0.70320000  1
  H  H116  1  0.32450000  0.01430000  0.24650000  1
  H  H117  1  0.32470000  0.29830000  0.43880000  1
  H  H118  1  0.32780000  0.46410000  0.33150000  1
  H  H119  1  0.32930000  0.11860000  0.13210000  1
  H  H120  1  0.33210000  0.16110000  0.42090000  1
  H  H121  1  0.33350000  0.28120000  0.09090000  1
  H  H122  1  0.34060000  0.12150000  0.59850000  1
  H  H123  1  0.34400000  0.01040000  0.95500000  1
  H  H124  1  0.34580000  0.50220000  0.07500000  1
  H  H125  1  0.34590000  0.50520000  0.56720000  1
  H  H126  1  0.35030000  0.41880000  0.38980000  1
  H  H127  1  0.35530000  0.77670000  0.91140000  1
  H  H128  1  0.35740000  0.88170000  0.62040000  1
  H  H129  1  0.35920000  0.09770000  0.77180000  1
  H  H130  1  0.35930000  0.04020000  0.57660000  1
  H  H131  1  0.36020000  0.07360000  0.83310000  1
  H  H132  1  0.36090000  0.54090000  0.28180000  1
  H  H133  1  0.36280000  0.60530000  0.61040000  1
  H  H134  1  0.37330000  0.74040000  0.36620000  1
  H  H135  1  0.37470000  0.91420000  0.91080000  1
  H  H136  1  0.38000000  0.44430000  0.91590000  1
  H  H137  1  0.38050000  0.43720000  0.75410000  1
  H  H138  1  0.38380000  0.81010000  0.42920000  1
  H  H139  1  0.38630000  0.44840000  0.68870000  1
  H  H140  1  0.39820000  0.29710000  0.90920000  1
  H  H141  1  0.40060000  0.95870000  0.24300000  1
  H  H142  1  0.40430000  0.09130000  0.70490000  1
  H  H143  1  0.40990000  0.23900000  0.57640000  1
  H  H144  1  0.41440000  0.88670000  0.17400000  1
  H  H145  1  0.42080000  0.65000000  0.90930000  1
  H  H146  1  0.42320000  0.18610000  0.94090000  1
  H  H147  1  0.43060000  0.98900000  0.06030000  1
  H  H148  1  0.43360000  0.49150000  0.94690000  1
  H  H149  1  0.43440000  0.91110000  0.11120000  1
  H  H150  1  0.44040000  0.45070000  0.81860000  1
  H  H151  1  0.44240000  0.59000000  0.28600000  1
  H  H152  1  0.44680000  0.80350000  0.55790000  1
  H  H153  1  0.44800000  0.07620000  0.07410000  1
  H  H154  1  0.45410000  0.66950000  0.71550000  1
  H  H155  1  0.45440000  0.86020000  0.80330000  1
  H  H156  1  0.45770000  0.03410000  0.52570000  1
  H  H157  1  0.45970000  0.41430000  0.44350000  1
  H  H158  1  0.46230000  0.12620000  0.99750000  1
  H  H159  1  0.46720000  0.23410000  0.16650000  1
  H  H160  1  0.47270000  0.29740000  0.52710000  1
  H  H161  1  0.47590000  0.64100000  0.35770000  1
  H  H162  1  0.47710000  0.37640000  0.23480000  1
  H  H163  1  0.47950000  0.23210000  0.32280000  1
  H  H164  1  0.48140000  0.68200000  0.97200000  1
  H  H165  1  0.48490000  0.91070000  0.52510000  1
  H  H166  1  0.48860000  0.90380000  0.74800000  1
  H  H167  1  0.48930000  0.17860000  0.03420000  1
  H  H168  1  0.49320000  0.26690000  0.45010000  1
  H  H169  1  0.49480000  0.49560000  0.45910000  1
  H  H170  1  0.49670000  0.59930000  0.41760000  1
  H  H171  1  0.49690000  0.42680000  0.99560000  1
  H  H172  1  0.50310000  0.57320000  0.00440000  1
  H  H173  1  0.50330000  0.40070000  0.58240000  1
  H  H174  1  0.50520000  0.50440000  0.54090000  1
  H  H175  1  0.50680000  0.73310000  0.54990000  1
  H  H176  1  0.51070000  0.82140000  0.96580000  1
  H  H177  1  0.51140000  0.09620000  0.25200000  1
  H  H178  1  0.51510000  0.08930000  0.47490000  1
  H  H179  1  0.51860000  0.31800000  0.02800000  1
  H  H180  1  0.52050000  0.76790000  0.67720000  1
  H  H181  1  0.52290000  0.62360000  0.76520000  1
  H  H182  1  0.52410000  0.35900000  0.64230000  1
  H  H183  1  0.52730000  0.70260000  0.47290000  1
  H  H184  1  0.53280000  0.76590000  0.83350000  1
  H  H185  1  0.53770000  0.87380000  0.00250000  1
  H  H186  1  0.54030000  0.58570000  0.55650000  1
  H  H187  1  0.54230000  0.96590000  0.47430000  1
  H  H188  1  0.54560000  0.13980000  0.19670000  1
  H  H189  1  0.54590000  0.33050000  0.28450000  1
  H  H190  1  0.55200000  0.92380000  0.92590000  1
  H  H191  1  0.55320000  0.19650000  0.44210000  1
  H  H192  1  0.55760000  0.41000000  0.71400000  1
  H  H193  1  0.55960000  0.54930000  0.18140000  1
  H  H194  1  0.56560000  0.08890000  0.88880000  1
  H  H195  1  0.56640000  0.50850000  0.05310000  1
  H  H196  1  0.56940000  0.01100000  0.93970000  1
  H  H197  1  0.57680000  0.81390000  0.05910000  1
  H  H198  1  0.57920000  0.35000000  0.09070000  1
  H  H199  1  0.58560000  0.11330000  0.82600000  1
  H  H200  1  0.59010000  0.76100000  0.42360000  1
  H  H201  1  0.59570000  0.90870000  0.29510000  1
  H  H202  1  0.59940000  0.04130000  0.75700000  1
  H  H203  1  0.60180000  0.70290000  0.09080000  1
  H  H204  1  0.61370000  0.55160000  0.31130000  1
  H  H205  1  0.61620000  0.18990000  0.57080000  1
  H  H206  1  0.61950000  0.56280000  0.24590000  1
  H  H207  1  0.62000000  0.55570000  0.08410000  1
  H  H208  1  0.62530000  0.08580000  0.08920000  1
  H  H209  1  0.62670000  0.25960000  0.63380000  1
  H  H210  1  0.63720000  0.39470000  0.38960000  1
  H  H211  1  0.63910000  0.45910000  0.71820000  1
  H  H212  1  0.63980000  0.92640000  0.16690000  1
  H  H213  1  0.64070000  0.95980000  0.42340000  1
  H  H214  1  0.64080000  0.90230000  0.22820000  1
  H  H215  1  0.64260000  0.11830000  0.37960000  1
  H  H216  1  0.64470000  0.22330000  0.08860000  1
  H  H217  1  0.64970000  0.58120000  0.61020000  1
  H  H218  1  0.65410000  0.49480000  0.43280000  1
  H  H219  1  0.65420000  0.49780000  0.92500000  1
  H  H220  1  0.65600000  0.98960000  0.04500000  1
  H  H221  1  0.65940000  0.87850000  0.40150000  1
  H  H222  1  0.66650000  0.71880000  0.90910000  1
  H  H223  1  0.66790000  0.83890000  0.57910000  1
  H  H224  1  0.67070000  0.88140000  0.86790000  1
  H  H225  1  0.67220000  0.53590000  0.66850000  1
  H  H226  1  0.67530000  0.70170000  0.56120000  1
  H  H227  1  0.67550000  0.98570000  0.75350000  1
  H  H228  1  0.68790000  0.11670000  0.29680000  1
  H  H229  1  0.69000000  0.25300000  0.38040000  1
  H  H230  1  0.69000000  0.90680000  0.80470000  1
  H  H231  1  0.69390000  0.25720000  0.28550000  1
  H  H232  1  0.69860000  0.96190000  0.58150000  1
  H  H233  1  0.70010000  0.62930000  0.34930000  1
  H  H234  1  0.70040000  0.34870000  0.24210000  1
  H  H235  1  0.70730000  0.69440000  0.66690000  1
  H  H236  1  0.71330000  0.38320000  0.17730000  1
  H  H237  1  0.71360000  0.60350000  0.70990000  1
  H  H238  1  0.71500000  0.30560000  0.56650000  1
  H  H239  1  0.71890000  0.30430000  0.97910000  1
  H  H240  1  0.72230000  0.58270000  0.13280000  1
  H  H241  1  0.72390000  0.43580000  0.97150000  1
  H  H242  1  0.72750000  0.86000000  0.12760000  1
  H  H243  1  0.73190000  0.05760000  0.26720000  1
  H  H244  1  0.73860000  0.70140000  0.96870000  1
  H  H245  1  0.73960000  0.31930000  0.14520000  1
  H  H246  1  0.74520000  0.15000000  0.52380000  1
  H  H247  1  0.74660000  0.69480000  0.41000000  1
  H  H248  1  0.75340000  0.19480000  0.91000000  1
  H  H249  1  0.75480000  0.65000000  0.02380000  1
  H  H250  1  0.76040000  0.81930000  0.64520000  1
  H  H251  1  0.76140000  0.20140000  0.46870000  1
  H  H252  1  0.76810000  0.55760000  0.76720000  1
  H  H253  1  0.77250000  0.36000000  0.62760000  1
  H  H254  1  0.77610000  0.93580000  0.47150000  1
  H  H255  1  0.77770000  0.08270000  0.63280000  1
  H  H256  1  0.78110000  0.80430000  0.47910000  1
  H  H257  1  0.78500000  0.80560000  0.06650000  1
  H  H258  1  0.78640000  0.10350000  0.20990000  1
  H  H259  1  0.78670000  0.88320000  0.67730000  1
  H  H260  1  0.79270000  0.19440000  0.16690000  1
  H  H261  1  0.79960000  0.84870000  0.74210000  1
  H  H262  1  0.79990000  0.12930000  0.84930000  1
  H  H263  1  0.80140000  0.46190000  0.08150000  1
  H  H264  1  0.80610000  0.75720000  0.78550000  1
  H  H265  1  0.81000000  0.40680000  0.30470000  1
  H  H266  1  0.81000000  0.75300000  0.88040000  1
  H  H267  1  0.81210000  0.61670000  0.79680000  1
  H  H268  1  0.82450000  0.48570000  0.25350000  1
  H  H269  1  0.82470000  0.20170000  0.06120000  1
  H  H270  1  0.82780000  0.03590000  0.16850000  1
  H  H271  1  0.82930000  0.38140000  0.36790000  1
  H  H272  1  0.83210000  0.33890000  0.07910000  1
  H  H273  1  0.83350000  0.21880000  0.40910000  1
  H  H274  1  0.84060000  0.37850000  0.90150000  1
  H  H275  1  0.84400000  0.48960000  0.54500000  1
  H  H276  1  0.84580000  0.99780000  0.42500000  1
  H  H277  1  0.84590000  0.99480000  0.93280000  1
  H  H278  1  0.85030000  0.08120000  0.11020000  1
  H  H279  1  0.85530000  0.72330000  0.58860000  1
  H  H280  1  0.85740000  0.61830000  0.87960000  1
  H  H281  1  0.85920000  0.40230000  0.72820000  1
  H  H282  1  0.85930000  0.45980000  0.92340000  1
  H  H283  1  0.86020000  0.42640000  0.66690000  1
  H  H284  1  0.86090000  0.95910000  0.21820000  1
  H  H285  1  0.86280000  0.89470000  0.88960000  1
  H  H286  1  0.87330000  0.75960000  0.13380000  1
  H  H287  1  0.87470000  0.58580000  0.58920000  1
  H  H288  1  0.88000000  0.05570000  0.58410000  1
  H  H289  1  0.88050000  0.06280000  0.74590000  1
  H  H290  1  0.88380000  0.68990000  0.07080000  1
  H  H291  1  0.88630000  0.05160000  0.81130000  1
  H  H292  1  0.89820000  0.20290000  0.59080000  1
  H  H293  1  0.90060000  0.54130000  0.25700000  1
  H  H294  1  0.90430000  0.40870000  0.79510000  1
  H  H295  1  0.90990000  0.26100000  0.92360000  1
  H  H296  1  0.91440000  0.61330000  0.32600000  1
  H  H297  1  0.92080000  0.85000000  0.59070000  1
  H  H298  1  0.92320000  0.31390000  0.55910000  1
  H  H299  1  0.93060000  0.51100000  0.43970000  1
  H  H300  1  0.93360000  0.00850000  0.55310000  1
  H  H301  1  0.93440000  0.58890000  0.38880000  1
  H  H302  1  0.94040000  0.04930000  0.68140000  1
  H  H303  1  0.94240000  0.91000000  0.21400000  1
  H  H304  1  0.94680000  0.69650000  0.94210000  1
  H  H305  1  0.94800000  0.42380000  0.42590000  1
  H  H306  1  0.95410000  0.83050000  0.78450000  1
  H  H307  1  0.95440000  0.63980000  0.69670000  1
  H  H308  1  0.95770000  0.46590000  0.97430000  1
  H  H309  1  0.95970000  0.08570000  0.05650000  1
  H  H310  1  0.96230000  0.37380000  0.50250000  1
  H  H311  1  0.96720000  0.26590000  0.33350000  1
  H  H312  1  0.97270000  0.20260000  0.97290000  1
  H  H313  1  0.97590000  0.85900000  0.14230000  1
  H  H314  1  0.97710000  0.12360000  0.26520000  1
  H  H315  1  0.97950000  0.26790000  0.17720000  1
  H  H316  1  0.98140000  0.81800000  0.52800000  1
  H  H317  1  0.98490000  0.58930000  0.97490000  1
  H  H318  1  0.98860000  0.59620000  0.75200000  1
  H  H319  1  0.98930000  0.32140000  0.46580000  1
  H  H320  1  0.99320000  0.23310000  0.04990000  1
  H  H321  1  0.99480000  0.00440000  0.04090000  1
  H  H322  1  0.99670000  0.90070000  0.08240000  1
  H  H323  1  0.99690000  0.07320000  0.50440000  1
  C  C324  1  0.00080000  0.30070000  0.00475000  1
  C  C325  1  0.00170000  0.66870000  0.50680000  1
  C  C326  1  0.00200000  0.95920000  0.39830000  1
  C  C327  1  0.00270000  0.25280000  0.35292000  1
  C  C328  1  0.00460000  0.81300000  0.50360000  1
  C  C329  1  0.00510000  0.07870000  0.27072000  1
  C  C330  1  0.00520000  0.62120000  0.99560000  1
  C  C331  1  0.01920000  0.87830000  0.48430000  1
  C  C332  1  0.02390000  0.74100000  0.48700000  1
  C  C333  1  0.02550000  0.27990000  0.16294000  1
  C  C334  1  0.03090000  0.74330000  0.02610000  1
  C  C335  1  0.03570000  0.06990000  0.89990000  1
  C  C336  1  0.03690000  0.26240000  0.03870000  1
  C  C337  1  0.03770000  0.45120000  0.24533000  1
  C  C338  1  0.04110000  0.58820000  0.02600000  1
  C  C339  1  0.04920000  0.09520000  0.86410000  1
  C  C340  1  0.05010000  0.98430000  0.29940000  1
  C  C341  1  0.05320000  0.96940000  0.94765000  1
  C  C342  1  0.05590000  0.56970000  0.11910000  1
  C  C343  1  0.05620000  0.87410000  0.44960000  1
  C  C344  1  0.06140000  0.73470000  0.45210000  1
  C  C345  1  0.06430000  0.18990000  0.39427000  1
  C  C346  1  0.06640000  0.94650000  0.42830000  1
  C  C347  1  0.06730000  0.13140000  0.19789000  1
  C  C348  1  0.06780000  0.39640000  0.32167000  1
  C  C349  1  0.06830000  0.70810000  0.05580000  1
  C  C350  1  0.07030000  0.00090000  0.90949000  1
  C  C351  1  0.07380000  0.62880000  0.05560000  1
  C  C352  1  0.07570000  0.05690000  0.20718000  1
  C  C353  1  0.07690000  0.80170000  0.43330000  1
  C  C354  1  0.08060000  0.37780000  0.35865000  1
  C  C355  1  0.08410000  0.97640000  0.26390000  1
  C  C356  1  0.08450000  0.55410000  0.22212000  1
  C  C357  1  0.08700000  0.35500000  0.50041000  1
  C  C358  1  0.08880000  0.47050000  0.31232000  1
  C  C359  1  0.09050000  0.44890000  0.62790000  1
  C  C360  1  0.09120000  0.14960000  0.16151000  1
  C  C361  1  0.09340000  0.53540000  0.57343000  1
  C  C362  1  0.09840000  0.05510000  0.83760000  1
  C  C363  1  0.10090000  0.25950000  0.39566000  1
  C  C364  1  0.10360000  0.43380000  0.66560000  1
  C  C365  1  0.10780000  0.99910000  0.18163000  1
  C  C366  1  0.10870000  0.20920000  0.03151000  1
  C  C367  1  0.10940000  0.55840000  0.25903000  1
  C  C368  1  0.11110000  0.08180000  0.79750000  1
  C  C369  1  0.11340000  0.51840000  0.61455000  1
  C  C370  1  0.11540000  0.34160000  0.13158000  1
  C  C371  1  0.11570000  0.58830000  0.08740000  1
  C  C372  1  0.11620000  0.42870000  0.38603000  1
  C  C373  1  0.12240000  0.09290000  0.13491000  1
  C  C374  1  0.12260000  0.96370000  0.88350000  1
  C  C375  1  0.12480000  0.97980000  0.97527000  1
  C  C376  1  0.12500000  0.52410000  0.33957000  1
  C  C377  1  0.13110000  0.01790000  0.14555000  1
  C  C378  1  0.13590000  0.99080000  0.84840000  1
  C  C379  1  0.13810000  0.50190000  0.37613000  1
  C  C380  1  0.14210000  0.48600000  0.69100000  1
  C  C381  1  0.14240000  0.26760000  0.13124000  1
  C  C382  1  0.14970000  0.32360000  0.90911000  1
  C  C383  1  0.15260000  0.57150000  0.64030000  1
  C  C384  1  0.15340000  0.46810000  0.73240000  1
  C  C385  1  0.15630000  0.28500000  0.87433000  1
  C  C386  1  0.16120000  0.15660000  0.79763000  1
  C  C387  1  0.16200000  0.62090000  0.83080000  1
  C  C388  1  0.16530000  0.55580000  0.67830000  1
  C  C389  1  0.16530000  0.56000000  0.55047000  1
  C  C390  1  0.16640000  0.94930000  0.57154000  1
  C  C391  1  0.17120000  0.96310000  0.08038000  1
  C  C392  1  0.17330000  0.82850000  0.58010000  1
  C  C393  1  0.18120000  0.54940000  0.44220000  1
  C  C394  1  0.18970000  0.89380000  0.69230000  1
  C  C395  1  0.19130000  0.68440000  0.94326000  1
  C  C396  1  0.19590000  0.75970000  0.95336000  1
  C  C397  1  0.19600000  0.89000000  0.12668000  1
  C  C398  1  0.20760000  0.40080000  0.74016000  1
  C  C399  1  0.21310000  0.83740000  0.54718000  1
  C  C400  1  0.21390000  0.25720000  0.23910000  1
  C  C401  1  0.21480000  0.51670000  0.94093000  1
  C  C402  1  0.21730000  0.20200000  0.26520000  1
  C  C403  1  0.21930000  0.43770000  0.94239000  1
  C  C404  1  0.22040000  0.62030000  0.39617000  1
  C  C405  1  0.22180000  0.85410000  0.09297000  1
  C  C406  1  0.22900000  0.79150000  0.80880000  1
  C  C407  1  0.23250000  0.84640000  0.78280000  1
  C  C408  1  0.23510000  0.56480000  0.97394000  1
  C  C409  1  0.23620000  0.95210000  0.50780000  1
  C  C410  1  0.23710000  0.39160000  0.21890000  1
  C  C411  1  0.23830000  0.33160000  0.24740000  1
  C  C412  1  0.23870000  0.38170000  0.87452000  1
  C  C413  1  0.23920000  0.03220000  0.50691000  1
  C  C414  1  0.24320000  0.40400000  0.97564000  1
  C  C415  1  0.24480000  0.21950000  0.30120000  1
  C  C416  1  0.24650000  0.20440000  0.49835000  1
  C  C417  1  0.24670000  0.65770000  0.82930000  1
  C  C418  1  0.24850000  0.15040000  0.93013000  1
  C  C419  1  0.25150000  0.65040000  0.43013000  1
  C  C420  1  0.25330000  0.15770000  0.32930000  1
  C  C421  1  0.25350000  0.70440000  0.99835000  1
  C  C422  1  0.25520000  0.71950000  0.80120000  1
  C  C423  1  0.25680000  0.90400000  0.47564000  1
  C  C424  1  0.26080000  0.53220000  0.00691000  1
  C  C425  1  0.26130000  0.88170000  0.37452000  1
  C  C426  1  0.26170000  0.83160000  0.74740000  1
  C  C427  1  0.26290000  0.89160000  0.71890000  1
  C  C428  1  0.26380000  0.45210000  0.00780000  1
  C  C429  1  0.26490000  0.06480000  0.47394000  1
  C  C430  1  0.26750000  0.34640000  0.28280000  1
  C  C431  1  0.27100000  0.29150000  0.30880000  1
  C  C432  1  0.27820000  0.35410000  0.59297000  1
  C  C433  1  0.27960000  0.12030000  0.89617000  1
  C  C434  1  0.28070000  0.93770000  0.44239000  1
  C  C435  1  0.28270000  0.70200000  0.76520000  1
  C  C436  1  0.28520000  0.01670000  0.44093000  1
  C  C437  1  0.28610000  0.75720000  0.73910000  1
  C  C438  1  0.28690000  0.33740000  0.04718000  1
  C  C439  1  0.29240000  0.90080000  0.24016000  1
  C  C440  1  0.30400000  0.39000000  0.62668000  1
  C  C441  1  0.30410000  0.25970000  0.45336000  1
  C  C442  1  0.30870000  0.18440000  0.44326000  1
  C  C443  1  0.31030000  0.39380000  0.19230000  1
  C  C444  1  0.31880000  0.04940000  0.94220000  1
  C  C445  1  0.32670000  0.32850000  0.08010000  1
  C  C446  1  0.32880000  0.46310000  0.58038000  1
  C  C447  1  0.33360000  0.44930000  0.07154000  1
  C  C448  1  0.33470000  0.05580000  0.17830000  1
  C  C449  1  0.33470000  0.06000000  0.05047000  1
  C  C450  1  0.33800000  0.12090000  0.33080000  1
  C  C451  1  0.33880000  0.65660000  0.29763000  1
  C  C452  1  0.34370000  0.78500000  0.37433000  1
  C  C453  1  0.34660000  0.96810000  0.23240000  1
  C  C454  1  0.34740000  0.07150000  0.14030000  1
  C  C455  1  0.35030000  0.82360000  0.40911000  1
  C  C456  1  0.35760000  0.76760000  0.63124000  1
  C  C457  1  0.35790000  0.98600000  0.19100000  1
  C  C458  1  0.36190000  0.00190000  0.87613000  1
  C  C459  1  0.36410000  0.49080000  0.34840000  1
  C  C460  1  0.36890000  0.51790000  0.64555000  1
  C  C461  1  0.37500000  0.02410000  0.83957000  1
  C  C462  1  0.37520000  0.47980000  0.47527000  1
  C  C463  1  0.37740000  0.46370000  0.38350000  1
  C  C464  1  0.37760000  0.59290000  0.63491000  1
  C  C465  1  0.38380000  0.92870000  0.88603000  1
  C  C466  1  0.38430000  0.08830000  0.58740000  1
  C  C467  1  0.38460000  0.84160000  0.63158000  1
  C  C468  1  0.38660000  0.01840000  0.11455000  1
  C  C469  1  0.38890000  0.58180000  0.29750000  1
  C  C470  1  0.39060000  0.05840000  0.75903000  1
  C  C471  1  0.39130000  0.70920000  0.53151000  1
  C  C472  1  0.39220000  0.49910000  0.68163000  1
  C  C473  1  0.39640000  0.93380000  0.16560000  1
  C  C474  1  0.39910000  0.75950000  0.89566000  1
  C  C475  1  0.40160000  0.55510000  0.33760000  1
  C  C476  1  0.40660000  0.03540000  0.07343000  1
  C  C477  1  0.40880000  0.64960000  0.66151000  1
  C  C478  1  0.40950000  0.94890000  0.12790000  1
  C  C479  1  0.41120000  0.97050000  0.81232000  1
  C  C480  1  0.41300000  0.85500000  0.00041000  1
  C  C481  1  0.41550000  0.05410000  0.72212000  1
  C  C482  1  0.41590000  0.47640000  0.76390000  1
  C  C483  1  0.41940000  0.87780000  0.85865000  1
  C  C484  1  0.42310000  0.30170000  0.93330000  1
  C  C485  1  0.42430000  0.55690000  0.70718000  1
  C  C486  1  0.42620000  0.12880000  0.55560000  1
  C  C487  1  0.42970000  0.50090000  0.40949000  1
  C  C488  1  0.43170000  0.20810000  0.55580000  1
  C  C489  1  0.43220000  0.89640000  0.82167000  1
  C  C490  1  0.43270000  0.63140000  0.69789000  1
  C  C491  1  0.43360000  0.44650000  0.92830000  1
  C  C492  1  0.43570000  0.68990000  0.89427000  1
  C  C493  1  0.43860000  0.23470000  0.95210000  1
  C  C494  1  0.44380000  0.37410000  0.94960000  1
  C  C495  1  0.44410000  0.06970000  0.61910000  1
  C  C496  1  0.44680000  0.46940000  0.44765000  1
  C  C497  1  0.44990000  0.48430000  0.79940000  1
  C  C498  1  0.45080000  0.59520000  0.36410000  1
  C  C499  1  0.45890000  0.08820000  0.52600000  1
  C  C500  1  0.46230000  0.95120000  0.74533000  1
  C  C501  1  0.46310000  0.76240000  0.53870000  1
  C  C502  1  0.46430000  0.56990000  0.39990000  1
  C  C503  1  0.46910000  0.24330000  0.52610000  1
  C  C504  1  0.47450000  0.77990000  0.66294000  1
  C  C505  1  0.47610000  0.24100000  0.98700000  1
  C  C506  1  0.48080000  0.37830000  0.98430000  1
  C  C507  1  0.49480000  0.12120000  0.49560000  1
  C  C508  1  0.49490000  0.57870000  0.77072000  1
  C  C509  1  0.49540000  0.31300000  0.00360000  1
  C  C510  1  0.49730000  0.75280000  0.85292000  1
  C  C511  1  0.49800000  0.45920000  0.89830000  1
  C  C512  1  0.49830000  0.16870000  0.00680000  1
  C  C513  1  0.49920000  0.80070000  0.50475000  1
  C  C514  1  0.50080000  0.19930000  0.49525000  1
  C  C515  1  0.50170000  0.83130000  0.99320000  1
  C  C516  1  0.50200000  0.54080000  0.10170000  1
  C  C517  1  0.50270000  0.24720000  0.14708000  1
  C  C518  1  0.50460000  0.68700000  0.99640000  1
  C  C519  1  0.50510000  0.42130000  0.22928000  1
  C  C520  1  0.50520000  0.87880000  0.50440000  1
  C  C521  1  0.51920000  0.62170000  0.01570000  1
  C  C522  1  0.52390000  0.75900000  0.01300000  1
  C  C523  1  0.52550000  0.22010000  0.33706000  1
  C  C524  1  0.53090000  0.75670000  0.47390000  1
  C  C525  1  0.53570000  0.43010000  0.60010000  1
  C  C526  1  0.53690000  0.23760000  0.46130000  1
  C  C527  1  0.53770000  0.04880000  0.25467000  1
  C  C528  1  0.54110000  0.91180000  0.47400000  1
  C  C529  1  0.54920000  0.40480000  0.63590000  1
  C  C530  1  0.55010000  0.51570000  0.20060000  1
  C  C531  1  0.55320000  0.53060000  0.55235000  1
  C  C532  1  0.55590000  0.93030000  0.38090000  1
  C  C533  1  0.55620000  0.62590000  0.05040000  1
  C  C534  1  0.56140000  0.76530000  0.04790000  1
  C  C535  1  0.56430000  0.31010000  0.10573000  1
  C  C536  1  0.56640000  0.55350000  0.07170000  1
  C  C537  1  0.56730000  0.36860000  0.30211000  1
  C  C538  1  0.56780000  0.10360000  0.17833000  1
  C  C539  1  0.56830000  0.79190000  0.44420000  1
  C  C540  1  0.57030000  0.49910000  0.59051000  1
  C  C541  1  0.57380000  0.87120000  0.44440000  1
  C  C542  1  0.57570000  0.44310000  0.29282000  1
  C  C543  1  0.57690000  0.69830000  0.06670000  1
  C  C544  1  0.58060000  0.12220000  0.14135000  1
  C  C545  1  0.58410000  0.52360000  0.23610000  1
  C  C546  1  0.58450000  0.94590000  0.27788000  1
  C  C547  1  0.58700000  0.14500000  0.99959000  1
  C  C548  1  0.58880000  0.02950000  0.18768000  1
  C  C549  1  0.59050000  0.05110000  0.87210000  1
  C  C550  1  0.59120000  0.35040000  0.33849000  1
  C  C551  1  0.59340000  0.96460000  0.92657000  1
  C  C552  1  0.59840000  0.44490000  0.66240000  1
  C  C553  1  0.60090000  0.24050000  0.10434000  1
  C  C554  1  0.60360000  0.06620000  0.83440000  1
  C  C555  1  0.60780000  0.50090000  0.31837000  1
  C  C556  1  0.60870000  0.29080000  0.46849000  1
  C  C557  1  0.60940000  0.94160000  0.24097000  1
  C  C558  1  0.61110000  0.41820000  0.70250000  1
  C  C559  1  0.61340000  0.98160000  0.88545000  1
  C  C560  1  0.61540000  0.15840000  0.36842000  1
  C  C561  1  0.61570000  0.91170000  0.41260000  1
  C  C562  1  0.61620000  0.07130000  0.11397000  1
  C  C563  1  0.62240000  0.40710000  0.36509000  1
  C  C564  1  0.62260000  0.53630000  0.61650000  1
  C  C565  1  0.62480000  0.52020000  0.52473000  1
  C  C566  1  0.62500000  0.97590000  0.16043000  1
  C  C567  1  0.63110000  0.48210000  0.35445000  1
  C  C568  1  0.63590000  0.50920000  0.65160000  1
  C  C569  1  0.63810000  0.99810000  0.12387000  1
  C  C570  1  0.64210000  0.01400000  0.80900000  1
  C  C571  1  0.64240000  0.23240000  0.36876000  1
  C  C572  1  0.64970000  0.17640000  0.59089000  1
  C  C573  1  0.65260000  0.92850000  0.85970000  1
  C  C574  1  0.65340000  0.03190000  0.76760000  1
  C  C575  1  0.65630000  0.21500000  0.62567000  1
  C  C576  1  0.66120000  0.34340000  0.70237000  1
  C  C577  1  0.66200000  0.87910000  0.66920000  1
  C  C578  1  0.66530000  0.94000000  0.94953000  1
  C  C579  1  0.66530000  0.94420000  0.82170000  1
  C  C580  1  0.66640000  0.55070000  0.92846000  1
  C  C581  1  0.67120000  0.53690000  0.41962000  1
  C  C582  1  0.67330000  0.67150000  0.91990000  1
  C  C583  1  0.68120000  0.95060000  0.05780000  1
  C  C584  1  0.68970000  0.60620000  0.80770000  1
  C  C585  1  0.69130000  0.81560000  0.55674000  1
  C  C586  1  0.69590000  0.74030000  0.54664000  1
  C  C587  1  0.69600000  0.61000000  0.37332000  1
  C  C588  1  0.70760000  0.09920000  0.75984000  1
  C  C589  1  0.71310000  0.66260000  0.95282000  1
  C  C590  1  0.71390000  0.24280000  0.26090000  1
  C  C591  1  0.71480000  0.98330000  0.55907000  1
  C  C592  1  0.71730000  0.29800000  0.23480000  1
  C  C593  1  0.71930000  0.06230000  0.55761000  1
  C  C594  1  0.72040000  0.87970000  0.10383000  1
  C  C595  1  0.72180000  0.64590000  0.40703000  1
  C  C596  1  0.72900000  0.70850000  0.69120000  1
  C  C597  1  0.73250000  0.65360000  0.71720000  1
  C  C598  1  0.73510000  0.93520000  0.52606000  1
  C  C599  1  0.73620000  0.54790000  0.99220000  1
  C  C600  1  0.73710000  0.10840000  0.28110000  1
  C  C601  1  0.73830000  0.16840000  0.25260000  1
  C  C602  1  0.73870000  0.11830000  0.62548000  1
  C  C603  1  0.73920000  0.46780000  0.99309000  1
  C  C604  1  0.74320000  0.09600000  0.52436000  1
  C  C605  1  0.74480000  0.28050000  0.19880000  1
  C  C606  1  0.74650000  0.29560000  0.00165000  1
  C  C607  1  0.74670000  0.84230000  0.67070000  1
  C  C608  1  0.74850000  0.34960000  0.56987000  1
  C  C609  1  0.75150000  0.84960000  0.06987000  1
  C  C610  1  0.75330000  0.34230000  0.17070000  1
  C  C611  1  0.75350000  0.79560000  0.50165000  1
  C  C612  1  0.75520000  0.78050000  0.69880000  1
  C  C613  1  0.75680000  0.59600000  0.02436000  1
  C  C614  1  0.76080000  0.96780000  0.49309000  1
  C  C615  1  0.76130000  0.61830000  0.12548000  1
  C  C616  1  0.76170000  0.66840000  0.75260000  1
  C  C617  1  0.76290000  0.60840000  0.78110000  1
  C  C618  1  0.76380000  0.04790000  0.49220000  1
  C  C619  1  0.76490000  0.43520000  0.02606000  1
  C  C620  1  0.76750000  0.15360000  0.21720000  1
  C  C621  1  0.77100000  0.20850000  0.19120000  1
  C  C622  1  0.77820000  0.14590000  0.90703000  1
  C  C623  1  0.77960000  0.37970000  0.60383000  1
  C  C624  1  0.78070000  0.56230000  0.05761000  1
  C  C625  1  0.78270000  0.79800000  0.73480000  1
  C  C626  1  0.78520000  0.48330000  0.05907000  1
  C  C627  1  0.78610000  0.74280000  0.76090000  1
  C  C628  1  0.78690000  0.16260000  0.45282000  1
  C  C629  1  0.79240000  0.59920000  0.25984000  1
  C  C630  1  0.80400000  0.11000000  0.87332000  1
  C  C631  1  0.80410000  0.24030000  0.04664000  1
  C  C632  1  0.80870000  0.31560000  0.05674000  1
  C  C633  1  0.81030000  0.10620000  0.30770000  1
  C  C634  1  0.81880000  0.45060000  0.55780000  1
  C  C635  1  0.82670000  0.17150000  0.41990000  1
  C  C636  1  0.82880000  0.03690000  0.91962000  1
  C  C637  1  0.83360000  0.05070000  0.42846000  1
  C  C638  1  0.83470000  0.44000000  0.44953000  1
  C  C639  1  0.83470000  0.44420000  0.32170000  1
  C  C640  1  0.83800000  0.37910000  0.16920000  1
  C  C641  1  0.83880000  0.84340000  0.20237000  1
  C  C642  1  0.84370000  0.71500000  0.12567000  1
  C  C643  1  0.84660000  0.53190000  0.26760000  1
  C  C644  1  0.84740000  0.42850000  0.35970000  1
  C  C645  1  0.85030000  0.67640000  0.09089000  1
  C  C646  1  0.85760000  0.73240000  0.86876000  1
  C  C647  1  0.85790000  0.51400000  0.30900000  1
  C  C648  1  0.86190000  0.49810000  0.62387000  1
  C  C649  1  0.86410000  0.00920000  0.15160000  1
  C  C650  1  0.86890000  0.98210000  0.85445000  1
  C  C651  1  0.87500000  0.47590000  0.66043000  1
  C  C652  1  0.87520000  0.02020000  0.02473000  1
  C  C653  1  0.87740000  0.03630000  0.11650000  1
  C  C654  1  0.87760000  0.90710000  0.86509000  1
  C  C655  1  0.88380000  0.57130000  0.61397000  1
  C  C656  1  0.88430000  0.41170000  0.91260000  1
  C  C657  1  0.88460000  0.65840000  0.86842000  1
  C  C658  1  0.88660000  0.48160000  0.38545000  1
  C  C659  1  0.88890000  0.91820000  0.20250000  1
  C  C660  1  0.89060000  0.44160000  0.74097000  1
  C  C661  1  0.89130000  0.79080000  0.96849000  1
  C  C662  1  0.89220000  0.00090000  0.81837000  1
  C  C663  1  0.89640000  0.56620000  0.33440000  1
  C  C664  1  0.89910000  0.74050000  0.60434000  1
  C  C665  1  0.90160000  0.94490000  0.16240000  1
  C  C666  1  0.90660000  0.46460000  0.42657000  1
  C  C667  1  0.90880000  0.85040000  0.83849000  1
  C  C668  1  0.90950000  0.55110000  0.37210000  1
  C  C669  1  0.91120000  0.52950000  0.68768000  1
  C  C670  1  0.91300000  0.64500000  0.49959000  1
  C  C671  1  0.91550000  0.44590000  0.77788000  1
  C  C672  1  0.91590000  0.02360000  0.73610000  1
  C  C673  1  0.91940000  0.62220000  0.64135000  1
  C  C674  1  0.92310000  0.19830000  0.56670000  1
  C  C675  1  0.92430000  0.94310000  0.79282000  1
  C  C676  1  0.92620000  0.37120000  0.94440000  1
  C  C677  1  0.92970000  0.99910000  0.09051000  1
  C  C678  1  0.93170000  0.29190000  0.94420000  1
  C  C679  1  0.93220000  0.60360000  0.67833000  1
  C  C680  1  0.93270000  0.86860000  0.80211000  1
  C  C681  1  0.93360000  0.05350000  0.57170000  1
  C  C682  1  0.93570000  0.81010000  0.60573000  1
  C  C683  1  0.93860000  0.26530000  0.54790000  1
  C  C684  1  0.94380000  0.12590000  0.55040000  1
  C  C685  1  0.94410000  0.43030000  0.88090000  1
  C  C686  1  0.94680000  0.03060000  0.05235000  1
  C  C687  1  0.94990000  0.01570000  0.70060000  1
  C  C688  1  0.95080000  0.90480000  0.13590000  1
  C  C689  1  0.95890000  0.41180000  0.97400000  1
  C  C690  1  0.96230000  0.54880000  0.75467000  1
  C  C691  1  0.96310000  0.73760000  0.96130000  1
  C  C692  1  0.96430000  0.93010000  0.10010000  1
  C  C693  1  0.96910000  0.25670000  0.97390000  1
  C  C694  1  0.97450000  0.72010000  0.83706000  1
  C  C695  1  0.97610000  0.25900000  0.51300000  1
  C  C696  1  0.98080000  0.12170000  0.51570000  1
  C  C697  1  0.99480000  0.37880000  0.00440000  1
  C  C698  1  0.99490000  0.92130000  0.72928000  1
  C  C699  1  0.99540000  0.18700000  0.49640000  1
  C  C700  1  0.99730000  0.74720000  0.64708000  1
  C  C701  1  0.99800000  0.04080000  0.60170000  1
  C  C702  1  0.99830000  0.33130000  0.49320000  1
  C  C703  1  0.99920000  0.69930000  0.99525000  1
  N  N704  1  0.00020000  0.04820000  0.30346000  1
  N  N705  1  0.00200000  0.18480000  0.36779000  1
  N  N706  1  0.03970000  0.48630000  0.21336000  1
  N  N707  1  0.04080000  0.34930000  0.15112000  1
  N  N708  1  0.05530000  0.03800000  0.24551000  1
  N  N709  1  0.06040000  0.30100000  0.36891000  1
  N  N710  1  0.07850000  0.49220000  0.27393000  1
  N  N711  1  0.08500000  0.22880000  0.15169000  1
  N  N712  1  0.14400000  0.89800000  0.59553000  1
  N  N713  1  0.16290000  0.95990000  0.11892000  1
  N  N714  1  0.17660000  0.55550000  0.40342000  1
  N  N715  1  0.20070000  0.38580000  0.90959000  1
  N  N716  1  0.20590000  0.90060000  0.06392000  1
  N  N717  1  0.20900000  0.91620000  0.54140000  1
  N  N718  1  0.21300000  0.32050000  0.85241000  1
  N  N719  1  0.22590000  0.60580000  0.45887000  1
  N  N720  1  0.22760000  0.64660000  0.97216000  1
  N  N721  1  0.23480000  0.77420000  0.98790000  1
  N  N722  1  0.26520000  0.27420000  0.48790000  1
  N  N723  1  0.27240000  0.14660000  0.47216000  1
  N  N724  1  0.27410000  0.10580000  0.95887000  1
  N  N725  1  0.28700000  0.82050000  0.35241000  1
  N  N726  1  0.29100000  0.41620000  0.04140000  1
  N  N727  1  0.29410000  0.40060000  0.56392000  1
  N  N728  1  0.29930000  0.88580000  0.40959000  1
  N  N729  1  0.32340000  0.05550000  0.90342000  1
  N  N730  1  0.33710000  0.45990000  0.61892000  1
  N  N731  1  0.35600000  0.39800000  0.09553000  1
  N  N732  1  0.41500000  0.72880000  0.65169000  1
  N  N733  1  0.42150000  0.99220000  0.77393000  1
  N  N734  1  0.43960000  0.80100000  0.86891000  1
  N  N735  1  0.44470000  0.53800000  0.74551000  1
  N  N736  1  0.45920000  0.84930000  0.65112000  1
  N  N737  1  0.46030000  0.98630000  0.71336000  1
  N  N738  1  0.49800000  0.68480000  0.86779000  1
  N  N739  1  0.49980000  0.54820000  0.80346000  1
  N  N740  1  0.50020000  0.45180000  0.19654000  1
  N  N741  1  0.50200000  0.31520000  0.13221000  1
  N  N742  1  0.53970000  0.01370000  0.28664000  1
  N  N743  1  0.54080000  0.15070000  0.34888000  1
  N  N744  1  0.55530000  0.46200000  0.25449000  1
  N  N745  1  0.56040000  0.19900000  0.13109000  1
  N  N746  1  0.57850000  0.00780000  0.22607000  1
  N  N747  1  0.58500000  0.27120000  0.34831000  1
  N  N748  1  0.64400000  0.60200000  0.90447000  1
  N  N749  1  0.66290000  0.54010000  0.38108000  1
  N  N750  1  0.67660000  0.94450000  0.09658000  1
  N  N751  1  0.70070000  0.11420000  0.59041000  1
  N  N752  1  0.70590000  0.59940000  0.43608000  1
  N  N753  1  0.70900000  0.58380000  0.95860000  1
  N  N754  1  0.71300000  0.17950000  0.64759000  1
  N  N755  1  0.72590000  0.89420000  0.04113000  1
  N  N756  1  0.72760000  0.85340000  0.52784000  1
  N  N757  1  0.73480000  0.72580000  0.51210000  1
  N  N758  1  0.76520000  0.22580000  0.01210000  1
  N  N759  1  0.77240000  0.35340000  0.02784000  1
  N  N760  1  0.77410000  0.39420000  0.54113000  1
  N  N761  1  0.78700000  0.67950000  0.14759000  1
  N  N762  1  0.79100000  0.08380000  0.45860000  1
  N  N763  1  0.79410000  0.09940000  0.93608000  1
  N  N764  1  0.79930000  0.61420000  0.09041000  1
  N  N765  1  0.82340000  0.44450000  0.59658000  1
  N  N766  1  0.83710000  0.04010000  0.88108000  1
  N  N767  1  0.85600000  0.10200000  0.40447000  1
  N  N768  1  0.91500000  0.77120000  0.84831000  1
  N  N769  1  0.92150000  0.50780000  0.72607000  1
  N  N770  1  0.93960000  0.69900000  0.63109000  1
  N  N771  1  0.94470000  0.96200000  0.75449000  1
  N  N772  1  0.95920000  0.65070000  0.84888000  1
  N  N773  1  0.96030000  0.51370000  0.78664000  1
  N  N774  1  0.99800000  0.81520000  0.63221000  1
  N  N775  1  0.99980000  0.95180000  0.69654000  1
  O  O776  1  0.00700000  0.02220000  0.38382000  1
  O  O777  1  0.02800000  0.62690000  0.13992000  1
  O  O778  1  0.03920000  0.50150000  0.12273000  1
  O  O779  1  0.05360000  0.08900000  0.60876000  1
  O  O780  1  0.11590000  0.61890000  0.80212000  1
  O  O781  1  0.12160000  0.34250000  0.53190000  1
  O  O782  1  0.12400000  0.16010000  0.05478000  1
  O  O783  1  0.12510000  0.04090000  0.99710000  1
  O  O784  1  0.12710000  0.38690000  0.47517000  1
  O  O785  1  0.12930000  0.21790000  0.78674000  1
  O  O786  1  0.13950000  0.59220000  0.86141000  1
  O  O787  1  0.14380000  0.83610000  0.68704000  1
  O  O788  1  0.15580000  0.21560000  0.00283000  1
  O  O789  1  0.17680000  0.95520000  0.67589000  1
  O  O790  1  0.17920000  0.92800000  0.97455000  1
  O  O791  1  0.19040000  0.62970000  0.55482000  1
  O  O792  1  0.19950000  0.51370000  0.52632000  1
  O  O793  1  0.20620000  0.38120000  0.77421000  1
  O  O794  1  0.23500000  0.15800000  0.80868000  1
  O  O795  1  0.24640000  0.87110000  0.21466000  1
  O  O796  1  0.25360000  0.37110000  0.71466000  1
  O  O797  1  0.26500000  0.65800000  0.30868000  1
  O  O798  1  0.29380000  0.88120000  0.27421000  1
  O  O799  1  0.30050000  0.01370000  0.02632000  1
  O  O800  1  0.30960000  0.12970000  0.05482000  1
  O  O801  1  0.32080000  0.42800000  0.47455000  1
  O  O802  1  0.32320000  0.45520000  0.17589000  1
  O  O803  1  0.34420000  0.71560000  0.50283000  1
  O  O804  1  0.35620000  0.33610000  0.18704000  1
  O  O805  1  0.36050000  0.09220000  0.36141000  1
  O  O806  1  0.37070000  0.71790000  0.28674000  1
  O  O807  1  0.37290000  0.88690000  0.97517000  1
  O  O808  1  0.37490000  0.54090000  0.49710000  1
  O  O809  1  0.37600000  0.66010000  0.55478000  1
  O  O810  1  0.37840000  0.84250000  0.03190000  1
  O  O811  1  0.38410000  0.11890000  0.30212000  1
  O  O812  1  0.44640000  0.58900000  0.10876000  1
  O  O813  1  0.46080000  0.00150000  0.62273000  1
  O  O814  1  0.47200000  0.12690000  0.63992000  1
  O  O815  1  0.49300000  0.52220000  0.88382000  1
  O  O816  1  0.50700000  0.47780000  0.11618000  1
  O  O817  1  0.52800000  0.87310000  0.36008000  1
  O  O818  1  0.53920000  0.99850000  0.37727000  1
  O  O819  1  0.55360000  0.41100000  0.89124000  1
  O  O820  1  0.61590000  0.88110000  0.69788000  1
  O  O821  1  0.62160000  0.15750000  0.96810000  1
  O  O822  1  0.62400000  0.33990000  0.44522000  1
  O  O823  1  0.62510000  0.45910000  0.50290000  1
  O  O824  1  0.62710000  0.11310000  0.02483000  1
  O  O825  1  0.62930000  0.28210000  0.71326000  1
  O  O826  1  0.63950000  0.90780000  0.63859000  1
  O  O827  1  0.64380000  0.66390000  0.81296000  1
  O  O828  1  0.65580000  0.28440000  0.49717000  1
  O  O829  1  0.67680000  0.54480000  0.82411000  1
  O  O830  1  0.67920000  0.57200000  0.52545000  1
  O  O831  1  0.69040000  0.87030000  0.94518000  1
  O  O832  1  0.69950000  0.98630000  0.97368000  1
  O  O833  1  0.70620000  0.11880000  0.72579000  1
  O  O834  1  0.73500000  0.34200000  0.69132000  1
  O  O835  1  0.74640000  0.62890000  0.28534000  1
  O  O836  1  0.75360000  0.12890000  0.78534000  1
  O  O837  1  0.76500000  0.84200000  0.19132000  1
  O  O838  1  0.79380000  0.61880000  0.22579000  1
  O  O839  1  0.80050000  0.48630000  0.47368000  1
  O  O840  1  0.80960000  0.37030000  0.44518000  1
  O  O841  1  0.82080000  0.07200000  0.02545000  1
  O  O842  1  0.82320000  0.04480000  0.32411000  1
  O  O843  1  0.84420000  0.78440000  0.99717000  1
  O  O844  1  0.85620000  0.16390000  0.31296000  1
  O  O845  1  0.86050000  0.40780000  0.13859000  1
  O  O846  1  0.87070000  0.78210000  0.21326000  1
  O  O847  1  0.87290000  0.61310000  0.52483000  1
  O  O848  1  0.87490000  0.95910000  0.00290000  1
  O  O849  1  0.87600000  0.83990000  0.94522000  1
  O  O850  1  0.87840000  0.65750000  0.46810000  1
  O  O851  1  0.88410000  0.38110000  0.19788000  1
  O  O852  1  0.94640000  0.91100000  0.39124000  1
  O  O853  1  0.96080000  0.49850000  0.87727000  1
  O  O854  1  0.97200000  0.37310000  0.86008000  1
  O  O855  1  0.99300000  0.97780000  0.61618000  1
