# generated using pymatgen
data_LaMgH12(C4O5)3
_symmetry_space_group_name_H-M   'P 1'
_cell_length_a   18.47320000
_cell_length_b   18.47320000
_cell_length_c   18.47320000
_cell_angle_alpha   60.00000000
_cell_angle_beta   60.00000000
_cell_angle_gamma   60.00000000
_symmetry_Int_Tables_number   1
_chemical_formula_structural   LaMgH12(C4O5)3
_chemical_formula_sum   'La8 Mg8 H96 C96 O120'
_cell_volume   4457.70576015
_cell_formula_units_Z   8
loop_
 _symmetry_equiv_pos_site_id
 _symmetry_equiv_pos_as_xyz
  1  'x, y, z'
loop_
 _atom_site_type_symbol
 _atom_site_label
 _atom_site_symmetry_multiplicity
 _atom_site_fract_x
 _atom_site_fract_y
 _atom_site_fract_z
 _atom_site_occupancy
  La  La0  1  0.75000000  0.75000000  0.75000000  1
  La  La1  1  0.25000000  0.25000000  0.75000000  1
  La  La2  1  0.25000000  0.75000000  0.75000000  1
  La  La3  1  0.75000000  0.25000000  0.75000000  1
  La  La4  1  0.25000000  0.75000000  0.25000000  1
  La  La5  1  0.75000000  0.25000000  0.25000000  1
  La  La6  1  0.75000000  0.75000000  0.25000000  1
  La  La7  1  0.25000000  0.25000000  0.25000000  1
  Mg  Mg8  1  0.00000000  0.00000000  0.00000000  1
  Mg  Mg9  1  0.50000000  0.50000000  0.00000000  1
  Mg  Mg10  1  0.50000000  0.00000000  0.00000000  1
  Mg  Mg11  1  0.00000000  0.50000000  0.00000000  1
  Mg  Mg12  1  0.50000000  0.00000000  0.50000000  1
  Mg  Mg13  1  0.00000000  0.50000000  0.50000000  1
  Mg  Mg14  1  0.00000000  0.00000000  0.50000000  1
  Mg  Mg15  1  0.50000000  0.50000000  0.50000000  1
  H  H16  1  0.07320000  0.15420000  0.99320000  1
  H  H17  1  0.77940000  0.07320000  0.99320000  1
  H  H18  1  0.15420000  0.77940000  0.99320000  1
  H  H19  1  0.06750000  0.29230000  0.98610000  1
  H  H20  1  0.65410000  0.06750000  0.98610000  1
  H  H21  1  0.29230000  0.65410000  0.98610000  1
  H  H22  1  0.01390000  0.20770000  0.93250000  1
  H  H23  1  0.84590000  0.01390000  0.93250000  1
  H  H24  1  0.20770000  0.84590000  0.93250000  1
  H  H25  1  0.00680000  0.34580000  0.92680000  1
  H  H26  1  0.72060000  0.00680000  0.92680000  1
  H  H27  1  0.34580000  0.72060000  0.92680000  1
  H  H28  1  0.51390000  0.70770000  0.84590000  1
  H  H29  1  0.93250000  0.51390000  0.84590000  1
  H  H30  1  0.70770000  0.93250000  0.84590000  1
  H  H31  1  0.42680000  0.00680000  0.84580000  1
  H  H32  1  0.00680000  0.72060000  0.84580000  1
  H  H33  1  0.72060000  0.42680000  0.84580000  1
  H  H34  1  0.48610000  0.06750000  0.79230000  1
  H  H35  1  0.06750000  0.65410000  0.79230000  1
  H  H36  1  0.65410000  0.48610000  0.79230000  1
  H  H37  1  0.57320000  0.65420000  0.77940000  1
  H  H38  1  0.99320000  0.57320000  0.77940000  1
  H  H39  1  0.65420000  0.99320000  0.77940000  1
  H  H40  1  0.50680000  0.84580000  0.72060000  1
  H  H41  1  0.92680000  0.50680000  0.72060000  1
  H  H42  1  0.84580000  0.92680000  0.72060000  1
  H  H43  1  0.43250000  0.01390000  0.70770000  1
  H  H44  1  0.01390000  0.84590000  0.70770000  1
  H  H45  1  0.84590000  0.43250000  0.70770000  1
  H  H46  1  0.49320000  0.07320000  0.65420000  1
  H  H47  1  0.07320000  0.77940000  0.65420000  1
  H  H48  1  0.77940000  0.49320000  0.65420000  1
  H  H49  1  0.56750000  0.79230000  0.65410000  1
  H  H50  1  0.98610000  0.56750000  0.65410000  1
  H  H51  1  0.79230000  0.98610000  0.65410000  1
  H  H52  1  0.15420000  0.49320000  0.57320000  1
  H  H53  1  0.77940000  0.15420000  0.57320000  1
  H  H54  1  0.49320000  0.77940000  0.57320000  1
  H  H55  1  0.29230000  0.48610000  0.56750000  1
  H  H56  1  0.65410000  0.29230000  0.56750000  1
  H  H57  1  0.48610000  0.65410000  0.56750000  1
  H  H58  1  0.20770000  0.43250000  0.51390000  1
  H  H59  1  0.84590000  0.20770000  0.51390000  1
  H  H60  1  0.43250000  0.84590000  0.51390000  1
  H  H61  1  0.34580000  0.42680000  0.50680000  1
  H  H62  1  0.72060000  0.34580000  0.50680000  1
  H  H63  1  0.42680000  0.72060000  0.50680000  1
  H  H64  1  0.57320000  0.27940000  0.49320000  1
  H  H65  1  0.27940000  0.65420000  0.49320000  1
  H  H66  1  0.65420000  0.57320000  0.49320000  1
  H  H67  1  0.56750000  0.15410000  0.48610000  1
  H  H68  1  0.15410000  0.79230000  0.48610000  1
  H  H69  1  0.79230000  0.56750000  0.48610000  1
  H  H70  1  0.51390000  0.34590000  0.43250000  1
  H  H71  1  0.34590000  0.70770000  0.43250000  1
  H  H72  1  0.70770000  0.51390000  0.43250000  1
  H  H73  1  0.50680000  0.22060000  0.42680000  1
  H  H74  1  0.22060000  0.84580000  0.42680000  1
  H  H75  1  0.84580000  0.50680000  0.42680000  1
  H  H76  1  0.20770000  0.01390000  0.34590000  1
  H  H77  1  0.01390000  0.43250000  0.34590000  1
  H  H78  1  0.43250000  0.20770000  0.34590000  1
  H  H79  1  0.22060000  0.50680000  0.34580000  1
  H  H80  1  0.92680000  0.22060000  0.34580000  1
  H  H81  1  0.50680000  0.92680000  0.34580000  1
  H  H82  1  0.15410000  0.56750000  0.29230000  1
  H  H83  1  0.98610000  0.15410000  0.29230000  1
  H  H84  1  0.56750000  0.98610000  0.29230000  1
  H  H85  1  0.15420000  0.07320000  0.27940000  1
  H  H86  1  0.07320000  0.49320000  0.27940000  1
  H  H87  1  0.49320000  0.15420000  0.27940000  1
  H  H88  1  0.34580000  0.00680000  0.22060000  1
  H  H89  1  0.00680000  0.42680000  0.22060000  1
  H  H90  1  0.42680000  0.34580000  0.22060000  1
  H  H91  1  0.34590000  0.51390000  0.20770000  1
  H  H92  1  0.93250000  0.34590000  0.20770000  1
  H  H93  1  0.51390000  0.93250000  0.20770000  1
  H  H94  1  0.27940000  0.57320000  0.15420000  1
  H  H95  1  0.99320000  0.27940000  0.15420000  1
  H  H96  1  0.57320000  0.99320000  0.15420000  1
  H  H97  1  0.29230000  0.06750000  0.15410000  1
  H  H98  1  0.06750000  0.48610000  0.15410000  1
  H  H99  1  0.48610000  0.29230000  0.15410000  1
  H  H100  1  0.65420000  0.27940000  0.07320000  1
  H  H101  1  0.27940000  0.99320000  0.07320000  1
  H  H102  1  0.99320000  0.65420000  0.07320000  1
  H  H103  1  0.79230000  0.15410000  0.06750000  1
  H  H104  1  0.15410000  0.98610000  0.06750000  1
  H  H105  1  0.98610000  0.79230000  0.06750000  1
  H  H106  1  0.70770000  0.34590000  0.01390000  1
  H  H107  1  0.34590000  0.93250000  0.01390000  1
  H  H108  1  0.93250000  0.70770000  0.01390000  1
  H  H109  1  0.84580000  0.22060000  0.00680000  1
  H  H110  1  0.22060000  0.92680000  0.00680000  1
  H  H111  1  0.92680000  0.84580000  0.00680000  1
  C  C112  1  0.07450000  0.18210000  0.93210000  1
  C  C113  1  0.81130000  0.07450000  0.93210000  1
  C  C114  1  0.18210000  0.81130000  0.93210000  1
  C  C115  1  0.06790000  0.31790000  0.92550000  1
  C  C116  1  0.68870000  0.06790000  0.92550000  1
  C  C117  1  0.31790000  0.68870000  0.92550000  1
  C  C118  1  0.12709000  0.11351000  0.88711000  1
  C  C119  1  0.11351000  0.87229000  0.88711000  1
  C  C120  1  0.87229000  0.12709000  0.88711000  1
  C  C121  1  0.37291000  0.11289000  0.88649000  1
  C  C122  1  0.11289000  0.62771000  0.88649000  1
  C  C123  1  0.62771000  0.37291000  0.88649000  1
  C  C124  1  0.11289000  0.38649000  0.87291000  1
  C  C125  1  0.62771000  0.11289000  0.87291000  1
  C  C126  1  0.38649000  0.62771000  0.87291000  1
  C  C127  1  0.62709000  0.61351000  0.87229000  1
  C  C128  1  0.61351000  0.88711000  0.87229000  1
  C  C129  1  0.88711000  0.62709000  0.87229000  1
  C  C130  1  0.42550000  0.06790000  0.81790000  1
  C  C131  1  0.06790000  0.68870000  0.81790000  1
  C  C132  1  0.68870000  0.42550000  0.81790000  1
  C  C133  1  0.57450000  0.68210000  0.81130000  1
  C  C134  1  0.93210000  0.57450000  0.81130000  1
  C  C135  1  0.68210000  0.93210000  0.81130000  1
  C  C136  1  0.56790000  0.81790000  0.68870000  1
  C  C137  1  0.92550000  0.56790000  0.68870000  1
  C  C138  1  0.81790000  0.92550000  0.68870000  1
  C  C139  1  0.43210000  0.07450000  0.68210000  1
  C  C140  1  0.07450000  0.81130000  0.68210000  1
  C  C141  1  0.81130000  0.43210000  0.68210000  1
  C  C142  1  0.87291000  0.61289000  0.62771000  1
  C  C143  1  0.61289000  0.88649000  0.62771000  1
  C  C144  1  0.88649000  0.87291000  0.62771000  1
  C  C145  1  0.11351000  0.38711000  0.62709000  1
  C  C146  1  0.87229000  0.11351000  0.62709000  1
  C  C147  1  0.38711000  0.87229000  0.62709000  1
  C  C148  1  0.38711000  0.12709000  0.61351000  1
  C  C149  1  0.12709000  0.87229000  0.61351000  1
  C  C150  1  0.87229000  0.38711000  0.61351000  1
  C  C151  1  0.38649000  0.37291000  0.61289000  1
  C  C152  1  0.37291000  0.62771000  0.61289000  1
  C  C153  1  0.62771000  0.38649000  0.61289000  1
  C  C154  1  0.18210000  0.43210000  0.57450000  1
  C  C155  1  0.81130000  0.18210000  0.57450000  1
  C  C156  1  0.43210000  0.81130000  0.57450000  1
  C  C157  1  0.31790000  0.42550000  0.56790000  1
  C  C158  1  0.68870000  0.31790000  0.56790000  1
  C  C159  1  0.42550000  0.68870000  0.56790000  1
  C  C160  1  0.57450000  0.31130000  0.43210000  1
  C  C161  1  0.31130000  0.68210000  0.43210000  1
  C  C162  1  0.68210000  0.57450000  0.43210000  1
  C  C163  1  0.56790000  0.18870000  0.42550000  1
  C  C164  1  0.18870000  0.81790000  0.42550000  1
  C  C165  1  0.81790000  0.56790000  0.42550000  1
  C  C166  1  0.37229000  0.61351000  0.38711000  1
  C  C167  1  0.62709000  0.37229000  0.38711000  1
  C  C168  1  0.61351000  0.62709000  0.38711000  1
  C  C169  1  0.12771000  0.61289000  0.38649000  1
  C  C170  1  0.87291000  0.12771000  0.38649000  1
  C  C171  1  0.61289000  0.87291000  0.38649000  1
  C  C172  1  0.61289000  0.12771000  0.37291000  1
  C  C173  1  0.12771000  0.88649000  0.37291000  1
  C  C174  1  0.88649000  0.61289000  0.37291000  1
  C  C175  1  0.11351000  0.12709000  0.37229000  1
  C  C176  1  0.38711000  0.11351000  0.37229000  1
  C  C177  1  0.12709000  0.38711000  0.37229000  1
  C  C178  1  0.18870000  0.56790000  0.31790000  1
  C  C179  1  0.92550000  0.18870000  0.31790000  1
  C  C180  1  0.56790000  0.92550000  0.31790000  1
  C  C181  1  0.18210000  0.07450000  0.31130000  1
  C  C182  1  0.07450000  0.43210000  0.31130000  1
  C  C183  1  0.43210000  0.18210000  0.31130000  1
  C  C184  1  0.31790000  0.06790000  0.18870000  1
  C  C185  1  0.06790000  0.42550000  0.18870000  1
  C  C186  1  0.42550000  0.31790000  0.18870000  1
  C  C187  1  0.31130000  0.57450000  0.18210000  1
  C  C188  1  0.93210000  0.31130000  0.18210000  1
  C  C189  1  0.57450000  0.93210000  0.18210000  1
  C  C190  1  0.11289000  0.37291000  0.12771000  1
  C  C191  1  0.38649000  0.11289000  0.12771000  1
  C  C192  1  0.37291000  0.38649000  0.12771000  1
  C  C193  1  0.61351000  0.37229000  0.12709000  1
  C  C194  1  0.37229000  0.88711000  0.12709000  1
  C  C195  1  0.88711000  0.61351000  0.12709000  1
  C  C196  1  0.37229000  0.62709000  0.11351000  1
  C  C197  1  0.88711000  0.37229000  0.11351000  1
  C  C198  1  0.62709000  0.88711000  0.11351000  1
  C  C199  1  0.12771000  0.87291000  0.11289000  1
  C  C200  1  0.88649000  0.12771000  0.11289000  1
  C  C201  1  0.87291000  0.88649000  0.11289000  1
  C  C202  1  0.68210000  0.31130000  0.07450000  1
  C  C203  1  0.31130000  0.93210000  0.07450000  1
  C  C204  1  0.93210000  0.68210000  0.07450000  1
  C  C205  1  0.81790000  0.18870000  0.06790000  1
  C  C206  1  0.18870000  0.92550000  0.06790000  1
  C  C207  1  0.92550000  0.81790000  0.06790000  1
  O  O208  1  0.39605000  0.08105000  0.95159000  1
  O  O209  1  0.08105000  0.57131000  0.95159000  1
  O  O210  1  0.57131000  0.39605000  0.95159000  1
  O  O211  1  0.60395000  0.54841000  0.92869000  1
  O  O212  1  0.54841000  0.91895000  0.92869000  1
  O  O213  1  0.91895000  0.60395000  0.92869000  1
  O  O214  1  0.10395000  0.04841000  0.91895000  1
  O  O215  1  0.04841000  0.92869000  0.91895000  1
  O  O216  1  0.92869000  0.10395000  0.91895000  1
  O  O217  1  0.08105000  0.45159000  0.89605000  1
  O  O218  1  0.57131000  0.08105000  0.89605000  1
  O  O219  1  0.45159000  0.57131000  0.89605000  1
  O  O220  1  0.11250000  0.25000000  0.88750000  1
  O  O221  1  0.75000000  0.11250000  0.88750000  1
  O  O222  1  0.25000000  0.75000000  0.88750000  1
  O  O223  1  0.30574000  0.17952000  0.87696000  1
  O  O224  1  0.17952000  0.63778000  0.87696000  1
  O  O225  1  0.63778000  0.30574000  0.87696000  1
  O  O226  1  0.69426000  0.62304000  0.86222000  1
  O  O227  1  0.62304000  0.82048000  0.86222000  1
  O  O228  1  0.82048000  0.69426000  0.86222000  1
  O  O229  1  0.19426000  0.12304000  0.82048000  1
  O  O230  1  0.12304000  0.86222000  0.82048000  1
  O  O231  1  0.86222000  0.19426000  0.82048000  1
  O  O232  1  0.17952000  0.37696000  0.80574000  1
  O  O233  1  0.63778000  0.17952000  0.80574000  1
  O  O234  1  0.37696000  0.63778000  0.80574000  1
  O  O235  1  0.61250000  0.75000000  0.75000000  1
  O  O236  1  0.88750000  0.61250000  0.75000000  1
  O  O237  1  0.38750000  0.11250000  0.75000000  1
  O  O238  1  0.75000000  0.88750000  0.75000000  1
  O  O239  1  0.11250000  0.75000000  0.75000000  1
  O  O240  1  0.75000000  0.38750000  0.75000000  1
  O  O241  1  0.12304000  0.32048000  0.69426000  1
  O  O242  1  0.86222000  0.12304000  0.69426000  1
  O  O243  1  0.32048000  0.86222000  0.69426000  1
  O  O244  1  0.37696000  0.30574000  0.67952000  1
  O  O245  1  0.30574000  0.63778000  0.67952000  1
  O  O246  1  0.63778000  0.37696000  0.67952000  1
  O  O247  1  0.80574000  0.67952000  0.63778000  1
  O  O248  1  0.67952000  0.87696000  0.63778000  1
  O  O249  1  0.87696000  0.80574000  0.63778000  1
  O  O250  1  0.32048000  0.19426000  0.62304000  1
  O  O251  1  0.19426000  0.86222000  0.62304000  1
  O  O252  1  0.86222000  0.32048000  0.62304000  1
  O  O253  1  0.25000000  0.38750000  0.61250000  1
  O  O254  1  0.75000000  0.25000000  0.61250000  1
  O  O255  1  0.38750000  0.75000000  0.61250000  1
  O  O256  1  0.04841000  0.41895000  0.60395000  1
  O  O257  1  0.92869000  0.04841000  0.60395000  1
  O  O258  1  0.41895000  0.92869000  0.60395000  1
  O  O259  1  0.45159000  0.39605000  0.58105000  1
  O  O260  1  0.39605000  0.57131000  0.58105000  1
  O  O261  1  0.57131000  0.45159000  0.58105000  1
  O  O262  1  0.89605000  0.58105000  0.57131000  1
  O  O263  1  0.58105000  0.95159000  0.57131000  1
  O  O264  1  0.95159000  0.89605000  0.57131000  1
  O  O265  1  0.41895000  0.10395000  0.54841000  1
  O  O266  1  0.10395000  0.92869000  0.54841000  1
  O  O267  1  0.92869000  0.41895000  0.54841000  1
  O  O268  1  0.07131000  0.58105000  0.45159000  1
  O  O269  1  0.89605000  0.07131000  0.45159000  1
  O  O270  1  0.58105000  0.89605000  0.45159000  1
  O  O271  1  0.04841000  0.10395000  0.42869000  1
  O  O272  1  0.41895000  0.04841000  0.42869000  1
  O  O273  1  0.10395000  0.41895000  0.42869000  1
  O  O274  1  0.42869000  0.54841000  0.41895000  1
  O  O275  1  0.60395000  0.42869000  0.41895000  1
  O  O276  1  0.54841000  0.60395000  0.41895000  1
  O  O277  1  0.58105000  0.07131000  0.39605000  1
  O  O278  1  0.07131000  0.95159000  0.39605000  1
  O  O279  1  0.95159000  0.58105000  0.39605000  1
  O  O280  1  0.61250000  0.25000000  0.38750000  1
  O  O281  1  0.25000000  0.75000000  0.38750000  1
  O  O282  1  0.75000000  0.61250000  0.38750000  1
  O  O283  1  0.13778000  0.67952000  0.37696000  1
  O  O284  1  0.80574000  0.13778000  0.37696000  1
  O  O285  1  0.67952000  0.80574000  0.37696000  1
  O  O286  1  0.12304000  0.19426000  0.36222000  1
  O  O287  1  0.32048000  0.12304000  0.36222000  1
  O  O288  1  0.19426000  0.32048000  0.36222000  1
  O  O289  1  0.36222000  0.62304000  0.32048000  1
  O  O290  1  0.69426000  0.36222000  0.32048000  1
  O  O291  1  0.62304000  0.69426000  0.32048000  1
  O  O292  1  0.67952000  0.13778000  0.30574000  1
  O  O293  1  0.13778000  0.87696000  0.30574000  1
  O  O294  1  0.87696000  0.67952000  0.30574000  1
  O  O295  1  0.25000000  0.61250000  0.25000000  1
  O  O296  1  0.88750000  0.25000000  0.25000000  1
  O  O297  1  0.25000000  0.11250000  0.25000000  1
  O  O298  1  0.61250000  0.88750000  0.25000000  1
  O  O299  1  0.11250000  0.38750000  0.25000000  1
  O  O300  1  0.38750000  0.25000000  0.25000000  1
  O  O301  1  0.62304000  0.36222000  0.19426000  1
  O  O302  1  0.36222000  0.82048000  0.19426000  1
  O  O303  1  0.82048000  0.62304000  0.19426000  1
  O  O304  1  0.13778000  0.80574000  0.17952000  1
  O  O305  1  0.87696000  0.13778000  0.17952000  1
  O  O306  1  0.80574000  0.87696000  0.17952000  1
  O  O307  1  0.17952000  0.30574000  0.13778000  1
  O  O308  1  0.37696000  0.17952000  0.13778000  1
  O  O309  1  0.30574000  0.37696000  0.13778000  1
  O  O310  1  0.36222000  0.69426000  0.12304000  1
  O  O311  1  0.82048000  0.36222000  0.12304000  1
  O  O312  1  0.69426000  0.82048000  0.12304000  1
  O  O313  1  0.75000000  0.25000000  0.11250000  1
  O  O314  1  0.25000000  0.88750000  0.11250000  1
  O  O315  1  0.88750000  0.75000000  0.11250000  1
  O  O316  1  0.54841000  0.42869000  0.10395000  1
  O  O317  1  0.42869000  0.91895000  0.10395000  1
  O  O318  1  0.91895000  0.54841000  0.10395000  1
  O  O319  1  0.07131000  0.89605000  0.08105000  1
  O  O320  1  0.95159000  0.07131000  0.08105000  1
  O  O321  1  0.89605000  0.95159000  0.08105000  1
  O  O322  1  0.08105000  0.39605000  0.07131000  1
  O  O323  1  0.45159000  0.08105000  0.07131000  1
  O  O324  1  0.39605000  0.45159000  0.07131000  1
  O  O325  1  0.42869000  0.60395000  0.04841000  1
  O  O326  1  0.91895000  0.42869000  0.04841000  1
  O  O327  1  0.60395000  0.91895000  0.04841000  1
