# generated using pymatgen
data_Co3H68C76(N7O9)2
_symmetry_space_group_name_H-M   'P 1'
_cell_length_a   11.40000000
_cell_length_b   18.65700000
_cell_length_c   24.38000000
_cell_angle_alpha   90.00000000
_cell_angle_beta   90.00000000
_cell_angle_gamma   90.00000000
_symmetry_Int_Tables_number   1
_chemical_formula_structural   Co3H68C76(N7O9)2
_chemical_formula_sum   'Co6 H136 C152 N28 O36'
_cell_volume   5185.37732400
_cell_formula_units_Z   2
loop_
 _symmetry_equiv_pos_site_id
 _symmetry_equiv_pos_as_xyz
  1  'x, y, z'
loop_
 _atom_site_type_symbol
 _atom_site_label
 _atom_site_symmetry_multiplicity
 _atom_site_fract_x
 _atom_site_fract_y
 _atom_site_fract_z
 _atom_site_occupancy
  Co  Co0  1  0.45986000  0.00000000  0.00000000  1
  Co  Co1  1  0.46481000  0.19972000  0.01869000  1
  Co  Co2  1  0.46481000  0.80028000  0.98131000  1
  Co  Co3  1  0.53519000  0.30028000  0.51869000  1
  Co  Co4  1  0.53519000  0.69972000  0.48131000  1
  Co  Co5  1  0.54014000  0.50000000  0.50000000  1
  H  H6  1  0.05220000  0.01680000  0.08110000  1
  H  H7  1  0.05220000  0.98320000  0.91890000  1
  H  H8  1  0.05270000  0.17870000  0.94050000  1
  H  H9  1  0.05270000  0.82130000  0.05950000  1
  H  H10  1  0.05610000  0.23420000  0.09980000  1
  H  H11  1  0.05610000  0.76580000  0.90020000  1
  H  H12  1  0.08240000  0.36100000  0.76630000  1
  H  H13  1  0.08240000  0.63900000  0.23370000  1
  H  H14  1  0.09240000  0.11120000  0.25640000  1
  H  H15  1  0.09240000  0.88880000  0.74360000  1
  H  H16  1  0.12150000  0.34210000  0.59400000  1
  H  H17  1  0.12150000  0.65790000  0.40600000  1
  H  H18  1  0.12750000  0.24070000  0.44860000  1
  H  H19  1  0.12750000  0.75930000  0.55140000  1
  H  H20  1  0.12760000  0.28420000  0.35320000  1
  H  H21  1  0.12760000  0.71580000  0.64680000  1
  H  H22  1  0.12830000  0.44150000  0.43060000  1
  H  H23  1  0.12830000  0.55850000  0.56940000  1
  H  H24  1  0.19080000  0.47090000  0.83870000  1
  H  H25  1  0.19080000  0.52910000  0.16130000  1
  H  H26  1  0.22550000  0.46450000  0.77600000  1
  H  H27  1  0.22550000  0.53550000  0.22400000  1
  H  H28  1  0.23640000  0.35240000  0.85390000  1
  H  H29  1  0.23640000  0.64760000  0.14610000  1
  H  H30  1  0.25090000  0.01800000  0.07920000  1
  H  H31  1  0.25090000  0.98200000  0.92080000  1
  H  H32  1  0.25190000  0.17250000  0.94370000  1
  H  H33  1  0.25190000  0.82750000  0.05630000  1
  H  H34  1  0.25890000  0.23100000  0.09740000  1
  H  H35  1  0.25890000  0.76900000  0.90260000  1
  H  H36  1  0.28110000  0.11040000  0.84270000  1
  H  H37  1  0.28110000  0.88960000  0.15730000  1
  H  H38  1  0.30880000  0.19360000  0.84300000  1
  H  H39  1  0.30880000  0.80640000  0.15700000  1
  H  H40  1  0.32140000  0.34610000  0.59130000  1
  H  H41  1  0.32140000  0.65390000  0.40870000  1
  H  H42  1  0.32360000  0.45910000  0.82180000  1
  H  H43  1  0.32360000  0.54090000  0.17820000  1
  H  H44  1  0.32820000  0.24500000  0.45130000  1
  H  H45  1  0.32820000  0.75500000  0.54870000  1
  H  H46  1  0.32910000  0.44330000  0.43300000  1
  H  H47  1  0.32910000  0.55670000  0.56700000  1
  H  H48  1  0.32990000  0.14800000  0.78910000  1
  H  H49  1  0.32990000  0.85200000  0.21090000  1
  H  H50  1  0.36600000  0.46610000  0.63610000  1
  H  H51  1  0.36600000  0.53390000  0.36390000  1
  H  H52  1  0.36710000  0.40460000  0.68090000  1
  H  H53  1  0.36710000  0.59540000  0.31910000  1
  H  H54  1  0.39190000  0.22500000  0.25090000  1
  H  H55  1  0.39190000  0.77500000  0.74910000  1
  H  H56  1  0.40610000  0.48340000  0.69680000  1
  H  H57  1  0.40610000  0.51660000  0.30320000  1
  H  H58  1  0.40970000  0.43620000  0.92370000  1
  H  H59  1  0.40970000  0.56380000  0.07630000  1
  H  H60  1  0.41750000  0.31460000  0.93380000  1
  H  H61  1  0.41750000  0.68540000  0.06620000  1
  H  H62  1  0.42440000  0.02540000  0.14500000  1
  H  H63  1  0.42440000  0.97460000  0.85500000  1
  H  H64  1  0.45240000  0.12320000  0.22470000  1
  H  H65  1  0.45240000  0.87680000  0.77530000  1
  H  H66  1  0.48500000  0.08560000  0.83130000  1
  H  H67  1  0.48500000  0.91440000  0.16870000  1
  H  H68  1  0.49380000  0.45480000  0.08240000  1
  H  H69  1  0.49380000  0.54520000  0.91760000  1
  H  H70  1  0.49490000  0.27210000  0.31480000  1
  H  H71  1  0.49490000  0.72790000  0.68520000  1
  H  H72  1  0.49880000  0.16710000  0.58640000  1
  H  H73  1  0.49880000  0.83290000  0.41360000  1
  H  H74  1  0.50120000  0.33290000  0.08640000  1
  H  H75  1  0.50120000  0.66710000  0.91360000  1
  H  H76  1  0.50510000  0.22790000  0.81480000  1
  H  H77  1  0.50510000  0.77210000  0.18520000  1
  H  H78  1  0.50620000  0.04520000  0.58240000  1
  H  H79  1  0.50620000  0.95480000  0.41760000  1
  H  H80  1  0.51500000  0.41440000  0.33130000  1
  H  H81  1  0.51500000  0.58560000  0.66870000  1
  H  H82  1  0.54760000  0.37680000  0.72470000  1
  H  H83  1  0.54760000  0.62320000  0.27530000  1
  H  H84  1  0.57560000  0.47460000  0.64500000  1
  H  H85  1  0.57560000  0.52540000  0.35500000  1
  H  H86  1  0.58250000  0.18540000  0.43380000  1
  H  H87  1  0.58250000  0.81460000  0.56620000  1
  H  H88  1  0.59030000  0.06380000  0.42370000  1
  H  H89  1  0.59030000  0.93620000  0.57630000  1
  H  H90  1  0.59390000  0.01660000  0.19680000  1
  H  H91  1  0.59390000  0.98340000  0.80320000  1
  H  H92  1  0.60810000  0.27500000  0.75090000  1
  H  H93  1  0.60810000  0.72500000  0.24910000  1
  H  H94  1  0.63290000  0.09540000  0.18090000  1
  H  H95  1  0.63290000  0.90460000  0.81910000  1
  H  H96  1  0.63400000  0.03390000  0.13610000  1
  H  H97  1  0.63400000  0.96610000  0.86390000  1
  H  H98  1  0.67010000  0.35200000  0.28910000  1
  H  H99  1  0.67010000  0.64800000  0.71090000  1
  H  H100  1  0.67090000  0.05670000  0.93300000  1
  H  H101  1  0.67090000  0.94330000  0.06700000  1
  H  H102  1  0.67180000  0.25500000  0.95130000  1
  H  H103  1  0.67180000  0.74500000  0.04870000  1
  H  H104  1  0.67640000  0.04090000  0.32180000  1
  H  H105  1  0.67640000  0.95910000  0.67820000  1
  H  H106  1  0.67860000  0.15390000  0.09130000  1
  H  H107  1  0.67860000  0.84610000  0.90870000  1
  H  H108  1  0.69120000  0.30640000  0.34300000  1
  H  H109  1  0.69120000  0.69360000  0.65700000  1
  H  H110  1  0.71890000  0.38960000  0.34270000  1
  H  H111  1  0.71890000  0.61040000  0.65730000  1
  H  H112  1  0.74110000  0.26900000  0.59740000  1
  H  H113  1  0.74110000  0.73100000  0.40260000  1
  H  H114  1  0.74810000  0.32750000  0.44370000  1
  H  H115  1  0.74810000  0.67250000  0.55630000  1
  H  H116  1  0.74910000  0.48200000  0.57920000  1
  H  H117  1  0.74910000  0.51800000  0.42080000  1
  H  H118  1  0.76360000  0.14760000  0.35390000  1
  H  H119  1  0.76360000  0.85240000  0.64610000  1
  H  H120  1  0.77450000  0.03550000  0.27600000  1
  H  H121  1  0.77450000  0.96450000  0.72400000  1
  H  H122  1  0.80920000  0.02910000  0.33870000  1
  H  H123  1  0.80920000  0.97090000  0.66130000  1
  H  H124  1  0.87170000  0.05850000  0.93060000  1
  H  H125  1  0.87170000  0.94150000  0.06940000  1
  H  H126  1  0.87240000  0.21580000  0.85320000  1
  H  H127  1  0.87240000  0.78420000  0.14680000  1
  H  H128  1  0.87250000  0.25930000  0.94860000  1
  H  H129  1  0.87250000  0.74070000  0.05140000  1
  H  H130  1  0.87850000  0.15790000  0.09400000  1
  H  H131  1  0.87850000  0.84210000  0.90600000  1
  H  H132  1  0.90760000  0.38880000  0.75640000  1
  H  H133  1  0.90760000  0.61120000  0.24360000  1
  H  H134  1  0.91760000  0.13900000  0.26630000  1
  H  H135  1  0.91760000  0.86100000  0.73370000  1
  H  H136  1  0.94390000  0.26580000  0.59980000  1
  H  H137  1  0.94390000  0.73420000  0.40020000  1
  H  H138  1  0.94730000  0.32130000  0.44050000  1
  H  H139  1  0.94730000  0.67870000  0.55950000  1
  H  H140  1  0.94780000  0.48320000  0.58110000  1
  H  H141  1  0.94780000  0.51680000  0.41890000  1
  C  C142  1  0.02520000  0.00000000  0.00000000  1
  C  C143  1  0.02640000  0.31650000  0.83090000  1
  C  C144  1  0.02640000  0.68350000  0.16910000  1
  C  C145  1  0.03000000  0.20630000  0.02070000  1
  C  C146  1  0.03000000  0.79370000  0.97930000  1
  C  C147  1  0.09100000  0.01000000  0.04750000  1
  C  C148  1  0.09100000  0.99000000  0.95250000  1
  C  C149  1  0.09240000  0.18850000  0.97350000  1
  C  C150  1  0.09240000  0.81150000  0.02650000  1
  C  C151  1  0.09300000  0.19520000  0.30760000  1
  C  C152  1  0.09300000  0.80480000  0.69240000  1
  C  C153  1  0.09460000  0.22180000  0.06710000  1
  C  C154  1  0.09460000  0.77820000  0.93290000  1
  C  C155  1  0.10000000  0.29390000  0.52030000  1
  C  C156  1  0.10000000  0.70610000  0.47970000  1
  C  C157  1  0.10360000  0.50000000  0.50000000  1
  C  C158  1  0.13760000  0.15020000  0.26860000  1
  C  C159  1  0.13760000  0.84980000  0.73140000  1
  C  C160  1  0.15950000  0.25240000  0.32720000  1
  C  C161  1  0.15950000  0.74760000  0.67280000  1
  C  C162  1  0.16160000  0.32320000  0.56360000  1
  C  C163  1  0.16160000  0.67680000  0.43640000  1
  C  C164  1  0.16540000  0.26320000  0.47820000  1
  C  C165  1  0.16540000  0.73680000  0.52180000  1
  C  C166  1  0.16720000  0.46560000  0.45920000  1
  C  C167  1  0.16720000  0.53440000  0.54080000  1
  C  C168  1  0.21000000  0.01030000  0.04630000  1
  C  C169  1  0.21000000  0.98970000  0.95370000  1
  C  C170  1  0.21160000  0.18560000  0.97580000  1
  C  C171  1  0.21160000  0.81440000  0.02420000  1
  C  C172  1  0.21640000  0.21900000  0.06560000  1
  C  C173  1  0.21640000  0.78100000  0.93440000  1
  C  C174  1  0.22540000  0.36750000  0.81530000  1
  C  C175  1  0.22540000  0.63250000  0.18470000  1
  C  C176  1  0.24290000  0.44770000  0.81270000  1
  C  C177  1  0.24290000  0.55230000  0.18730000  1
  C  C178  1  0.24790000  0.16120000  0.24700000  1
  C  C179  1  0.24790000  0.83880000  0.75300000  1
  C  C180  1  0.27440000  0.26220000  0.30790000  1
  C  C181  1  0.27440000  0.73780000  0.69210000  1
  C  C182  1  0.28190000  0.32450000  0.56180000  1
  C  C183  1  0.28190000  0.67550000  0.43820000  1
  C  C184  1  0.28590000  0.26600000  0.48020000  1
  C  C185  1  0.28590000  0.73400000  0.51980000  1
  C  C186  1  0.28800000  0.46710000  0.46110000  1
  C  C187  1  0.28800000  0.53290000  0.53890000  1
  C  C188  1  0.29420000  0.11460000  0.20170000  1
  C  C189  1  0.29420000  0.88540000  0.79830000  1
  C  C190  1  0.31490000  0.32790000  0.78070000  1
  C  C191  1  0.31490000  0.67210000  0.21930000  1
  C  C192  1  0.31710000  0.21710000  0.26590000  1
  C  C193  1  0.31710000  0.78290000  0.73410000  1
  C  C194  1  0.33310000  0.14730000  0.82890000  1
  C  C195  1  0.33310000  0.85270000  0.17110000  1
  C  C196  1  0.34780000  0.32080000  0.33110000  1
  C  C197  1  0.34780000  0.67920000  0.66890000  1
  C  C198  1  0.40650000  0.44750000  0.66800000  1
  C  C199  1  0.40650000  0.55250000  0.33200000  1
  C  C200  1  0.42780000  0.41640000  0.95810000  1
  C  C201  1  0.42780000  0.58360000  0.04190000  1
  C  C202  1  0.43330000  0.34350000  0.96460000  1
  C  C203  1  0.43330000  0.65650000  0.03540000  1
  C  C204  1  0.44910000  0.46040000  0.00240000  1
  C  C205  1  0.44910000  0.53960000  0.99760000  1
  C  C206  1  0.45900000  0.13160000  0.84750000  1
  C  C207  1  0.45900000  0.86840000  0.15250000  1
  C  C208  1  0.46220000  0.11750000  0.10150000  1
  C  C209  1  0.46220000  0.88250000  0.89850000  1
  C  C210  1  0.46330000  0.12590000  0.91020000  1
  C  C211  1  0.46330000  0.87410000  0.08980000  1
  C  C212  1  0.46660000  0.07060000  0.15270000  1
  C  C213  1  0.46660000  0.92940000  0.84730000  1
  C  C214  1  0.47730000  0.42750000  0.05090000  1
  C  C215  1  0.47730000  0.57250000  0.94910000  1
  C  C216  1  0.48120000  0.35440000  0.05280000  1
  C  C217  1  0.48120000  0.64560000  0.94720000  1
  C  C218  1  0.51880000  0.14560000  0.55280000  1
  C  C219  1  0.51880000  0.85440000  0.44720000  1
  C  C220  1  0.52270000  0.07250000  0.55090000  1
  C  C221  1  0.52270000  0.92750000  0.44910000  1
  C  C222  1  0.53340000  0.42940000  0.65270000  1
  C  C223  1  0.53340000  0.57060000  0.34730000  1
  C  C224  1  0.53670000  0.37410000  0.41020000  1
  C  C225  1  0.53670000  0.62590000  0.58980000  1
  C  C226  1  0.53780000  0.38250000  0.60150000  1
  C  C227  1  0.53780000  0.61750000  0.39850000  1
  C  C228  1  0.54100000  0.36840000  0.34750000  1
  C  C229  1  0.54100000  0.63160000  0.65250000  1
  C  C230  1  0.55090000  0.03960000  0.50240000  1
  C  C231  1  0.55090000  0.96040000  0.49760000  1
  C  C232  1  0.56670000  0.15650000  0.46460000  1
  C  C233  1  0.56670000  0.84350000  0.53540000  1
  C  C234  1  0.57220000  0.08360000  0.45810000  1
  C  C235  1  0.57220000  0.91640000  0.54190000  1
  C  C236  1  0.59350000  0.05250000  0.16800000  1
  C  C237  1  0.59350000  0.94750000  0.83200000  1
  C  C238  1  0.65220000  0.17920000  0.83110000  1
  C  C239  1  0.65220000  0.82080000  0.16890000  1
  C  C240  1  0.66690000  0.35270000  0.32890000  1
  C  C241  1  0.66690000  0.64730000  0.67110000  1
  C  C242  1  0.68290000  0.28290000  0.76590000  1
  C  C243  1  0.68290000  0.71710000  0.23410000  1
  C  C244  1  0.68510000  0.17210000  0.28070000  1
  C  C245  1  0.68510000  0.82790000  0.71930000  1
  C  C246  1  0.70580000  0.38540000  0.70170000  1
  C  C247  1  0.70580000  0.61460000  0.29830000  1
  C  C248  1  0.71200000  0.03290000  0.96110000  1
  C  C249  1  0.71200000  0.96710000  0.03890000  1
  C  C250  1  0.71410000  0.23400000  0.98020000  1
  C  C251  1  0.71410000  0.76600000  0.01980000  1
  C  C252  1  0.71810000  0.17550000  0.06180000  1
  C  C253  1  0.71810000  0.82450000  0.93820000  1
  C  C254  1  0.72560000  0.23780000  0.80790000  1
  C  C255  1  0.72560000  0.76220000  0.19210000  1
  C  C256  1  0.75210000  0.33880000  0.74700000  1
  C  C257  1  0.75210000  0.66120000  0.25300000  1
  C  C258  1  0.75710000  0.05230000  0.31270000  1
  C  C259  1  0.75710000  0.94770000  0.68730000  1
  C  C260  1  0.77460000  0.13250000  0.31530000  1
  C  C261  1  0.77460000  0.86750000  0.68470000  1
  C  C262  1  0.78360000  0.28100000  0.56560000  1
  C  C263  1  0.78360000  0.71900000  0.43440000  1
  C  C264  1  0.78840000  0.31440000  0.47580000  1
  C  C265  1  0.78840000  0.68560000  0.52420000  1
  C  C266  1  0.79000000  0.48970000  0.54630000  1
  C  C267  1  0.79000000  0.51030000  0.45370000  1
  C  C268  1  0.83280000  0.03440000  0.95920000  1
  C  C269  1  0.83280000  0.96560000  0.04080000  1
  C  C270  1  0.83460000  0.23680000  0.97820000  1
  C  C271  1  0.83460000  0.76320000  0.02180000  1
  C  C272  1  0.83840000  0.17680000  0.06360000  1
  C  C273  1  0.83840000  0.82320000  0.93640000  1
  C  C274  1  0.84050000  0.24760000  0.82720000  1
  C  C275  1  0.84050000  0.75240000  0.17280000  1
  C  C276  1  0.86240000  0.34980000  0.76860000  1
  C  C277  1  0.86240000  0.65020000  0.23140000  1
  C  C278  1  0.89640000  0.00000000  0.00000000  1
  C  C279  1  0.90000000  0.20610000  0.02030000  1
  C  C280  1  0.90000000  0.79390000  0.97970000  1
  C  C281  1  0.90540000  0.27820000  0.56710000  1
  C  C282  1  0.90540000  0.72180000  0.43290000  1
  C  C283  1  0.90700000  0.30480000  0.80760000  1
  C  C284  1  0.90700000  0.69520000  0.19240000  1
  C  C285  1  0.90760000  0.31150000  0.47350000  1
  C  C286  1  0.90760000  0.68850000  0.52650000  1
  C  C287  1  0.90900000  0.49000000  0.54750000  1
  C  C288  1  0.90900000  0.51000000  0.45250000  1
  C  C289  1  0.97000000  0.29370000  0.52070000  1
  C  C290  1  0.97000000  0.70630000  0.47930000  1
  C  C291  1  0.97360000  0.18350000  0.33090000  1
  C  C292  1  0.97360000  0.81650000  0.66910000  1
  C  C293  1  0.97480000  0.50000000  0.50000000  1
  N  N294  1  0.10450000  0.34930000  0.79930000  1
  N  N295  1  0.10450000  0.65070000  0.20070000  1
  N  N296  1  0.27190000  0.00000000  0.00000000  1
  N  N297  1  0.27500000  0.20000000  0.02030000  1
  N  N298  1  0.27500000  0.80000000  0.97970000  1
  N  N299  1  0.34730000  0.29720000  0.52110000  1
  N  N300  1  0.34730000  0.70280000  0.47890000  1
  N  N301  1  0.35110000  0.50000000  0.50000000  1
  N  N302  1  0.40900000  0.10640000  0.19830000  1
  N  N303  1  0.40900000  0.89360000  0.80170000  1
  N  N304  1  0.45910000  0.31140000  0.01096000  1
  N  N305  1  0.45910000  0.68860000  0.98904000  1
  N  N306  1  0.46540000  0.31150000  0.32809000  1
  N  N307  1  0.46540000  0.68850000  0.67191000  1
  N  N308  1  0.53460000  0.18850000  0.82809000  1
  N  N309  1  0.53460000  0.81150000  0.17191000  1
  N  N310  1  0.54090000  0.18860000  0.51096000  1
  N  N311  1  0.54090000  0.81140000  0.48904000  1
  N  N312  1  0.59100000  0.39360000  0.69830000  1
  N  N313  1  0.59100000  0.60640000  0.30170000  1
  N  N314  1  0.64890000  0.00000000  0.00000000  1
  N  N315  1  0.65270000  0.20280000  0.02110000  1
  N  N316  1  0.65270000  0.79720000  0.97890000  1
  N  N317  1  0.72500000  0.30000000  0.52030000  1
  N  N318  1  0.72500000  0.70000000  0.47970000  1
  N  N319  1  0.72810000  0.50000000  0.50000000  1
  N  N320  1  0.89550000  0.15070000  0.29930000  1
  N  N321  1  0.89550000  0.84930000  0.70070000  1
  O  O322  1  0.05090000  0.29890000  0.87890000  1
  O  O323  1  0.05090000  0.70110000  0.12110000  1
  O  O324  1  0.22640000  0.08690000  0.16760000  1
  O  O325  1  0.22640000  0.91310000  0.83240000  1
  O  O326  1  0.28010000  0.29370000  0.73980000  1
  O  O327  1  0.28010000  0.70630000  0.26020000  1
  O  O328  1  0.30420000  0.37390000  0.35170000  1
  O  O329  1  0.30420000  0.62610000  0.64830000  1
  O  O330  1  0.42130000  0.33450000  0.79460000  1
  O  O331  1  0.42130000  0.66550000  0.20540000  1
  O  O332  1  0.45290000  0.06370000  0.93018000  1
  O  O333  1  0.45290000  0.93630000  0.06982000  1
  O  O334  1  0.46170000  0.18570000  0.10640000  1
  O  O335  1  0.46170000  0.81430000  0.89360000  1
  O  O336  1  0.46440000  0.09072000  0.05372000  1
  O  O337  1  0.46440000  0.90928000  0.94628000  1
  O  O338  1  0.47130000  0.18320000  0.93724000  1
  O  O339  1  0.47130000  0.81680000  0.06276000  1
  O  O340  1  0.52870000  0.31680000  0.43724000  1
  O  O341  1  0.52870000  0.68320000  0.56276000  1
  O  O342  1  0.53560000  0.40928000  0.55372000  1
  O  O343  1  0.53560000  0.59072000  0.44628000  1
  O  O344  1  0.53830000  0.31430000  0.60640000  1
  O  O345  1  0.53830000  0.68570000  0.39360000  1
  O  O346  1  0.54710000  0.43630000  0.43018000  1
  O  O347  1  0.54710000  0.56370000  0.56982000  1
  O  O348  1  0.57870000  0.16550000  0.29460000  1
  O  O349  1  0.57870000  0.83450000  0.70540000  1
  O  O350  1  0.69580000  0.12610000  0.85170000  1
  O  O351  1  0.69580000  0.87390000  0.14830000  1
  O  O352  1  0.71990000  0.20630000  0.23980000  1
  O  O353  1  0.71990000  0.79370000  0.76020000  1
  O  O354  1  0.77360000  0.41310000  0.66760000  1
  O  O355  1  0.77360000  0.58690000  0.33240000  1
  O  O356  1  0.94910000  0.20110000  0.37890000  1
  O  O357  1  0.94910000  0.79890000  0.62110000  1
