# generated using pymatgen
data_SrH6(C3O)4
_symmetry_space_group_name_H-M   'P 1'
_cell_length_a   6.88830000
_cell_length_b   14.70740000
_cell_length_c   14.98100000
_cell_angle_alpha   90.00000000
_cell_angle_beta   90.00000000
_cell_angle_gamma   90.00000000
_symmetry_Int_Tables_number   1
_chemical_formula_structural   SrH6(C3O)4
_chemical_formula_sum   'Sr4 H24 C48 O16'
_cell_volume   1517.70988062
_cell_formula_units_Z   4
loop_
 _symmetry_equiv_pos_site_id
 _symmetry_equiv_pos_as_xyz
  1  'x, y, z'
loop_
 _atom_site_type_symbol
 _atom_site_label
 _atom_site_symmetry_multiplicity
 _atom_site_fract_x
 _atom_site_fract_y
 _atom_site_fract_z
 _atom_site_occupancy
  Sr  Sr0  1  0.14462000  0.80768000  0.95336000  1
  Sr  Sr1  1  0.35538000  0.19232000  0.45336000  1
  Sr  Sr2  1  0.64462000  0.69232000  0.04664000  1
  Sr  Sr3  1  0.85538000  0.30768000  0.54664000  1
  H  H4  1  0.10570000  0.23180000  0.05880000  1
  H  H5  1  0.10690000  0.54700000  0.36020000  1
  H  H6  1  0.10890000  0.34220000  0.94880000  1
  H  H7  1  0.11110000  0.27200000  0.20620000  1
  H  H8  1  0.12390000  0.49230000  0.98560000  1
  H  H9  1  0.15550000  0.65570000  0.24840000  1
  H  H10  1  0.34450000  0.34430000  0.74840000  1
  H  H11  1  0.37610000  0.50770000  0.48560000  1
  H  H12  1  0.38890000  0.72800000  0.70620000  1
  H  H13  1  0.39110000  0.65780000  0.44880000  1
  H  H14  1  0.39310000  0.45300000  0.86020000  1
  H  H15  1  0.39430000  0.76820000  0.55880000  1
  H  H16  1  0.60570000  0.26820000  0.94120000  1
  H  H17  1  0.60690000  0.95300000  0.63980000  1
  H  H18  1  0.60890000  0.15780000  0.05120000  1
  H  H19  1  0.61110000  0.22800000  0.79380000  1
  H  H20  1  0.62390000  0.00770000  0.01440000  1
  H  H21  1  0.65550000  0.84430000  0.75160000  1
  H  H22  1  0.84450000  0.15570000  0.25160000  1
  H  H23  1  0.87610000  0.99230000  0.51440000  1
  H  H24  1  0.88890000  0.77200000  0.29380000  1
  H  H25  1  0.89110000  0.84220000  0.55120000  1
  H  H26  1  0.89310000  0.04700000  0.13980000  1
  H  H27  1  0.89430000  0.73180000  0.44120000  1
  C  C28  1  0.09030000  0.37290000  0.35820000  1
  C  C29  1  0.10700000  0.43870000  0.28000000  1
  C  C30  1  0.10930000  0.29290000  0.07460000  1
  C  C31  1  0.11170000  0.31700000  0.16260000  1
  C  C32  1  0.11210000  0.35920000  0.00860000  1
  C  C33  1  0.11520000  0.40980000  0.18850000  1
  C  C34  1  0.11570000  0.52890000  0.30080000  1
  C  C35  1  0.11960000  0.44890000  0.03070000  1
  C  C36  1  0.12090000  0.47788000  0.12154000  1
  C  C37  1  0.13420000  0.57018000  0.14506000  1
  C  C38  1  0.13810000  0.59500000  0.23300000  1
  C  C39  1  0.14200000  0.64592000  0.07664000  1
  C  C40  1  0.35800000  0.35408000  0.57664000  1
  C  C41  1  0.36190000  0.40500000  0.73300000  1
  C  C42  1  0.36580000  0.42982000  0.64506000  1
  C  C43  1  0.37910000  0.52212000  0.62154000  1
  C  C44  1  0.38040000  0.55110000  0.53070000  1
  C  C45  1  0.38430000  0.47110000  0.80080000  1
  C  C46  1  0.38480000  0.59020000  0.68850000  1
  C  C47  1  0.38790000  0.64080000  0.50860000  1
  C  C48  1  0.38830000  0.68300000  0.66260000  1
  C  C49  1  0.39070000  0.70710000  0.57460000  1
  C  C50  1  0.39300000  0.56130000  0.78000000  1
  C  C51  1  0.40970000  0.62710000  0.85820000  1
  C  C52  1  0.59030000  0.12710000  0.64180000  1
  C  C53  1  0.60700000  0.06130000  0.72000000  1
  C  C54  1  0.60930000  0.20710000  0.92540000  1
  C  C55  1  0.61170000  0.18300000  0.83740000  1
  C  C56  1  0.61210000  0.14080000  0.99140000  1
  C  C57  1  0.61520000  0.09020000  0.81150000  1
  C  C58  1  0.61570000  0.97110000  0.69920000  1
  C  C59  1  0.61960000  0.05110000  0.96930000  1
  C  C60  1  0.62090000  0.02212000  0.87846000  1
  C  C61  1  0.63420000  0.92982000  0.85494000  1
  C  C62  1  0.63810000  0.90500000  0.76700000  1
  C  C63  1  0.64200000  0.85408000  0.92336000  1
  C  C64  1  0.85800000  0.14592000  0.42336000  1
  C  C65  1  0.86190000  0.09500000  0.26700000  1
  C  C66  1  0.86580000  0.07018000  0.35494000  1
  C  C67  1  0.87910000  0.97788000  0.37846000  1
  C  C68  1  0.88040000  0.94890000  0.46930000  1
  C  C69  1  0.88430000  0.02890000  0.19920000  1
  C  C70  1  0.88480000  0.90980000  0.31150000  1
  C  C71  1  0.88790000  0.85920000  0.49140000  1
  C  C72  1  0.88830000  0.81700000  0.33740000  1
  C  C73  1  0.89070000  0.79290000  0.42540000  1
  C  C74  1  0.89300000  0.93870000  0.22000000  1
  C  C75  1  0.90970000  0.87290000  0.14180000  1
  O  O76  1  0.00490000  0.65251000  0.02122000  1
  O  O77  1  0.01380000  0.89820000  0.07890000  1
  O  O78  1  0.18370000  0.29970000  0.35500000  1
  O  O79  1  0.21910000  0.29965000  0.58034000  1
  O  O80  1  0.28090000  0.70035000  0.08034000  1
  O  O81  1  0.31630000  0.70030000  0.85500000  1
  O  O82  1  0.48620000  0.10180000  0.57890000  1
  O  O83  1  0.49510000  0.34749000  0.52122000  1
  O  O84  1  0.50490000  0.84749000  0.97878000  1
  O  O85  1  0.51380000  0.60180000  0.92110000  1
  O  O86  1  0.68370000  0.20030000  0.64500000  1
  O  O87  1  0.71910000  0.20035000  0.41966000  1
  O  O88  1  0.78090000  0.79965000  0.91966000  1
  O  O89  1  0.81630000  0.79970000  0.14500000  1
  O  O90  1  0.98620000  0.39820000  0.42110000  1
  O  O91  1  0.99510000  0.15251000  0.47878000  1
