# generated using pymatgen
data_Sm2H36(C17O4)3
_symmetry_space_group_name_H-M   'P 1'
_cell_length_a   11.40870000
_cell_length_b   13.65840000
_cell_length_c   24.02300000
_cell_angle_alpha   93.17100000
_cell_angle_beta   103.62700000
_cell_angle_gamma   112.67100000
_symmetry_Int_Tables_number   1
_chemical_formula_structural   Sm2H36(C17O4)3
_chemical_formula_sum   'Sm4 H72 C102 O24'
_cell_volume   3312.03573158
_cell_formula_units_Z   2
loop_
 _symmetry_equiv_pos_site_id
 _symmetry_equiv_pos_as_xyz
  1  'x, y, z'
loop_
 _atom_site_type_symbol
 _atom_site_label
 _atom_site_symmetry_multiplicity
 _atom_site_fract_x
 _atom_site_fract_y
 _atom_site_fract_z
 _atom_site_occupancy
  Sm  Sm0  1  0.35302000  0.40226000  0.03794000  1
  Sm  Sm1  1  0.37573000  0.29807000  0.51771000  1
  Sm  Sm2  1  0.62427000  0.70193000  0.48229000  1
  Sm  Sm3  1  0.64698000  0.59774000  0.96206000  1
  H  H4  1  0.03120000  0.11960000  0.20960000  1
  H  H5  1  0.03350000  0.91030000  0.16830000  1
  H  H6  1  0.04470000  0.39730000  0.86080000  1
  H  H7  1  0.05620000  0.87310000  0.22970000  1
  H  H8  1  0.05870000  0.01940000  0.56090000  1
  H  H9  1  0.06970000  0.72420000  0.69670000  1
  H  H10  1  0.07520000  0.95530000  0.84650000  1
  H  H11  1  0.08620000  0.68000000  0.28880000  1
  H  H12  1  0.10610000  0.30560000  0.38310000  1
  H  H13  1  0.11830000  0.91760000  0.79440000  1
  H  H14  1  0.12960000  0.72690000  0.23470000  1
  H  H15  1  0.13390000  0.99290000  0.22330000  1
  H  H16  1  0.13530000  0.10310000  0.32130000  1
  H  H17  1  0.21190000  0.62610000  0.17110000  1
  H  H18  1  0.21980000  0.51870000  0.18790000  1
  H  H19  1  0.22140000  0.16630000  0.88610000  1
  H  H20  1  0.23140000  0.14770000  0.63470000  1
  H  H21  1  0.23470000  0.72500000  0.28980000  1
  H  H22  1  0.25250000  0.70980000  0.78870000  1
  H  H23  1  0.30390000  0.89130000  0.19810000  1
  H  H24  1  0.31470000  0.62830000  0.22830000  1
  H  H25  1  0.31860000  0.88680000  0.74150000  1
  H  H26  1  0.32220000  0.58110000  0.33620000  1
  H  H27  1  0.34670000  0.33450000  0.24220000  1
  H  H28  1  0.34800000  0.00780000  0.75990000  1
  H  H29  1  0.36740000  0.66090000  0.86720000  1
  H  H30  1  0.36910000  0.24680000  0.32150000  1
  H  H31  1  0.37520000  0.93850000  0.80780000  1
  H  H32  1  0.38320000  0.93460000  0.15270000  1
  H  H33  1  0.40550000  0.27190000  0.73360000  1
  H  H34  1  0.41250000  0.11590000  0.39880000  1
  H  H35  1  0.41990000  0.85940000  0.19450000  1
  H  H36  1  0.43500000  0.13440000  0.14990000  1
  H  H37  1  0.46470000  0.99310000  0.44960000  1
  H  H38  1  0.47090000  0.12990000  0.69010000  1
  H  H39  1  0.48250000  0.63740000  0.17180000  1
  H  H40  1  0.51750000  0.36260000  0.82820000  1
  H  H41  1  0.52910000  0.87010000  0.30990000  1
  H  H42  1  0.53530000  0.00690000  0.55040000  1
  H  H43  1  0.56500000  0.86560000  0.85010000  1
  H  H44  1  0.58010000  0.14060000  0.80550000  1
  H  H45  1  0.58750000  0.88410000  0.60120000  1
  H  H46  1  0.59450000  0.72810000  0.26640000  1
  H  H47  1  0.61680000  0.06540000  0.84730000  1
  H  H48  1  0.62480000  0.06150000  0.19220000  1
  H  H49  1  0.63090000  0.75320000  0.67850000  1
  H  H50  1  0.63260000  0.33910000  0.13280000  1
  H  H51  1  0.65200000  0.99220000  0.24010000  1
  H  H52  1  0.65330000  0.66550000  0.75780000  1
  H  H53  1  0.67780000  0.41890000  0.66380000  1
  H  H54  1  0.68140000  0.11320000  0.25850000  1
  H  H55  1  0.68530000  0.37170000  0.77170000  1
  H  H56  1  0.69610000  0.10870000  0.80190000  1
  H  H57  1  0.74750000  0.29020000  0.21130000  1
  H  H58  1  0.76530000  0.27500000  0.71020000  1
  H  H59  1  0.76860000  0.85230000  0.36530000  1
  H  H60  1  0.77860000  0.83370000  0.11390000  1
  H  H61  1  0.78020000  0.48130000  0.81210000  1
  H  H62  1  0.78810000  0.37390000  0.82890000  1
  H  H63  1  0.86470000  0.89690000  0.67870000  1
  H  H64  1  0.86610000  0.00710000  0.77670000  1
  H  H65  1  0.87040000  0.27310000  0.76530000  1
  H  H66  1  0.88170000  0.08240000  0.20560000  1
  H  H67  1  0.89390000  0.69440000  0.61690000  1
  H  H68  1  0.91380000  0.32000000  0.71120000  1
  H  H69  1  0.92480000  0.04470000  0.15350000  1
  H  H70  1  0.93030000  0.27580000  0.30330000  1
  H  H71  1  0.94130000  0.98060000  0.43910000  1
  H  H72  1  0.94380000  0.12690000  0.77030000  1
  H  H73  1  0.95530000  0.60270000  0.13920000  1
  H  H74  1  0.96650000  0.08970000  0.83170000  1
  H  H75  1  0.96880000  0.88040000  0.79040000  1
  C  C76  1  0.00810000  0.33770000  0.31050000  1
  C  C77  1  0.01430000  0.48590000  0.79840000  1
  C  C78  1  0.02070000  0.41420000  0.27340000  1
  C  C79  1  0.04390000  0.02280000  0.71280000  1
  C  C80  1  0.05160000  0.93140000  0.20960000  1
  C  C81  1  0.05220000  0.05240000  0.38740000  1
  C  C82  1  0.05400000  0.93850000  0.80470000  1
  C  C83  1  0.05500000  0.02070000  0.59920000  1
  C  C84  1  0.05730000  0.03940000  0.77820000  1
  C  C85  1  0.06190000  0.05370000  0.33010000  1
  C  C86  1  0.07620000  0.57920000  0.77740000  1
  C  C87  1  0.08540000  0.45910000  0.84590000  1
  C  C88  1  0.11330000  0.35580000  0.35800000  1
  C  C89  1  0.12610000  0.57620000  0.23830000  1
  C  C90  1  0.14000000  0.50580000  0.28390000  1
  C  C91  1  0.14620000  0.68730000  0.26560000  1
  C  C92  1  0.15220000  0.09750000  0.69970000  1
  C  C93  1  0.15860000  0.09720000  0.64340000  1
  C  C94  1  0.16410000  0.13650000  0.43410000  1
  C  C95  1  0.19250000  0.13370000  0.80010000  1
  C  C96  1  0.21100000  0.64740000  0.80290000  1
  C  C97  1  0.21650000  0.52510000  0.87050000  1
  C  C98  1  0.22770000  0.58830000  0.20300000  1
  C  C99  1  0.22970000  0.44770000  0.36900000  1
  C  C100  1  0.24260000  0.52130000  0.33010000  1
  C  C101  1  0.24420000  0.16670000  0.75380000  1
  C  C102  1  0.25820000  0.18730000  0.85580000  1
  C  C103  1  0.27850000  0.61780000  0.84950000  1
  C  C104  1  0.29300000  0.49560000  0.92290000  1
  C  C105  1  0.34140000  0.47070000  0.42160000  1
  C  C106  1  0.36830000  0.25160000  0.76400000  1
  C  C107  1  0.36910000  0.27610000  0.23930000  1
  C  C108  1  0.37440000  0.30030000  0.13690000  1
  C  C109  1  0.37650000  0.95130000  0.76860000  1
  C  C110  1  0.38210000  0.27450000  0.86620000  1
  C  C111  1  0.38350000  0.22470000  0.28740000  1
  C  C112  1  0.38660000  0.24440000  0.18850000  1
  C  C113  1  0.38900000  0.91570000  0.19120000  1
  C  C114  1  0.42010000  0.13920000  0.28250000  1
  C  C115  1  0.42330000  0.15740000  0.18450000  1
  C  C116  1  0.43540000  0.30520000  0.82080000  1
  C  C117  1  0.43640000  0.06720000  0.38100000  1
  C  C118  1  0.44080000  0.06850000  0.32440000  1
  C  C119  1  0.44170000  0.10690000  0.23090000  1
  C  C120  1  0.45190000  0.33520000  0.92650000  1
  C  C121  1  0.46360000  0.16210000  0.58190000  1
  C  C122  1  0.46750000  0.99390000  0.41130000  1
  C  C123  1  0.48010000  0.99690000  0.29780000  1
  C  C124  1  0.48400000  0.01370000  0.23690000  1
  C  C125  1  0.49220000  0.07960000  0.67210000  1
  C  C126  1  0.49680000  0.07950000  0.61550000  1
  C  C127  1  0.50320000  0.92050000  0.38450000  1
  C  C128  1  0.50780000  0.92040000  0.32790000  1
  C  C129  1  0.51600000  0.98630000  0.76310000  1
  C  C130  1  0.51990000  0.00310000  0.70220000  1
  C  C131  1  0.53250000  0.00610000  0.58870000  1
  C  C132  1  0.53640000  0.83790000  0.41810000  1
  C  C133  1  0.54810000  0.66480000  0.07350000  1
  C  C134  1  0.55830000  0.89310000  0.76910000  1
  C  C135  1  0.55920000  0.93150000  0.67560000  1
  C  C136  1  0.56360000  0.93280000  0.61900000  1
  C  C137  1  0.56460000  0.69480000  0.17920000  1
  C  C138  1  0.57670000  0.84260000  0.81550000  1
  C  C139  1  0.57990000  0.86080000  0.71750000  1
  C  C140  1  0.61100000  0.08430000  0.80880000  1
  C  C141  1  0.61340000  0.75560000  0.81150000  1
  C  C142  1  0.61650000  0.77530000  0.71260000  1
  C  C143  1  0.61790000  0.72550000  0.13380000  1
  C  C144  1  0.62350000  0.04870000  0.23140000  1
  C  C145  1  0.62560000  0.69970000  0.86310000  1
  C  C146  1  0.63090000  0.72390000  0.76070000  1
  C  C147  1  0.63170000  0.74840000  0.23600000  1
  C  C148  1  0.65860000  0.52930000  0.57840000  1
  C  C149  1  0.70700000  0.50440000  0.07710000  1
  C  C150  1  0.72150000  0.38220000  0.15050000  1
  C  C151  1  0.74180000  0.81270000  0.14420000  1
  C  C152  1  0.75580000  0.83330000  0.24620000  1
  C  C153  1  0.75740000  0.47870000  0.66990000  1
  C  C154  1  0.77030000  0.55230000  0.63100000  1
  C  C155  1  0.77230000  0.41170000  0.79700000  1
  C  C156  1  0.78350000  0.47490000  0.12950000  1
  C  C157  1  0.78900000  0.35260000  0.19710000  1
  C  C158  1  0.80750000  0.86630000  0.19990000  1
  C  C159  1  0.83590000  0.86350000  0.56590000  1
  C  C160  1  0.84140000  0.90280000  0.35660000  1
  C  C161  1  0.84780000  0.90250000  0.30030000  1
  C  C162  1  0.85380000  0.31270000  0.73440000  1
  C  C163  1  0.86000000  0.49420000  0.71610000  1
  C  C164  1  0.87390000  0.42380000  0.76170000  1
  C  C165  1  0.88670000  0.64420000  0.64200000  1
  C  C166  1  0.91460000  0.54090000  0.15410000  1
  C  C167  1  0.92380000  0.42080000  0.22260000  1
  C  C168  1  0.93810000  0.94630000  0.66990000  1
  C  C169  1  0.94270000  0.96060000  0.22180000  1
  C  C170  1  0.94500000  0.97930000  0.40080000  1
  C  C171  1  0.94600000  0.06150000  0.19530000  1
  C  C172  1  0.94780000  0.94760000  0.61260000  1
  C  C173  1  0.94840000  0.06860000  0.79040000  1
  C  C174  1  0.95610000  0.97720000  0.28720000  1
  C  C175  1  0.97930000  0.58580000  0.72660000  1
  C  C176  1  0.98570000  0.51410000  0.20160000  1
  C  C177  1  0.99190000  0.66230000  0.68950000  1
  O  O178  1  0.15790000  0.14800000  0.48510000  1
  O  O179  1  0.22740000  0.43530000  0.95190000  1
  O  O180  1  0.26820000  0.19510000  0.42120000  1
  O  O181  1  0.31730000  0.41800000  0.46270000  1
  O  O182  1  0.36300000  0.38930000  0.14240000  1
  O  O183  1  0.37320000  0.25820000  0.08820000  1
  O  O184  1  0.39590000  0.31040000  0.96500000  1
  O  O185  1  0.41570000  0.53170000  0.93460000  1
  O  O186  1  0.43350000  0.59000000  0.06590000  1
  O  O187  1  0.43960000  0.23050000  0.60780000  1
  O  O188  1  0.45280000  0.54190000  0.42360000  1
  O  O189  1  0.45610000  0.15500000  0.52890000  1
  O  O190  1  0.54390000  0.84500000  0.47110000  1
  O  O191  1  0.54720000  0.45810000  0.57640000  1
  O  O192  1  0.56040000  0.76950000  0.39220000  1
  O  O193  1  0.56650000  0.41000000  0.93410000  1
  O  O194  1  0.58430000  0.46830000  0.06540000  1
  O  O195  1  0.60410000  0.68960000  0.03500000  1
  O  O196  1  0.62680000  0.74180000  0.91180000  1
  O  O197  1  0.63700000  0.61070000  0.85760000  1
  O  O198  1  0.68270000  0.58200000  0.53730000  1
  O  O199  1  0.73180000  0.80490000  0.57880000  1
  O  O200  1  0.77260000  0.56470000  0.04810000  1
  O  O201  1  0.84210000  0.85200000  0.51490000  1
