# generated using pymatgen
data_Mn5P3H3(CO4)6
_symmetry_space_group_name_H-M   'P 1'
_cell_length_a   7.72660000
_cell_length_b   7.96430000
_cell_length_c   21.22050000
_cell_angle_alpha   90.29800000
_cell_angle_beta   92.20900000
_cell_angle_gamma   90.80500000
_symmetry_Int_Tables_number   1
_chemical_formula_structural   Mn5P3H3(CO4)6
_chemical_formula_sum   'Mn10 P6 H6 C12 O48'
_cell_volume   1304.72432172
_cell_formula_units_Z   2
loop_
 _symmetry_equiv_pos_site_id
 _symmetry_equiv_pos_as_xyz
  1  'x, y, z'
loop_
 _atom_site_type_symbol
 _atom_site_label
 _atom_site_symmetry_multiplicity
 _atom_site_fract_x
 _atom_site_fract_y
 _atom_site_fract_z
 _atom_site_occupancy
  Mn  Mn0  1  0.20044000  0.67359000  0.82351000  1
  Mn  Mn1  1  0.29072000  0.84870000  0.55381000  1
  Mn  Mn2  1  0.38870000  0.39715000  0.39452000  1
  Mn  Mn3  1  0.40257000  0.18179000  0.02540000  1
  Mn  Mn4  1  0.47666000  0.57520000  0.12061000  1
  Mn  Mn5  1  0.52334000  0.42480000  0.87939000  1
  Mn  Mn6  1  0.59743000  0.81821000  0.97460000  1
  Mn  Mn7  1  0.61130000  0.60285000  0.60548000  1
  Mn  Mn8  1  0.70928000  0.15130000  0.44619000  1
  Mn  Mn9  1  0.79956000  0.32641000  0.17649000  1
  P  P10  1  0.26565000  0.57450000  0.97999000  1
  P  P11  1  0.32310000  0.05334000  0.88056000  1
  P  P12  1  0.41267000  0.25367000  0.54378000  1
  P  P13  1  0.58733000  0.74633000  0.45622000  1
  P  P14  1  0.67690000  0.94666000  0.11944000  1
  P  P15  1  0.73435000  0.42550000  0.02001000  1
  H  H16  1  0.01880000  0.63860000  0.99100000  1
  H  H17  1  0.11010000  0.19980000  0.87660000  1
  H  H18  1  0.20110000  0.39650000  0.54610000  1
  H  H19  1  0.79890000  0.60350000  0.45390000  1
  H  H20  1  0.88990000  0.80020000  0.12340000  1
  H  H21  1  0.98120000  0.36140000  0.00900000  1
  C  C22  1  0.01740000  0.37600000  0.41692000  1
  C  C23  1  0.06740000  0.19390000  0.39985000  1
  C  C24  1  0.11600000  0.53030000  0.15743000  1
  C  C25  1  0.17060000  0.34890000  0.14185000  1
  C  C26  1  0.34060000  0.69150000  0.69713000  1
  C  C27  1  0.47120000  0.57880000  0.73479000  1
  C  C28  1  0.52880000  0.42120000  0.26521000  1
  C  C29  1  0.65940000  0.30850000  0.30287000  1
  C  C30  1  0.82940000  0.65110000  0.85815000  1
  C  C31  1  0.88400000  0.46970000  0.84257000  1
  C  C32  1  0.93260000  0.80610000  0.60015000  1
  C  C33  1  0.98260000  0.62400000  0.58308000  1
  O  O34  1  0.03370000  0.44920000  0.82479000  1
  O  O35  1  0.04060000  0.92020000  0.59120000  1
  O  O36  1  0.05860000  0.23750000  0.15085000  1
  O  O37  1  0.10740000  0.69480000  0.98683000  1
  O  O38  1  0.12890000  0.48930000  0.41039000  1
  O  O39  1  0.13130000  0.11240000  0.89545000  1
  O  O40  1  0.13170000  0.60510000  0.56393000  1
  O  O41  1  0.19960000  0.72010000  0.71954000  1
  O  O42  1  0.21440000  0.29780000  0.53647000  1
  O  O43  1  0.21470000  0.39670000  0.99782000  1
  O  O44  1  0.21500000  0.17580000  0.37863000  1
  O  O45  1  0.22620000  0.64490000  0.15068000  1
  O  O46  1  0.30340000  0.90850000  0.83565000  1
  O  O47  1  0.31890000  0.32840000  0.12152000  1
  O  O48  1  0.32200000  0.58410000  0.91185000  1
  O  O49  1  0.39110000  0.45700000  0.28894000  1
  O  O50  1  0.39620000  0.74570000  0.64521000  1
  O  O51  1  0.40440000  0.00280000  0.94464000  1
  O  O52  1  0.41030000  0.65200000  0.02233000  1
  O  O53  1  0.41560000  0.20100000  0.85274000  1
  O  O54  1  0.42050000  0.07200000  0.56280000  1
  O  O55  1  0.42250000  0.53580000  0.78878000  1
  O  O56  1  0.49180000  0.28740000  0.47943000  1
  O  O57  1  0.49990000  0.36540000  0.59457000  1
  O  O58  1  0.50010000  0.63460000  0.40543000  1
  O  O59  1  0.50820000  0.71260000  0.52057000  1
  O  O60  1  0.57750000  0.46420000  0.21122000  1
  O  O61  1  0.57950000  0.92800000  0.43720000  1
  O  O62  1  0.58440000  0.79900000  0.14726000  1
  O  O63  1  0.58970000  0.34800000  0.97767000  1
  O  O64  1  0.59560000  0.99720000  0.05536000  1
  O  O65  1  0.60380000  0.25430000  0.35479000  1
  O  O66  1  0.60890000  0.54300000  0.71106000  1
  O  O67  1  0.67800000  0.41590000  0.08815000  1
  O  O68  1  0.68110000  0.67160000  0.87848000  1
  O  O69  1  0.69660000  0.09150000  0.16435000  1
  O  O70  1  0.77380000  0.35510000  0.84932000  1
  O  O71  1  0.78500000  0.82420000  0.62137000  1
  O  O72  1  0.78530000  0.60330000  0.00218000  1
  O  O73  1  0.78560000  0.70220000  0.46353000  1
  O  O74  1  0.80040000  0.27990000  0.28046000  1
  O  O75  1  0.86830000  0.39490000  0.43607000  1
  O  O76  1  0.86870000  0.88760000  0.10455000  1
  O  O77  1  0.87110000  0.51070000  0.58961000  1
  O  O78  1  0.89260000  0.30520000  0.01317000  1
  O  O79  1  0.94140000  0.76250000  0.84915000  1
  O  O80  1  0.95940000  0.07980000  0.40880000  1
  O  O81  1  0.96630000  0.55080000  0.17521000  1
