# generated using pymatgen
data_CoH9C15(NO2)2
_symmetry_space_group_name_H-M   'P 1'
_cell_length_a   8.81020000
_cell_length_b   15.63230000
_cell_length_c   16.35920000
_cell_angle_alpha   103.54400000
_cell_angle_beta   100.81100000
_cell_angle_gamma   90.19090000
_symmetry_Int_Tables_number   1
_chemical_formula_structural   CoH9C15(NO2)2
_chemical_formula_sum   'Co4 H36 C60 N8 O16'
_cell_volume   2148.87980524
_cell_formula_units_Z   4
loop_
 _symmetry_equiv_pos_site_id
 _symmetry_equiv_pos_as_xyz
  1  'x, y, z'
loop_
 _atom_site_type_symbol
 _atom_site_label
 _atom_site_symmetry_multiplicity
 _atom_site_fract_x
 _atom_site_fract_y
 _atom_site_fract_z
 _atom_site_occupancy
  Co  Co0  1  0.18834000  0.20988000  0.26764000  1
  Co  Co1  1  0.35538000  0.95035000  0.35973000  1
  Co  Co2  1  0.64462000  0.04965000  0.64027000  1
  Co  Co3  1  0.81166000  0.79012000  0.73236000  1
  H  H4  1  0.07410000  0.00280000  0.60430000  1
  H  H5  1  0.09850000  0.09930000  0.08020000  1
  H  H6  1  0.11200000  0.64200000  0.22510000  1
  H  H7  1  0.12930000  0.35270000  0.16740000  1
  H  H8  1  0.14840000  0.79100000  0.24480000  1
  H  H9  1  0.16000000  0.50170000  0.18100000  1
  H  H10  1  0.18730000  0.06300000  0.95260000  1
  H  H11  1  0.26300000  0.15290000  0.83610000  1
  H  H12  1  0.26390000  0.95690000  0.16420000  1
  H  H13  1  0.32730000  0.37430000  0.40310000  1
  H  H14  1  0.34770000  0.91840000  0.03730000  1
  H  H15  1  0.36190000  0.52320000  0.42480000  1
  H  H16  1  0.36570000  0.12270000  0.71580000  1
  H  H17  1  0.37050000  0.82800000  0.75490000  1
  H  H18  1  0.44540000  0.77210000  0.93450000  1
  H  H19  1  0.44870000  0.26510000  0.18570000  1
  H  H20  1  0.46700000  0.65150000  0.41900000  1
  H  H21  1  0.48900000  0.79990000  0.43590000  1
  H  H22  1  0.51100000  0.20010000  0.56410000  1
  H  H23  1  0.53300000  0.34850000  0.58100000  1
  H  H24  1  0.55130000  0.73490000  0.81430000  1
  H  H25  1  0.55460000  0.22790000  0.06550000  1
  H  H26  1  0.62950000  0.17200000  0.24510000  1
  H  H27  1  0.63430000  0.87730000  0.28420000  1
  H  H28  1  0.63810000  0.47680000  0.57520000  1
  H  H29  1  0.65230000  0.08160000  0.96270000  1
  H  H30  1  0.67270000  0.62570000  0.59690000  1
  H  H31  1  0.73610000  0.04310000  0.83580000  1
  H  H32  1  0.73700000  0.84710000  0.16390000  1
  H  H33  1  0.81270000  0.93700000  0.04740000  1
  H  H34  1  0.84000000  0.49830000  0.81900000  1
  H  H35  1  0.85160000  0.20900000  0.75520000  1
  H  H36  1  0.87070000  0.64730000  0.83260000  1
  H  H37  1  0.88800000  0.35800000  0.77490000  1
  H  H38  1  0.90150000  0.90070000  0.91980000  1
  H  H39  1  0.92590000  0.99720000  0.39570000  1
  C  C40  1  0.07560000  0.02952000  0.28127000  1
  C  C41  1  0.07990000  0.94169000  0.70012000  1
  C  C42  1  0.12390000  0.85563000  0.81836000  1
  C  C43  1  0.13540000  0.96857000  0.63553000  1
  C  C44  1  0.16900000  0.88820000  0.74588000  1
  C  C45  1  0.17750000  0.38780000  0.22010000  1
  C  C46  1  0.19040000  0.12630000  0.07670000  1
  C  C47  1  0.19150000  0.67264000  0.26780000  1
  C  C48  1  0.19490000  0.47750000  0.22760000  1
  C  C49  1  0.21390000  0.76247000  0.28030000  1
  C  C50  1  0.24330000  0.10370000  0.99960000  1
  C  C51  1  0.26660000  0.53119000  0.30730000  1
  C  C52  1  0.27940000  0.94615000  0.61589000  1
  C  C53  1  0.28840000  0.62795000  0.31922000  1
  C  C54  1  0.29250000  0.39990000  0.35750000  1
  C  C55  1  0.31150000  0.86448000  0.72536000  1
  C  C56  1  0.31400000  0.49020000  0.37100000  1
  C  C57  1  0.33100000  0.98447000  0.54857000  1
  C  C58  1  0.35980000  0.93240000  0.16402000  1
  C  C59  1  0.36210000  0.13200000  0.83867000  1
  C  C60  1  0.36920000  0.89303000  0.66261000  1
  C  C61  1  0.38180000  0.14341000  0.99445000  1
  C  C62  1  0.39650000  0.22260000  0.13895000  1
  C  C63  1  0.40030000  0.67821000  0.38242000  1
  C  C64  1  0.41050000  0.91110000  0.08740000  1
  C  C65  1  0.41380000  0.76753000  0.39174000  1
  C  C66  1  0.42390000  0.11240000  0.76591000  1
  C  C67  1  0.44330000  0.12142000  0.91417000  1
  C  C68  1  0.45970000  0.20210000  0.06600000  1
  C  C69  1  0.46990000  0.13304000  0.35150000  1
  C  C70  1  0.53010000  0.86696000  0.64850000  1
  C  C71  1  0.54030000  0.79790000  0.93400000  1
  C  C72  1  0.55670000  0.87858000  0.08583000  1
  C  C73  1  0.57610000  0.88760000  0.23409000  1
  C  C74  1  0.58620000  0.23247000  0.60826000  1
  C  C75  1  0.58950000  0.08890000  0.91260000  1
  C  C76  1  0.59970000  0.32179000  0.61758000  1
  C  C77  1  0.60350000  0.77740000  0.86105000  1
  C  C78  1  0.61820000  0.85659000  0.00555000  1
  C  C79  1  0.63080000  0.10697000  0.33739000  1
  C  C80  1  0.63790000  0.86800000  0.16133000  1
  C  C81  1  0.64020000  0.06760000  0.83598000  1
  C  C82  1  0.66900000  0.01553000  0.45143000  1
  C  C83  1  0.68600000  0.50980000  0.62900000  1
  C  C84  1  0.68850000  0.13552000  0.27464000  1
  C  C85  1  0.70750000  0.60010000  0.64250000  1
  C  C86  1  0.71160000  0.37205000  0.68078000  1
  C  C87  1  0.72060000  0.05385000  0.38411000  1
  C  C88  1  0.73340000  0.46881000  0.69270000  1
  C  C89  1  0.75670000  0.89630000  0.00040000  1
  C  C90  1  0.78610000  0.23753000  0.71970000  1
  C  C91  1  0.80510000  0.52250000  0.77240000  1
  C  C92  1  0.80850000  0.32736000  0.73220000  1
  C  C93  1  0.80960000  0.87370000  0.92330000  1
  C  C94  1  0.82250000  0.61220000  0.77990000  1
  C  C95  1  0.83100000  0.11180000  0.25412000  1
  C  C96  1  0.86460000  0.03143000  0.36447000  1
  C  C97  1  0.87610000  0.14437000  0.18164000  1
  C  C98  1  0.92010000  0.05831000  0.29988000  1
  C  C99  1  0.92440000  0.97048000  0.71873000  1
  N  N100  1  0.22600000  0.34857000  0.28418000  1
  N  N101  1  0.26610000  0.18542000  0.14628000  1
  N  N102  1  0.32450000  0.81053000  0.34061000  1
  N  N103  1  0.43800000  0.92032000  0.23717000  1
  N  N104  1  0.56200000  0.07968000  0.76283000  1
  N  N105  1  0.67550000  0.18947000  0.65939000  1
  N  N106  1  0.73390000  0.81458000  0.85372000  1
  N  N107  1  0.77400000  0.65143000  0.71582000  1
  O  O108  1  0.03507000  0.78621000  0.79921000  1
  O  O109  1  0.12723000  0.96197000  0.30475000  1
  O  O110  1  0.14495000  0.07340000  0.24322000  1
  O  O111  1  0.18280000  0.89484000  0.89237000  1
  O  O112  1  0.27066000  0.95057000  0.47267000  1
  O  O113  1  0.39824000  0.08830000  0.38761000  1
  O  O114  1  0.41797000  0.19898000  0.32553000  1
  O  O115  1  0.42235000  0.05243000  0.57379000  1
  O  O116  1  0.57765000  0.94757000  0.42621000  1
  O  O117  1  0.58203000  0.80102000  0.67447000  1
  O  O118  1  0.60176000  0.91170000  0.61239000  1
  O  O119  1  0.72934000  0.04943000  0.52733000  1
  O  O120  1  0.81720000  0.10516000  0.10763000  1
  O  O121  1  0.85505000  0.92660000  0.75678000  1
  O  O122  1  0.87277000  0.03803000  0.69525000  1
  O  O123  1  0.96493000  0.21379000  0.20079000  1
