# generated using pymatgen
data_GdH4(C2O)6
_symmetry_space_group_name_H-M   'P 1'
_cell_length_a   8.78300000
_cell_length_b   9.28500000
_cell_length_c   18.95200000
_cell_angle_alpha   90.00000000
_cell_angle_beta   90.00000000
_cell_angle_gamma   109.39800000
_symmetry_Int_Tables_number   1
_chemical_formula_structural   GdH4(C2O)6
_chemical_formula_sum   'Gd4 H16 C48 O24'
_cell_volume   1457.80488639
_cell_formula_units_Z   4
loop_
 _symmetry_equiv_pos_site_id
 _symmetry_equiv_pos_as_xyz
  1  'x, y, z'
loop_
 _atom_site_type_symbol
 _atom_site_label
 _atom_site_symmetry_multiplicity
 _atom_site_fract_x
 _atom_site_fract_y
 _atom_site_fract_z
 _atom_site_occupancy
  Gd  Gd0  1  0.21026000  0.48489000  0.55312000  1
  Gd  Gd1  1  0.21026000  0.98489000  0.94688000  1
  Gd  Gd2  1  0.78974000  0.01511000  0.05312000  1
  Gd  Gd3  1  0.78974000  0.51511000  0.44688000  1
  H  H4  1  0.06150000  0.48370000  0.81290000  1
  H  H5  1  0.06150000  0.98370000  0.68710000  1
  H  H6  1  0.20140000  0.44090000  0.05890000  1
  H  H7  1  0.20140000  0.94090000  0.44110000  1
  H  H8  1  0.25490000  0.33100000  0.19180000  1
  H  H9  1  0.25490000  0.83100000  0.30820000  1
  H  H10  1  0.41030000  0.42590000  0.29050000  1
  H  H11  1  0.41030000  0.92590000  0.20950000  1
  H  H12  1  0.58970000  0.07410000  0.79050000  1
  H  H13  1  0.58970000  0.57410000  0.70950000  1
  H  H14  1  0.74510000  0.16900000  0.69180000  1
  H  H15  1  0.74510000  0.66900000  0.80820000  1
  H  H16  1  0.79860000  0.05910000  0.55890000  1
  H  H17  1  0.79860000  0.55910000  0.94110000  1
  H  H18  1  0.93850000  0.01630000  0.31290000  1
  H  H19  1  0.93850000  0.51630000  0.18710000  1
  C  C20  1  0.01780000  0.40060000  0.67820000  1
  C  C21  1  0.01780000  0.90060000  0.82180000  1
  C  C22  1  0.03420000  0.09780000  0.30850000  1
  C  C23  1  0.03420000  0.59780000  0.19150000  1
  C  C24  1  0.05610000  0.38700000  0.97410000  1
  C  C25  1  0.05610000  0.88700000  0.52590000  1
  C  C26  1  0.06730000  0.07850000  0.43740000  1
  C  C27  1  0.06730000  0.57850000  0.06260000  1
  C  C28  1  0.08270000  0.16140000  0.24240000  1
  C  C29  1  0.08270000  0.66140000  0.25760000  1
  C  C30  1  0.10370000  0.25510000  0.95140000  1
  C  C31  1  0.10370000  0.75510000  0.54860000  1
  C  C32  1  0.12030000  0.46530000  0.03540000  1
  C  C33  1  0.12030000  0.96530000  0.46460000  1
  C  C34  1  0.12780000  0.15510000  0.36840000  1
  C  C35  1  0.12780000  0.65510000  0.13160000  1
  C  C36  1  0.22350000  0.28590000  0.23570000  1
  C  C37  1  0.22350000  0.78590000  0.26430000  1
  C  C38  1  0.27220000  0.27520000  0.36100000  1
  C  C39  1  0.27220000  0.77520000  0.13900000  1
  C  C40  1  0.31650000  0.34210000  0.29490000  1
  C  C41  1  0.31650000  0.84210000  0.20510000  1
  C  C42  1  0.38360000  0.34000000  0.42260000  1
  C  C43  1  0.38360000  0.84000000  0.07740000  1
  C  C44  1  0.61640000  0.16000000  0.92260000  1
  C  C45  1  0.61640000  0.66000000  0.57740000  1
  C  C46  1  0.68350000  0.15790000  0.79490000  1
  C  C47  1  0.68350000  0.65790000  0.70510000  1
  C  C48  1  0.72780000  0.22480000  0.86100000  1
  C  C49  1  0.72780000  0.72480000  0.63900000  1
  C  C50  1  0.77650000  0.21410000  0.73570000  1
  C  C51  1  0.77650000  0.71410000  0.76430000  1
  C  C52  1  0.87220000  0.34490000  0.86840000  1
  C  C53  1  0.87220000  0.84490000  0.63160000  1
  C  C54  1  0.87970000  0.03470000  0.53540000  1
  C  C55  1  0.87970000  0.53470000  0.96460000  1
  C  C56  1  0.89630000  0.24490000  0.45140000  1
  C  C57  1  0.89630000  0.74490000  0.04860000  1
  C  C58  1  0.91730000  0.33860000  0.74240000  1
  C  C59  1  0.91730000  0.83860000  0.75760000  1
  C  C60  1  0.93270000  0.42150000  0.93740000  1
  C  C61  1  0.93270000  0.92150000  0.56260000  1
  C  C62  1  0.94390000  0.11300000  0.47410000  1
  C  C63  1  0.94390000  0.61300000  0.02590000  1
  C  C64  1  0.96580000  0.40220000  0.80850000  1
  C  C65  1  0.96580000  0.90220000  0.69150000  1
  C  C66  1  0.98220000  0.09940000  0.17820000  1
  C  C67  1  0.98220000  0.59940000  0.32180000  1
  O  O68  1  0.00520000  0.12160000  0.96460000  1
  O  O69  1  0.00520000  0.62160000  0.53540000  1
  O  O70  1  0.03690000  0.15510000  0.11820000  1
  O  O71  1  0.03690000  0.65510000  0.38180000  1
  O  O72  1  0.15180000  0.00270000  0.81740000  1
  O  O73  1  0.15180000  0.50270000  0.68260000  1
  O  O74  1  0.23910000  0.27120000  0.92500000  1
  O  O75  1  0.23910000  0.77120000  0.57500000  1
  O  O76  1  0.32550000  0.34000000  0.48330000  1
  O  O77  1  0.32550000  0.84000000  0.01670000  1
  O  O78  1  0.46800000  0.11170000  0.90800000  1
  O  O79  1  0.46800000  0.61170000  0.59200000  1
  O  O80  1  0.53200000  0.38830000  0.40800000  1
  O  O81  1  0.53200000  0.88830000  0.09200000  1
  O  O82  1  0.67450000  0.16000000  0.98330000  1
  O  O83  1  0.67450000  0.66000000  0.51670000  1
  O  O84  1  0.76090000  0.22880000  0.42500000  1
  O  O85  1  0.76090000  0.72880000  0.07500000  1
  O  O86  1  0.84820000  0.49730000  0.31740000  1
  O  O87  1  0.84820000  0.99730000  0.18260000  1
  O  O88  1  0.96310000  0.34490000  0.61820000  1
  O  O89  1  0.96310000  0.84490000  0.88180000  1
  O  O90  1  0.99480000  0.37840000  0.46460000  1
  O  O91  1  0.99480000  0.87840000  0.03540000  1
