# generated using pymatgen
data_YbH9(C3O)6
_symmetry_space_group_name_H-M   'P 1'
_cell_length_a   8.45150000
_cell_length_b   12.39720000
_cell_length_c   12.56800000
_cell_angle_alpha   110.45300000
_cell_angle_beta   102.13200000
_cell_angle_gamma   109.61900000
_symmetry_Int_Tables_number   1
_chemical_formula_structural   YbH9(C3O)6
_chemical_formula_sum   'Yb2 H18 C36 O12'
_cell_volume   1079.19827369
_cell_formula_units_Z   2
loop_
 _symmetry_equiv_pos_site_id
 _symmetry_equiv_pos_as_xyz
  1  'x, y, z'
loop_
 _atom_site_type_symbol
 _atom_site_label
 _atom_site_symmetry_multiplicity
 _atom_site_fract_x
 _atom_site_fract_y
 _atom_site_fract_z
 _atom_site_occupancy
  Yb  Yb0  1  0.29403000  0.45853000  0.59639000  1
  Yb  Yb1  1  0.70597000  0.54147000  0.40361000  1
  H  H2  1  0.03000000  0.82830000  0.72830000  1
  H  H3  1  0.05510000  0.95110000  0.40810000  1
  H  H4  1  0.11490000  0.38860000  0.83030000  1
  H  H5  1  0.16140000  0.58520000  0.23840000  1
  H  H6  1  0.25460000  0.98920000  0.91030000  1
  H  H7  1  0.31490000  0.11670000  0.43180000  1
  H  H8  1  0.34890000  0.41670000  0.98780000  1
  H  H9  1  0.34920000  0.16080000  0.12390000  1
  H  H10  1  0.35360000  0.78780000  0.52360000  1
  H  H11  1  0.64640000  0.21220000  0.47640000  1
  H  H12  1  0.65080000  0.83920000  0.87610000  1
  H  H13  1  0.65110000  0.58330000  0.01220000  1
  H  H14  1  0.68510000  0.88330000  0.56820000  1
  H  H15  1  0.74540000  0.01080000  0.08970000  1
  H  H16  1  0.83860000  0.41480000  0.76160000  1
  H  H17  1  0.88510000  0.61140000  0.16970000  1
  H  H18  1  0.94490000  0.04890000  0.59190000  1
  H  H19  1  0.97000000  0.17170000  0.27170000  1
  C  C20  1  0.00030000  0.13420000  0.20390000  1
  C  C21  1  0.00740000  0.52950000  0.06170000  1
  C  C22  1  0.01430000  0.74890000  0.45000000  1
  C  C23  1  0.09130000  0.02350000  0.00440000  1
  C  C24  1  0.12340000  0.42830000  0.91240000  1
  C  C25  1  0.13190000  0.96220000  0.90320000  1
  C  C26  1  0.15070000  0.54550000  0.15580000  1
  C  C27  1  0.16940000  0.95210000  0.43560000  1
  C  C28  1  0.18210000  0.17900000  0.21490000  1
  C  C29  1  0.18230000  0.85290000  0.46380000  1
  C  C30  1  0.22650000  0.12700000  0.11670000  1
  C  C31  1  0.26170000  0.44490000  0.00570000  1
  C  C32  1  0.27590000  0.50350000  0.12820000  1
  C  C33  1  0.32300000  0.04920000  0.44840000  1
  C  C34  1  0.32850000  0.29140000  0.33150000  1
  C  C35  1  0.34660000  0.85340000  0.50310000  1
  C  C36  1  0.43010000  0.52130000  0.22750000  1
  C  C37  1  0.49340000  0.04940000  0.48630000  1
  C  C38  1  0.50660000  0.95060000  0.51370000  1
  C  C39  1  0.56990000  0.47870000  0.77250000  1
  C  C40  1  0.65340000  0.14660000  0.49690000  1
  C  C41  1  0.67150000  0.70860000  0.66850000  1
  C  C42  1  0.67700000  0.95080000  0.55160000  1
  C  C43  1  0.72410000  0.49650000  0.87180000  1
  C  C44  1  0.73830000  0.55510000  0.99430000  1
  C  C45  1  0.77350000  0.87300000  0.88330000  1
  C  C46  1  0.81770000  0.14710000  0.53620000  1
  C  C47  1  0.81790000  0.82100000  0.78510000  1
  C  C48  1  0.83060000  0.04790000  0.56440000  1
  C  C49  1  0.84930000  0.45450000  0.84420000  1
  C  C50  1  0.86810000  0.03780000  0.09680000  1
  C  C51  1  0.87660000  0.57170000  0.08760000  1
  C  C52  1  0.90870000  0.97650000  0.99560000  1
  C  C53  1  0.98570000  0.25110000  0.55000000  1
  C  C54  1  0.99260000  0.47050000  0.93830000  1
  C  C55  1  0.99970000  0.86580000  0.79610000  1
  O  O56  1  0.02820000  0.67170000  0.49320000  1
  O  O57  1  0.13900000  0.26610000  0.60730000  1
  O  O58  1  0.28350000  0.32700000  0.42160000  1
  O  O59  1  0.44080000  0.56660000  0.33890000  1
  O  O60  1  0.44970000  0.50850000  0.79900000  1
  O  O61  1  0.48400000  0.34150000  0.33220000  1
  O  O62  1  0.51600000  0.65850000  0.66780000  1
  O  O63  1  0.55030000  0.49150000  0.20100000  1
  O  O64  1  0.55920000  0.43340000  0.66110000  1
  O  O65  1  0.71650000  0.67300000  0.57840000  1
  O  O66  1  0.86100000  0.73390000  0.39270000  1
  O  O67  1  0.97180000  0.32830000  0.50680000  1
