# generated using pymatgen
data_ZnH15C23N2O5
_symmetry_space_group_name_H-M   'P 1'
_cell_length_a   22.67780000
_cell_length_b   24.15970000
_cell_length_c   25.34770000
_cell_angle_alpha   66.58060000
_cell_angle_beta   81.05400000
_cell_angle_gamma   88.03700000
_symmetry_Int_Tables_number   1
_chemical_formula_structural   ZnH15C23N2O5
_chemical_formula_sum   'Zn12 H180 C276 N24 O60'
_cell_volume   12582.81417593
_cell_formula_units_Z   12
loop_
 _symmetry_equiv_pos_site_id
 _symmetry_equiv_pos_as_xyz
  1  'x, y, z'
loop_
 _atom_site_type_symbol
 _atom_site_label
 _atom_site_symmetry_multiplicity
 _atom_site_fract_x
 _atom_site_fract_y
 _atom_site_fract_z
 _atom_site_occupancy
  Zn  Zn0  1  0.02642000  0.18741000  0.67591000  1
  Zn  Zn1  1  0.11957000  0.84891000  0.28937000  1
  Zn  Zn2  1  0.22584000  0.83647000  0.49362000  1
  Zn  Zn3  1  0.28555000  0.50152000  0.10257000  1
  Zn  Zn4  1  0.38063000  0.86201000  0.45902000  1
  Zn  Zn5  1  0.43870000  0.52892000  0.08272000  1
  Zn  Zn6  1  0.56130000  0.47108000  0.91728000  1
  Zn  Zn7  1  0.61937000  0.13799000  0.54098000  1
  Zn  Zn8  1  0.71445000  0.49848000  0.89743000  1
  Zn  Zn9  1  0.77416000  0.16353000  0.50638000  1
  Zn  Zn10  1  0.88043000  0.15109000  0.71063000  1
  Zn  Zn11  1  0.97358000  0.81259000  0.32409000  1
  H  H12  1  0.01270000  0.59420000  0.08470000  1
  H  H13  1  0.01330000  0.80910000  0.59030000  1
  H  H14  1  0.04060000  0.38770000  0.61650000  1
  H  H15  1  0.04590000  0.77190000  0.44650000  1
  H  H16  1  0.05140000  0.11640000  0.84410000  1
  H  H17  1  0.05210000  0.23040000  0.50830000  1
  H  H18  1  0.06110000  0.48920000  0.55480000  1
  H  H19  1  0.06180000  0.08380000  0.58070000  1
  H  H20  1  0.06490000  0.07190000  0.94290000  1
  H  H21  1  0.07450000  0.44850000  0.88420000  1
  H  H22  1  0.07810000  0.57210000  0.13870000  1
  H  H23  1  0.07970000  0.37900000  0.05610000  1
  H  H24  1  0.08000000  0.03170000  0.52130000  1
  H  H25  1  0.08130000  0.58020000  0.50560000  1
  H  H26  1  0.09030000  0.00730000  0.01610000  1
  H  H27  1  0.09260000  0.68010000  0.44020000  1
  H  H28  1  0.09340000  0.99540000  0.46430000  1
  H  H29  1  0.10060000  0.34430000  0.48470000  1
  H  H30  1  0.10380000  0.19990000  0.75050000  1
  H  H31  1  0.10810000  0.44450000  0.42220000  1
  H  H32  1  0.11030000  0.53530000  0.00010000  1
  H  H33  1  0.11050000  0.95650000  0.11040000  1
  H  H34  1  0.11200000  0.94900000  0.39940000  1
  H  H35  1  0.11480000  0.83040000  0.57510000  1
  H  H36  1  0.11540000  0.53200000  0.36810000  1
  H  H37  1  0.12400000  0.63370000  0.30610000  1
  H  H38  1  0.13380000  0.11850000  0.64200000  1
  H  H39  1  0.14290000  0.17390000  0.52350000  1
  H  H40  1  0.14330000  0.79180000  0.44030000  1
  H  H41  1  0.17770000  0.30990000  0.36590000  1
  H  H42  1  0.17780000  0.44560000  0.86590000  1
  H  H43  1  0.18290000  0.37610000  0.03770000  1
  H  H44  1  0.18360000  0.55420000  0.14780000  1
  H  H45  1  0.19860000  0.05610000  0.45580000  1
  H  H46  1  0.19880000  0.17560000  0.77750000  1
  H  H47  1  0.20550000  0.89410000  0.33970000  1
  H  H48  1  0.20630000  0.50910000  0.02110000  1
  H  H49  1  0.20840000  0.15300000  0.38890000  1
  H  H50  1  0.22140000  0.18430000  0.20640000  1
  H  H51  1  0.22760000  0.72430000  0.40090000  1
  H  H52  1  0.22970000  0.75430000  0.67880000  1
  H  H53  1  0.23210000  0.83620000  0.21510000  1
  H  H54  1  0.23460000  0.28290000  0.13620000  1
  H  H55  1  0.23500000  0.11740000  0.64890000  1
  H  H56  1  0.23630000  0.67690000  0.33910000  1
  H  H57  1  0.24150000  0.17880000  0.53690000  1
  H  H58  1  0.24590000  0.63610000  0.27940000  1
  H  H59  1  0.24880000  0.69380000  0.76960000  1
  H  H60  1  0.25100000  0.59420000  0.21540000  1
  H  H61  1  0.25710000  0.00060000  0.33070000  1
  H  H62  1  0.26800000  0.09730000  0.26170000  1
  H  H63  1  0.26850000  0.60480000  0.83880000  1
  H  H64  1  0.27030000  0.23730000  0.32230000  1
  H  H65  1  0.27320000  0.31790000  0.37730000  1
  H  H66  1  0.27780000  0.39980000  0.00560000  1
  H  H67  1  0.28010000  0.55980000  0.93550000  1
  H  H68  1  0.28270000  0.33490000  0.25120000  1
  H  H69  1  0.29390000  0.16670000  0.73580000  1
  H  H70  1  0.30260000  0.91140000  0.33470000  1
  H  H71  1  0.33290000  0.85060000  0.20520000  1
  H  H72  1  0.33460000  0.16820000  0.51520000  1
  H  H73  1  0.36530000  0.40620000  0.03770000  1
  H  H74  1  0.36570000  0.16280000  0.77490000  1
  H  H75  1  0.36600000  0.43280000  0.86910000  1
  H  H76  1  0.36670000  0.05920000  0.42200000  1
  H  H77  1  0.38200000  0.16510000  0.37030000  1
  H  H78  1  0.39890000  0.90900000  0.29100000  1
  H  H79  1  0.40070000  0.10010000  0.55420000  1
  H  H80  1  0.40140000  0.75120000  0.37270000  1
  H  H81  1  0.40350000  0.76180000  0.61880000  1
  H  H82  1  0.40580000  0.23090000  0.18180000  1
  H  H83  1  0.41160000  0.70910000  0.30410000  1
  H  H84  1  0.41300000  0.33380000  0.13170000  1
  H  H85  1  0.41650000  0.66510000  0.25020000  1
  H  H86  1  0.42220000  0.70200000  0.71420000  1
  H  H87  1  0.42380000  0.61830000  0.18770000  1
  H  H88  1  0.42900000  0.08500000  0.66470000  1
  H  H89  1  0.43130000  0.03760000  0.27470000  1
  H  H90  1  0.43190000  0.25210000  0.32610000  1
  H  H91  1  0.43360000  0.67940000  0.80360000  1
  H  H92  1  0.44410000  0.13700000  0.22720000  1
  H  H93  1  0.44610000  0.35310000  0.27400000  1
  H  H94  1  0.44630000  0.61760000  0.89960000  1
  H  H95  1  0.44880000  0.27260000  0.46770000  1
  H  H96  1  0.45300000  0.75330000  0.51380000  1
  H  H97  1  0.45980000  0.16030000  0.80080000  1
  H  H98  1  0.46710000  0.42380000  0.01660000  1
  H  H99  1  0.46860000  0.44360000  0.85870000  1
  H  H100  1  0.47690000  0.91750000  0.30930000  1
  H  H101  1  0.49820000  0.07940000  0.57710000  1
  H  H102  1  0.50180000  0.92060000  0.42290000  1
  H  H103  1  0.52310000  0.08250000  0.69070000  1
  H  H104  1  0.53140000  0.55640000  0.14130000  1
  H  H105  1  0.53290000  0.57620000  0.98340000  1
  H  H106  1  0.54020000  0.83970000  0.19920000  1
  H  H107  1  0.54700000  0.24670000  0.48620000  1
  H  H108  1  0.55120000  0.72740000  0.53230000  1
  H  H109  1  0.55370000  0.38240000  0.10040000  1
  H  H110  1  0.55390000  0.64690000  0.72600000  1
  H  H111  1  0.55590000  0.86300000  0.77280000  1
  H  H112  1  0.56640000  0.32060000  0.19640000  1
  H  H113  1  0.56810000  0.74790000  0.67390000  1
  H  H114  1  0.56870000  0.96240000  0.72530000  1
  H  H115  1  0.57100000  0.91500000  0.33530000  1
  H  H116  1  0.57620000  0.38170000  0.81230000  1
  H  H117  1  0.57780000  0.29800000  0.28580000  1
  H  H118  1  0.58350000  0.33490000  0.74980000  1
  H  H119  1  0.58700000  0.66620000  0.86830000  1
  H  H120  1  0.58840000  0.29090000  0.69590000  1
  H  H121  1  0.59420000  0.76910000  0.81820000  1
  H  H122  1  0.59650000  0.23820000  0.38120000  1
  H  H123  1  0.59860000  0.24880000  0.62730000  1
  H  H124  1  0.59930000  0.89990000  0.44580000  1
  H  H125  1  0.60110000  0.09100000  0.70900000  1
  H  H126  1  0.61800000  0.83490000  0.62970000  1
  H  H127  1  0.63330000  0.94080000  0.57800000  1
  H  H128  1  0.63400000  0.56720000  0.13090000  1
  H  H129  1  0.63430000  0.83720000  0.22510000  1
  H  H130  1  0.63470000  0.59380000  0.96230000  1
  H  H131  1  0.66540000  0.83180000  0.48480000  1
  H  H132  1  0.66710000  0.14940000  0.79480000  1
  H  H133  1  0.69740000  0.08860000  0.66530000  1
  H  H134  1  0.70610000  0.83330000  0.26420000  1
  H  H135  1  0.71730000  0.66510000  0.74880000  1
  H  H136  1  0.71990000  0.44020000  0.06450000  1
  H  H137  1  0.72220000  0.60020000  0.99440000  1
  H  H138  1  0.72680000  0.68210000  0.62270000  1
  H  H139  1  0.72970000  0.76270000  0.67770000  1
  H  H140  1  0.73150000  0.39520000  0.16120000  1
  H  H141  1  0.73200000  0.90270000  0.73830000  1
  H  H142  1  0.74290000  0.99940000  0.66930000  1
  H  H143  1  0.74900000  0.40580000  0.78460000  1
  H  H144  1  0.75120000  0.30620000  0.23040000  1
  H  H145  1  0.75410000  0.36390000  0.72060000  1
  H  H146  1  0.75850000  0.82120000  0.46310000  1
  H  H147  1  0.76370000  0.32310000  0.66090000  1
  H  H148  1  0.76500000  0.88260000  0.35110000  1
  H  H149  1  0.76540000  0.71710000  0.86380000  1
  H  H150  1  0.76790000  0.16380000  0.78490000  1
  H  H151  1  0.77030000  0.24570000  0.32120000  1
  H  H152  1  0.77240000  0.27570000  0.59910000  1
  H  H153  1  0.77860000  0.81570000  0.79360000  1
  H  H154  1  0.79160000  0.84700000  0.61110000  1
  H  H155  1  0.79370000  0.49090000  0.97890000  1
  H  H156  1  0.79450000  0.10590000  0.66030000  1
  H  H157  1  0.80120000  0.82440000  0.22250000  1
  H  H158  1  0.80140000  0.94390000  0.54420000  1
  H  H159  1  0.81640000  0.44580000  0.85220000  1
  H  H160  1  0.81710000  0.62390000  0.96230000  1
  H  H161  1  0.82220000  0.55440000  0.13410000  1
  H  H162  1  0.82230000  0.69010000  0.63410000  1
  H  H163  1  0.85670000  0.20820000  0.55970000  1
  H  H164  1  0.85710000  0.82610000  0.47650000  1
  H  H165  1  0.86620000  0.88150000  0.35800000  1
  H  H166  1  0.87600000  0.36630000  0.69390000  1
  H  H167  1  0.88460000  0.46800000  0.63190000  1
  H  H168  1  0.88520000  0.16960000  0.42490000  1
  H  H169  1  0.88800000  0.05100000  0.60060000  1
  H  H170  1  0.88950000  0.04350000  0.88960000  1
  H  H171  1  0.88970000  0.46470000  0.99990000  1
  H  H172  1  0.89190000  0.55550000  0.57780000  1
  H  H173  1  0.89620000  0.80010000  0.24950000  1
  H  H174  1  0.89940000  0.65570000  0.51530000  1
  H  H175  1  0.90660000  0.00460000  0.53570000  1
  H  H176  1  0.90740000  0.31990000  0.55980000  1
  H  H177  1  0.90970000  0.99270000  0.98390000  1
  H  H178  1  0.91870000  0.41980000  0.49440000  1
  H  H179  1  0.92000000  0.96830000  0.47870000  1
  H  H180  1  0.92030000  0.62100000  0.94390000  1
  H  H181  1  0.92190000  0.42790000  0.86130000  1
  H  H182  1  0.92550000  0.55150000  0.11580000  1
  H  H183  1  0.93510000  0.92810000  0.05710000  1
  H  H184  1  0.93820000  0.91620000  0.41930000  1
  H  H185  1  0.93890000  0.51080000  0.44520000  1
  H  H186  1  0.94790000  0.76960000  0.49170000  1
  H  H187  1  0.94860000  0.88360000  0.15590000  1
  H  H188  1  0.95410000  0.22810000  0.55350000  1
  H  H189  1  0.95940000  0.61230000  0.38350000  1
  H  H190  1  0.98670000  0.19090000  0.40970000  1
  H  H191  1  0.98730000  0.40580000  0.91530000  1
  C  C192  1  0.00010000  0.42180000  0.97690000  1
  C  C193  1  0.00600000  0.98630000  0.47840000  1
  C  C194  1  0.00610000  0.98120000  0.03080000  1
  C  C195  1  0.01790000  0.78640000  0.52010000  1
  C  C196  1  0.02100000  0.09240000  0.87210000  1
  C  C197  1  0.02630000  0.93250000  0.39680000  1
  C  C198  1  0.03000000  0.06520000  0.57450000  1
  C  C199  1  0.03140000  0.06150000  0.93140000  1
  C  C200  1  0.03230000  0.91290000  0.14360000  1
  C  C201  1  0.03810000  0.89980000  0.35700000  1
  C  C202  1  0.03860000  0.80510000  0.55950000  1
  C  C203  1  0.04100000  0.03610000  0.53660000  1
  C  C204  1  0.04600000  0.87900000  0.20250000  1
  C  C205  1  0.05150000  0.29400000  0.59510000  1
  C  C206  1  0.05520000  0.39860000  0.57720000  1
  C  C207  1  0.05870000  0.78280000  0.47430000  1
  C  C208  1  0.06020000  0.98360000  0.04480000  1
  C  C209  1  0.06140000  0.98070000  0.45430000  1
  C  C210  1  0.06500000  0.35800000  0.55520000  1
  C  C211  1  0.06680000  0.41400000  0.97200000  1
  C  C212  1  0.06750000  0.46040000  0.53880000  1
  C  C213  1  0.07280000  0.95330000  0.41430000  1
  C  C214  1  0.07330000  0.95130000  0.10170000  1
  C  C215  1  0.08800000  0.48040000  0.48060000  1
  C  C216  1  0.08840000  0.56050000  0.06230000  1
  C  C217  1  0.08850000  0.23430000  0.43150000  1
  C  C218  1  0.08910000  0.37390000  0.49870000  1
  C  C219  1  0.08960000  0.59010000  0.46570000  1
  C  C220  1  0.09590000  0.65000000  0.42580000  1
  C  C221  1  0.09620000  0.43400000  0.91500000  1
  C  C222  1  0.09650000  0.54310000  0.44220000  1
  C  C223  1  0.09660000  0.43460000  0.46180000  1
  C  C224  1  0.09930000  0.39230000  0.01790000  1
  C  C225  1  0.10000000  0.81740000  0.54970000  1
  C  C226  1  0.10460000  0.56290000  0.11170000  1
  C  C227  1  0.10680000  0.66710000  0.36690000  1
  C  C228  1  0.10970000  0.56100000  0.38380000  1
  C  C229  1  0.11240000  0.73130000  0.32800000  1
  C  C230  1  0.11490000  0.62290000  0.34600000  1
  C  C231  1  0.11710000  0.79530000  0.47080000  1
  C  C232  1  0.12280000  0.54030000  0.03110000  1
  C  C233  1  0.13040000  0.18070000  0.73190000  1
  C  C234  1  0.14820000  0.13570000  0.66470000  1
  C  C235  1  0.14820000  0.24020000  0.44570000  1
  C  C236  1  0.15810000  0.43220000  0.90400000  1
  C  C237  1  0.16120000  0.39060000  0.00690000  1
  C  C238  1  0.16830000  0.54930000  0.11790000  1
  C  C239  1  0.16920000  0.20230000  0.49420000  1
  C  C240  1  0.18160000  0.52500000  0.04410000  1
  C  C241  1  0.18740000  0.16830000  0.74710000  1
  C  C242  1  0.19060000  0.41050000  0.95000000  1
  C  C243  1  0.19080000  0.28390000  0.40000000  1
  C  C244  1  0.20790000  0.13050000  0.67260000  1
  C  C245  1  0.21340000  0.06380000  0.41710000  1
  C  C246  1  0.21860000  0.12200000  0.37640000  1
  C  C247  1  0.22350000  0.95680000  0.44340000  1
  C  C248  1  0.22690000  0.14380000  0.71320000  1
  C  C249  1  0.22920000  0.20390000  0.50210000  1
  C  C250  1  0.22980000  0.01690000  0.40130000  1
  C  C251  1  0.23190000  0.88560000  0.31210000  1
  C  C252  1  0.23390000  0.21450000  0.21660000  1
  C  C253  1  0.23840000  0.13750000  0.31710000  1
  C  C254  1  0.24120000  0.27400000  0.17400000  1
  C  C255  1  0.24450000  0.19900000  0.27300000  1
  C  C256  1  0.24700000  0.85140000  0.23900000  1
  C  C257  1  0.24800000  0.03200000  0.34280000  1
  C  C258  1  0.24800000  0.28760000  0.40580000  1
  C  C259  1  0.25390000  0.09020000  0.30040000  1
  C  C260  1  0.25730000  0.40730000  0.93450000  1
  C  C261  1  0.25770000  0.31710000  0.18920000  1
  C  C262  1  0.26250000  0.24490000  0.28510000  1
  C  C263  1  0.26530000  0.38030000  0.14120000  1
  C  C264  1  0.26530000  0.72020000  0.38250000  1
  C  C265  1  0.26870000  0.74300000  0.68410000  1
  C  C266  1  0.26940000  0.30420000  0.24210000  1
  C  C267  1  0.27070000  0.24470000  0.45580000  1
  C  C268  1  0.27080000  0.69190000  0.34490000  1
  C  C269  1  0.28060000  0.70610000  0.73910000  1
  C  C270  1  0.28370000  0.63420000  0.25980000  1
  C  C271  1  0.28590000  0.60850000  0.22140000  1
  C  C272  1  0.28940000  0.89540000  0.31060000  1
  C  C273  1  0.30120000  0.80150000  0.57840000  1
  C  C274  1  0.30330000  0.61160000  0.85080000  1
  C  C275  1  0.30740000  0.85920000  0.23330000  1
  C  C276  1  0.30960000  0.77740000  0.42890000  1
  C  C277  1  0.31150000  0.58290000  0.90820000  1
  C  C278  1  0.31370000  0.76300000  0.63750000  1
  C  C279  1  0.31440000  0.74240000  0.39330000  1
  C  C280  1  0.32430000  0.68440000  0.31510000  1
  C  C281  1  0.32670000  0.11090000  0.70760000  1
  C  C282  1  0.33000000  0.65800000  0.27360000  1
  C  C283  1  0.33000000  0.88000000  0.26970000  1
  C  C284  1  0.33190000  0.24320000  0.46670000  1
  C  C285  1  0.33710000  0.68670000  0.75120000  1
  C  C286  1  0.33990000  0.60340000  0.19110000  1
  C  C287  1  0.34820000  0.65080000  0.81130000  1
  C  C288  1  0.34910000  0.57880000  0.14750000  1
  C  C289  1  0.35620000  0.41800000  0.95570000  1
  C  C290  1  0.36400000  0.58730000  0.92610000  1
  C  C291  1  0.36740000  0.73680000  0.36520000  1
  C  C292  1  0.37160000  0.74760000  0.64910000  1
  C  C293  1  0.37270000  0.55490000  0.98880000  1
  C  C294  1  0.37410000  0.70990000  0.32460000  1
  C  C295  1  0.38160000  0.65090000  0.24430000  1
  C  C296  1  0.38300000  0.07530000  0.38280000  1
  C  C297  1  0.38310000  0.71010000  0.70710000  1
  C  C298  1  0.38540000  0.43080000  0.89950000  1
  C  C299  1  0.38550000  0.41570000  0.00020000  1
  C  C300  1  0.38580000  0.62310000  0.20510000  1
  C  C301  1  0.38810000  0.12410000  0.71730000  1
  C  C302  1  0.39120000  0.13950000  0.35100000  1
  C  C303  1  0.39240000  0.97220000  0.38530000  1
  C  C304  1  0.39730000  0.14670000  0.75800000  1
  C  C305  1  0.40020000  0.03750000  0.35330000  1
  C  C306  1  0.40240000  0.65430000  0.82940000  1
  C  C307  1  0.40920000  0.61870000  0.88800000  1
  C  C308  1  0.41170000  0.16230000  0.29450000  1
  C  C309  1  0.41270000  0.25520000  0.20100000  1
  C  C310  1  0.41690000  0.18950000  0.50360000  1
  C  C311  1  0.41750000  0.31690000  0.17080000  1
  C  C312  1  0.41800000  0.22800000  0.26080000  1
  C  C313  1  0.42150000  0.06250000  0.29470000  1
  C  C314  1  0.42820000  0.12130000  0.26650000  1
  C  C315  1  0.42920000  0.26790000  0.28660000  1
  C  C316  1  0.42940000  0.35450000  0.19890000  1
  C  C317  1  0.43020000  0.13060000  0.53920000  1
  C  C318  1  0.43520000  0.10010000  0.69200000  1
  C  C319  1  0.43530000  0.41990000  0.16300000  1
  C  C320  1  0.43630000  0.32880000  0.25570000  1
  C  C321  1  0.43790000  0.87540000  0.23710000  1
  C  C322  1  0.44600000  0.44020000  0.89380000  1
  C  C323  1  0.44630000  0.42810000  0.98640000  1
  C  C324  1  0.45360000  0.14520000  0.77360000  1
  C  C325  1  0.45800000  0.23240000  0.48710000  1
  C  C326  1  0.48250000  0.78360000  0.50040000  1
  C  C327  1  0.48950000  0.11800000  0.55220000  1
  C  C328  1  0.49150000  0.09860000  0.70760000  1
  C  C329  1  0.49920000  0.87890000  0.25170000  1
  C  C330  1  0.50080000  0.12110000  0.74830000  1
  C  C331  1  0.50850000  0.90140000  0.29240000  1
  C  C332  1  0.51050000  0.88200000  0.44780000  1
  C  C333  1  0.51750000  0.21640000  0.49960000  1
  C  C334  1  0.54200000  0.76760000  0.51290000  1
  C  C335  1  0.54640000  0.85480000  0.22640000  1
  C  C336  1  0.55370000  0.57190000  0.01360000  1
  C  C337  1  0.55400000  0.55980000  0.10620000  1
  C  C338  1  0.56210000  0.12460000  0.76290000  1
  C  C339  1  0.56370000  0.67120000  0.74430000  1
  C  C340  1  0.56470000  0.58010000  0.83700000  1
  C  C341  1  0.56480000  0.89990000  0.30800000  1
  C  C342  1  0.56980000  0.86940000  0.46080000  1
  C  C343  1  0.57060000  0.64550000  0.80110000  1
  C  C344  1  0.57080000  0.73210000  0.71340000  1
  C  C345  1  0.57180000  0.87870000  0.73350000  1
  C  C346  1  0.57850000  0.93750000  0.70530000  1
  C  C347  1  0.58200000  0.77200000  0.73920000  1
  C  C348  1  0.58250000  0.68310000  0.82920000  1
  C  C349  1  0.58310000  0.81050000  0.49640000  1
  C  C350  1  0.58730000  0.74480000  0.79900000  1
  C  C351  1  0.58830000  0.83770000  0.70550000  1
  C  C352  1  0.59080000  0.38130000  0.11200000  1
  C  C353  1  0.59760000  0.34570000  0.17060000  1
  C  C354  1  0.59980000  0.96250000  0.64670000  1
  C  C355  1  0.60270000  0.85330000  0.24200000  1
  C  C356  1  0.60760000  0.02780000  0.61470000  1
  C  C357  1  0.60880000  0.86050000  0.64900000  1
  C  C358  1  0.61190000  0.87590000  0.28270000  1
  C  C359  1  0.61420000  0.37690000  0.79490000  1
  C  C360  1  0.61450000  0.58430000  0.99980000  1
  C  C361  1  0.61460000  0.56920000  0.10050000  1
  C  C362  1  0.61690000  0.28990000  0.29290000  1
  C  C363  1  0.61700000  0.92470000  0.61720000  1
  C  C364  1  0.61840000  0.34910000  0.75570000  1
  C  C365  1  0.62590000  0.29010000  0.67540000  1
  C  C366  1  0.62730000  0.44510000  0.01120000  1
  C  C367  1  0.62840000  0.25240000  0.35090000  1
  C  C368  1  0.63260000  0.26320000  0.63480000  1
  C  C369  1  0.63600000  0.41270000  0.07390000  1
  C  C370  1  0.64380000  0.58200000  0.04430000  1
  C  C371  1  0.65090000  0.42120000  0.85250000  1
  C  C372  1  0.65180000  0.34920000  0.18870000  1
  C  C373  1  0.66010000  0.39660000  0.80890000  1
  C  C374  1  0.66290000  0.31330000  0.24880000  1
  C  C375  1  0.66810000  0.75680000  0.53330000  1
  C  C376  1  0.67000000  0.12000000  0.73030000  1
  C  C377  1  0.67000000  0.34200000  0.72640000  1
  C  C378  1  0.67330000  0.88910000  0.29240000  1
  C  C379  1  0.67570000  0.31560000  0.68490000  1
  C  C380  1  0.68560000  0.25760000  0.60670000  1
  C  C381  1  0.68630000  0.23700000  0.36250000  1
  C  C382  1  0.68850000  0.41710000  0.09180000  1
  C  C383  1  0.69040000  0.22260000  0.57110000  1
  C  C384  1  0.69260000  0.14080000  0.76670000  1
  C  C385  1  0.69670000  0.38840000  0.14920000  1
  C  C386  1  0.69880000  0.19850000  0.42160000  1
  C  C387  1  0.71060000  0.10460000  0.68940000  1
  C  C388  1  0.71410000  0.39150000  0.77860000  1
  C  C389  1  0.71630000  0.36580000  0.74020000  1
  C  C390  1  0.71940000  0.29390000  0.26090000  1
  C  C391  1  0.72920000  0.30810000  0.65510000  1
  C  C392  1  0.72930000  0.75530000  0.54420000  1
  C  C393  1  0.73060000  0.69580000  0.75790000  1
  C  C394  1  0.73130000  0.25700000  0.31590000  1
  C  C395  1  0.73470000  0.27980000  0.61750000  1
  C  C396  1  0.73470000  0.61970000  0.85880000  1
  C  C397  1  0.73750000  0.75510000  0.71490000  1
  C  C398  1  0.74230000  0.68290000  0.81080000  1
  C  C399  1  0.74270000  0.59270000  0.06550000  1
  C  C400  1  0.74610000  0.90980000  0.69960000  1
  C  C401  1  0.75200000  0.71240000  0.59420000  1
  C  C402  1  0.75200000  0.96800000  0.65720000  1
  C  C403  1  0.75300000  0.14860000  0.76100000  1
  C  C404  1  0.75550000  0.80100000  0.72700000  1
  C  C405  1  0.75880000  0.72600000  0.82600000  1
  C  C406  1  0.76160000  0.86250000  0.68290000  1
  C  C407  1  0.76610000  0.78550000  0.78340000  1
  C  C408  1  0.76810000  0.11440000  0.68790000  1
  C  C409  1  0.77020000  0.98310000  0.59870000  1
  C  C410  1  0.77080000  0.79610000  0.49790000  1
  C  C411  1  0.77310000  0.85620000  0.28680000  1
  C  C412  1  0.77650000  0.04320000  0.55660000  1
  C  C413  1  0.78140000  0.87800000  0.62360000  1
  C  C414  1  0.78660000  0.93620000  0.58290000  1
  C  C415  1  0.79210000  0.86950000  0.32740000  1
  C  C416  1  0.80920000  0.71610000  0.60000000  1
  C  C417  1  0.80940000  0.58950000  0.05000000  1
  C  C418  1  0.81260000  0.83170000  0.25290000  1
  C  C419  1  0.81840000  0.47500000  0.95590000  1
  C  C420  1  0.83080000  0.79770000  0.50580000  1
  C  C421  1  0.83170000  0.45070000  0.88210000  1
  C  C422  1  0.83880000  0.60940000  0.99310000  1
  C  C423  1  0.84190000  0.56780000  0.09600000  1
  C  C424  1  0.85180000  0.75980000  0.55430000  1
  C  C425  1  0.85180000  0.86430000  0.33530000  1
  C  C426  1  0.86960000  0.81930000  0.26810000  1
  C  C427  1  0.87720000  0.45970000  0.96890000  1
  C  C428  1  0.88290000  0.20470000  0.52920000  1
  C  C429  1  0.88510000  0.37710000  0.65400000  1
  C  C430  1  0.88760000  0.26870000  0.67200000  1
  C  C431  1  0.89030000  0.43900000  0.61620000  1
  C  C432  1  0.89320000  0.33290000  0.63310000  1
  C  C433  1  0.89540000  0.43710000  0.88830000  1
  C  C434  1  0.90000000  0.18260000  0.45030000  1
  C  C435  1  0.90070000  0.60770000  0.98210000  1
  C  C436  1  0.90340000  0.56540000  0.53820000  1
  C  C437  1  0.90350000  0.45690000  0.55780000  1
  C  C438  1  0.90380000  0.56600000  0.08500000  1
  C  C439  1  0.90410000  0.35000000  0.57420000  1
  C  C440  1  0.91040000  0.40990000  0.53430000  1
  C  C441  1  0.91090000  0.62610000  0.50130000  1
  C  C442  1  0.91150000  0.76570000  0.56850000  1
  C  C443  1  0.91160000  0.43950000  0.93770000  1
  C  C444  1  0.91200000  0.51960000  0.51940000  1
  C  C445  1  0.92670000  0.04870000  0.89830000  1
  C  C446  1  0.92720000  0.04670000  0.58570000  1
  C  C447  1  0.93250000  0.53960000  0.46120000  1
  C  C448  1  0.93320000  0.58600000  0.02800000  1
  C  C449  1  0.93500000  0.64200000  0.44480000  1
  C  C450  1  0.93860000  0.01930000  0.54570000  1
  C  C451  1  0.93980000  0.01640000  0.95520000  1
  C  C452  1  0.94130000  0.21720000  0.52570000  1
  C  C453  1  0.94480000  0.60140000  0.42280000  1
  C  C454  1  0.94850000  0.70600000  0.40490000  1
  C  C455  1  0.95400000  0.12100000  0.79750000  1
  C  C456  1  0.95900000  0.96390000  0.46340000  1
  C  C457  1  0.96140000  0.19490000  0.44050000  1
  C  C458  1  0.96190000  0.10020000  0.64300000  1
  C  C459  1  0.96770000  0.08710000  0.85640000  1
  C  C460  1  0.96860000  0.93850000  0.06860000  1
  C  C461  1  0.97000000  0.93480000  0.42550000  1
  C  C462  1  0.97370000  0.06750000  0.60320000  1
  C  C463  1  0.97900000  0.90760000  0.12790000  1
  C  C464  1  0.98210000  0.21360000  0.47990000  1
  C  C465  1  0.99390000  0.01880000  0.96920000  1
  C  C466  1  0.99400000  0.01370000  0.52160000  1
  C  C467  1  0.99990000  0.57820000  0.02310000  1
  N  N468  1  0.02920000  0.58020000  0.05980000  1
  N  N469  1  0.04250000  0.22670000  0.47840000  1
  N  N470  1  0.11260000  0.16500000  0.68960000  1
  N  N471  1  0.13990000  0.81190000  0.50650000  1
  N  N472  1  0.20210000  0.53150000  0.08400000  1
  N  N473  1  0.20780000  0.86500000  0.27840000  1
  N  N474  1  0.28400000  0.14290000  0.72050000  1
  N  N475  1  0.29350000  0.40710000  0.97020000  1
  N  N476  1  0.35770000  0.19940000  0.49560000  1
  N  N477  1  0.39070000  0.89120000  0.26950000  1
  N  N478  1  0.46820000  0.83980000  0.47060000  1
  N  N479  1  0.47630000  0.44520000  0.93440000  1
  N  N480  1  0.52370000  0.55480000  0.06560000  1
  N  N481  1  0.53180000  0.16020000  0.52940000  1
  N  N482  1  0.60930000  0.10880000  0.73050000  1
  N  N483  1  0.64230000  0.80060000  0.50440000  1
  N  N484  1  0.70650000  0.59290000  0.02980000  1
  N  N485  1  0.71600000  0.85710000  0.27950000  1
  N  N486  1  0.79220000  0.13500000  0.72160000  1
  N  N487  1  0.79790000  0.46850000  0.91600000  1
  N  N488  1  0.86010000  0.18810000  0.49350000  1
  N  N489  1  0.88740000  0.83500000  0.31040000  1
  N  N490  1  0.95750000  0.77330000  0.52160000  1
  N  N491  1  0.97080000  0.41980000  0.94020000  1
  O  O492  1  0.00550000  0.12530000  0.65050000  1
  O  O493  1  0.00620000  0.84220000  0.23980000  1
  O  O494  1  0.01920000  0.57160000  0.97520000  1
  O  O495  1  0.03460000  0.27860000  0.64910000  1
  O  O496  1  0.05780000  0.25140000  0.57580000  1
  O  O497  1  0.07890000  0.23990000  0.38450000  1
  O  O498  1  0.08970000  0.89720000  0.33440000  1
  O  O499  1  0.09170000  0.77050000  0.34830000  1
  O  O500  1  0.09540000  0.88890000  0.21380000  1
  O  O501  1  0.13620000  0.74910000  0.27650000  1
  O  O502  1  0.20070000  0.94130000  0.49520000  1
  O  O503  1  0.24590000  0.91350000  0.42780000  1
  O  O504  1  0.24870000  0.80350000  0.56960000  1
  O  O505  1  0.25640000  0.39500000  0.09050000  1
  O  O506  1  0.25870000  0.78210000  0.45580000  1
  O  O507  1  0.27760000  0.41420000  0.88150000  1
  O  O508  1  0.27950000  0.42090000  0.16060000  1
  O  O509  1  0.30390000  0.55010000  0.14530000  1
  O  O510  1  0.31450000  0.07040000  0.68990000  1
  O  O511  1  0.32510000  0.52990000  0.02310000  1
  O  O512  1  0.34860000  0.82370000  0.54280000  1
  O  O513  1  0.35610000  0.80660000  0.42780000  1
  O  O514  1  0.36150000  0.29330000  0.43460000  1
  O  O515  1  0.37790000  0.95040000  0.44150000  1
  O  O516  1  0.39800000  0.57820000  0.11910000  1
  O  O517  1  0.40420000  0.93690000  0.35940000  1
  O  O518  1  0.42100000  0.55970000  0.00430000  1
  O  O519  1  0.42410000  0.44270000  0.11150000  1
  O  O520  1  0.43240000  0.85110000  0.20080000  1
  O  O521  1  0.44980000  0.45450000  0.18780000  1
  O  O522  1  0.55020000  0.54550000  0.81220000  1
  O  O523  1  0.56760000  0.14890000  0.79920000  1
  O  O524  1  0.57590000  0.55730000  0.88850000  1
  O  O525  1  0.57900000  0.44030000  0.99570000  1
  O  O526  1  0.59580000  0.06310000  0.64060000  1
  O  O527  1  0.60200000  0.42180000  0.88090000  1
  O  O528  1  0.62210000  0.04960000  0.55850000  1
  O  O529  1  0.63850000  0.70670000  0.56540000  1
  O  O530  1  0.64390000  0.19340000  0.57220000  1
  O  O531  1  0.65140000  0.17630000  0.45720000  1
  O  O532  1  0.67490000  0.47010000  0.97690000  1
  O  O533  1  0.68550000  0.92960000  0.31010000  1
  O  O534  1  0.69610000  0.44990000  0.85470000  1
  O  O535  1  0.72050000  0.57910000  0.83940000  1
  O  O536  1  0.72240000  0.58580000  0.11850000  1
  O  O537  1  0.74130000  0.21790000  0.54420000  1
  O  O538  1  0.74360000  0.60500000  0.90950000  1
  O  O539  1  0.75130000  0.19650000  0.43040000  1
  O  O540  1  0.75410000  0.08650000  0.57220000  1
  O  O541  1  0.79930000  0.05870000  0.50480000  1
  O  O542  1  0.86380000  0.25090000  0.72350000  1
  O  O543  1  0.90460000  0.11110000  0.78620000  1
  O  O544  1  0.90830000  0.22950000  0.65170000  1
  O  O545  1  0.91030000  0.10280000  0.66560000  1
  O  O546  1  0.92110000  0.76010000  0.61550000  1
  O  O547  1  0.94220000  0.74860000  0.42420000  1
  O  O548  1  0.96540000  0.72140000  0.35090000  1
  O  O549  1  0.98080000  0.42840000  0.02480000  1
  O  O550  1  0.99380000  0.15780000  0.76020000  1
  O  O551  1  0.99450000  0.87470000  0.34950000  1
