# generated using pymatgen
data_Eu2H18C42(SO6)3
_symmetry_space_group_name_H-M   'P 1'
_cell_length_a   14.86020000
_cell_length_b   18.92190000
_cell_length_c   29.77400000
_cell_angle_alpha   98.08910000
_cell_angle_beta   90.00000000
_cell_angle_gamma   113.12100000
_symmetry_Int_Tables_number   1
_chemical_formula_structural   Eu2H18C42(SO6)3
_chemical_formula_sum   'Eu8 H72 C168 S12 O72'
_cell_volume   7608.83914520
_cell_formula_units_Z   4
loop_
 _symmetry_equiv_pos_site_id
 _symmetry_equiv_pos_as_xyz
  1  'x, y, z'
loop_
 _atom_site_type_symbol
 _atom_site_label
 _atom_site_symmetry_multiplicity
 _atom_site_fract_x
 _atom_site_fract_y
 _atom_site_fract_z
 _atom_site_occupancy
  Eu  Eu0  1  0.19345000  0.58070000  0.14105000  1
  Eu  Eu1  1  0.35954000  0.82591000  0.15621000  1
  Eu  Eu2  1  0.38725000  0.58070000  0.64105000  1
  Eu  Eu3  1  0.46637000  0.82591000  0.65621000  1
  Eu  Eu4  1  0.53363000  0.17409000  0.34379000  1
  Eu  Eu5  1  0.61275000  0.41930000  0.35895000  1
  Eu  Eu6  1  0.64046000  0.17409000  0.84379000  1
  Eu  Eu7  1  0.80655000  0.41930000  0.85895000  1
  H  H8  1  0.01130000  0.29800000  0.74760000  1
  H  H9  1  0.04600000  0.57020000  0.64130000  1
  H  H10  1  0.05290000  0.38240000  0.85520000  1
  H  H11  1  0.05370000  0.14560000  0.34830000  1
  H  H12  1  0.06470000  0.85180000  0.15540000  1
  H  H13  1  0.09190000  0.14560000  0.84830000  1
  H  H14  1  0.10150000  0.83520000  0.64950000  1
  H  H15  1  0.10660000  0.33060000  0.59840000  1
  H  H16  1  0.13670000  0.59960000  0.36080000  1
  H  H17  1  0.14180000  0.61060000  0.28470000  1
  H  H18  1  0.14540000  0.81940000  0.25220000  1
  H  H19  1  0.15350000  0.40180000  0.73450000  1
  H  H20  1  0.16760000  0.59380000  0.44270000  1
  H  H21  1  0.21290000  0.14820000  0.34460000  1
  H  H22  1  0.22400000  0.33060000  0.09840000  1
  H  H23  1  0.22810000  0.59980000  0.51570000  1
  H  H24  1  0.23170000  0.79740000  0.65070000  1
  H  H25  1  0.24830000  0.40180000  0.23450000  1
  H  H26  1  0.26180000  0.95120000  0.40040000  1
  H  H27  1  0.26630000  0.16480000  0.85050000  1
  H  H28  1  0.28650000  0.93360000  0.26370000  1
  H  H29  1  0.28670000  0.29800000  0.24760000  1
  H  H30  1  0.31060000  0.04880000  0.09960000  1
  H  H31  1  0.32600000  0.18060000  0.24780000  1
  H  H32  1  0.32950000  0.38240000  0.35520000  1
  H  H33  1  0.33940000  0.79960000  0.00480000  1
  H  H34  1  0.35290000  0.06640000  0.23630000  1
  H  H35  1  0.37170000  0.59980000  0.01570000  1
  H  H36  1  0.38680000  0.81000000  0.30970000  1
  H  H37  1  0.42320000  0.81000000  0.80970000  1
  H  H38  1  0.42620000  0.59380000  0.94270000  1
  H  H39  1  0.43430000  0.20260000  0.84930000  1
  H  H40  1  0.46020000  0.79960000  0.50480000  1
  H  H41  1  0.46290000  0.59960000  0.86080000  1
  H  H42  1  0.46880000  0.61060000  0.78470000  1
  H  H43  1  0.47580000  0.42980000  0.85870000  1
  H  H44  1  0.52420000  0.57020000  0.14130000  1
  H  H45  1  0.53120000  0.38940000  0.21530000  1
  H  H46  1  0.53710000  0.40040000  0.13920000  1
  H  H47  1  0.53980000  0.20040000  0.49520000  1
  H  H48  1  0.56570000  0.79740000  0.15070000  1
  H  H49  1  0.57380000  0.40620000  0.05730000  1
  H  H50  1  0.57680000  0.19000000  0.19030000  1
  H  H51  1  0.61320000  0.19000000  0.69030000  1
  H  H52  1  0.62830000  0.40020000  0.98430000  1
  H  H53  1  0.64710000  0.93360000  0.76370000  1
  H  H54  1  0.66060000  0.20040000  0.99520000  1
  H  H55  1  0.67050000  0.61760000  0.64480000  1
  H  H56  1  0.67400000  0.81940000  0.75220000  1
  H  H57  1  0.68940000  0.95120000  0.90040000  1
  H  H58  1  0.71330000  0.70200000  0.75240000  1
  H  H59  1  0.71350000  0.06640000  0.73630000  1
  H  H60  1  0.73370000  0.83520000  0.14950000  1
  H  H61  1  0.73820000  0.04880000  0.59960000  1
  H  H62  1  0.75170000  0.59820000  0.76550000  1
  H  H63  1  0.76830000  0.20260000  0.34930000  1
  H  H64  1  0.77190000  0.40020000  0.48430000  1
  H  H65  1  0.77600000  0.66940000  0.90160000  1
  H  H66  1  0.78710000  0.85180000  0.65540000  1
  H  H67  1  0.83240000  0.40620000  0.55730000  1
  H  H68  1  0.84650000  0.59820000  0.26550000  1
  H  H69  1  0.85460000  0.18060000  0.74780000  1
  H  H70  1  0.85820000  0.38940000  0.71530000  1
  H  H71  1  0.86330000  0.40040000  0.63920000  1
  H  H72  1  0.89340000  0.66940000  0.40160000  1
  H  H73  1  0.89850000  0.16480000  0.35050000  1
  H  H74  1  0.90810000  0.85440000  0.15170000  1
  H  H75  1  0.93530000  0.14820000  0.84460000  1
  H  H76  1  0.94630000  0.85440000  0.65170000  1
  H  H77  1  0.94710000  0.61760000  0.14480000  1
  H  H78  1  0.95400000  0.42980000  0.35870000  1
  H  H79  1  0.98870000  0.70200000  0.25240000  1
  C  C80  1  0.00165000  0.27250000  0.35120000  1
  C  C81  1  0.00230000  0.26260000  0.63680000  1
  C  C82  1  0.00820000  0.80440000  0.15230000  1
  C  C83  1  0.01878000  0.35016000  0.35400000  1
  C  C84  1  0.01974000  0.73488000  0.14890000  1
  C  C85  1  0.02653000  0.74906000  0.31920000  1
  C  C86  1  0.03017000  0.30394000  0.71740000  1
  C  C87  1  0.05790000  0.62380000  0.64430000  1
  C  C88  1  0.05967000  0.33414000  0.85330000  1
  C  C89  1  0.08460000  0.19340000  0.84870000  1
  C  C90  1  0.08738000  0.32396000  0.62840000  1
  C  C91  1  0.09030000  0.78220000  0.64920000  1
  C  C92  1  0.09720000  0.26180000  0.35040000  1
  C  C93  1  0.10880000  0.19340000  0.34870000  1
  C  C94  1  0.11456000  0.36552000  0.70950000  1
  C  C95  1  0.11811000  0.81942000  0.31950000  1
  C  C96  1  0.12241000  0.73802000  0.14785000  1
  C  C97  1  0.14307000  0.37514000  0.66570000  1
  C  C98  1  0.15154000  0.68108000  0.64710000  1
  C  C99  1  0.15292000  0.32984000  0.85260000  1
  C  C100  1  0.15328000  0.85756000  0.36234000  1
  C  C101  1  0.16460000  0.26180000  0.85040000  1
  C  C102  1  0.16650000  0.75920000  0.64920000  1
  C  C103  1  0.16828000  0.84656000  0.28206000  1
  C  C104  1  0.17692000  0.32984000  0.35260000  1
  C  C105  1  0.18906000  0.64092000  0.35030000  1
  C  C106  1  0.19148000  0.64856000  0.30550000  1
  C  C107  1  0.20380000  0.19560000  0.34770000  1
  C  C108  1  0.20823000  0.44366000  0.15830000  1
  C  C109  1  0.22782000  0.63444000  0.45480000  1
  C  C110  1  0.23207000  0.37514000  0.16570000  1
  C  C111  1  0.23543000  0.44366000  0.65830000  1
  C  C112  1  0.23658000  0.32396000  0.12840000  1
  C  C113  1  0.23846000  0.92532000  0.37040000  1
  C  C114  1  0.23990000  0.66020000  0.64821000  1
  C  C115  1  0.25096000  0.36552000  0.20950000  1
  C  C116  1  0.25223000  0.91386000  0.28910000  1
  C  C117  1  0.26030000  0.26260000  0.13680000  1
  C  C118  1  0.26400000  0.63860000  0.49790000  1
  C  C119  1  0.26432000  0.69444000  0.38060000  1
  C  C120  1  0.26533000  0.71106000  0.28900000  1
  C  C121  1  0.26755000  0.71610000  0.23910000  1
  C  C122  1  0.27085000  0.27250000  0.85120000  1
  C  C123  1  0.27377000  0.30394000  0.21740000  1
  C  C124  1  0.27447000  0.33414000  0.35330000  1
  C  C125  1  0.27747000  0.25094000  0.18080000  1
  C  C126  1  0.28195000  0.69150000  0.42900000  1
  C  C127  1  0.28486000  0.26512000  0.35110000  1
  C  C128  1  0.28781000  0.95362000  0.33290000  1
  C  C129  1  0.29572000  0.14244000  0.13766000  1
  C  C130  1  0.29869000  0.18058000  0.18050000  1
  C  C131  1  0.30156000  0.69492000  0.06168000  1
  C  C132  1  0.30810000  0.21780000  0.85080000  1
  C  C133  1  0.31314000  0.07468000  0.12960000  1
  C  C134  1  0.32172000  0.15344000  0.21794000  1
  C  C135  1  0.33138000  0.35016000  0.85400000  1
  C  C136  1  0.33419000  0.04638000  0.16710000  1
  C  C137  1  0.33498000  0.75576000  0.36470000  1
  C  C138  1  0.33716000  0.76612000  0.31950000  1
  C  C139  1  0.33837000  0.08614000  0.21090000  1
  C  C140  1  0.34616000  0.69812000  0.01652000  1
  C  C141  1  0.34945000  0.97250000  0.16076000  1
  C  C142  1  0.35196000  0.69812000  0.51652000  1
  C  C143  1  0.35399000  0.75678000  0.99180000  1
  C  C144  1  0.36841000  0.75182000  0.44820000  1
  C  C145  1  0.37460000  0.63860000  0.99790000  1
  C  C146  1  0.37695000  0.02750000  0.33924000  1
  C  C147  1  0.38341000  0.75182000  0.94820000  1
  C  C148  1  0.38439000  0.26198000  0.35215000  1
  C  C149  1  0.39336000  0.69492000  0.56168000  1
  C  C150  1  0.40279000  0.75678000  0.49180000  1
  C  C151  1  0.40662000  0.63444000  0.95480000  1
  C  C152  1  0.40730000  0.24080000  0.85080000  1
  C  C153  1  0.40955000  0.69150000  0.92900000  1
  C  C154  1  0.42030000  0.66020000  0.14821000  1
  C  C155  1  0.42078000  0.75576000  0.86470000  1
  C  C156  1  0.42896000  0.76612000  0.81950000  1
  C  C157  1  0.43012000  0.69444000  0.88060000  1
  C  C158  1  0.43410000  0.37620000  0.85570000  1
  C  C159  1  0.44573000  0.71106000  0.78900000  1
  C  C160  1  0.44855000  0.71610000  0.73910000  1
  C  C161  1  0.45186000  0.64092000  0.85030000  1
  C  C162  1  0.45708000  0.64856000  0.80550000  1
  C  C163  1  0.47046000  0.31892000  0.85290000  1
  C  C164  1  0.52954000  0.68108000  0.14710000  1
  C  C165  1  0.54292000  0.35144000  0.19450000  1
  C  C166  1  0.54814000  0.35908000  0.14970000  1
  C  C167  1  0.55145000  0.28390000  0.26090000  1
  C  C168  1  0.55427000  0.28894000  0.21100000  1
  C  C169  1  0.56590000  0.62380000  0.14430000  1
  C  C170  1  0.56988000  0.30556000  0.11940000  1
  C  C171  1  0.57104000  0.23388000  0.18050000  1
  C  C172  1  0.57922000  0.24424000  0.13530000  1
  C  C173  1  0.57970000  0.33980000  0.85179000  1
  C  C174  1  0.59045000  0.30850000  0.07100000  1
  C  C175  1  0.59270000  0.75920000  0.14920000  1
  C  C176  1  0.59338000  0.36556000  0.04520000  1
  C  C177  1  0.59721000  0.24322000  0.50820000  1
  C  C178  1  0.60664000  0.30508000  0.43832000  1
  C  C179  1  0.61561000  0.73802000  0.64785000  1
  C  C180  1  0.61659000  0.24818000  0.05180000  1
  C  C181  1  0.62305000  0.97250000  0.66076000  1
  C  C182  1  0.62540000  0.36140000  0.00210000  1
  C  C183  1  0.63159000  0.24818000  0.55180000  1
  C  C184  1  0.64601000  0.24322000  0.00820000  1
  C  C185  1  0.64804000  0.30188000  0.48348000  1
  C  C186  1  0.65055000  0.02750000  0.83924000  1
  C  C187  1  0.65384000  0.30188000  0.98348000  1
  C  C188  1  0.66163000  0.91386000  0.78910000  1
  C  C189  1  0.66284000  0.23388000  0.68050000  1
  C  C190  1  0.66502000  0.24424000  0.63530000  1
  C  C191  1  0.66581000  0.95362000  0.83290000  1
  C  C192  1  0.66862000  0.64984000  0.14600000  1
  C  C193  1  0.67828000  0.84656000  0.78206000  1
  C  C194  1  0.68686000  0.92532000  0.87040000  1
  C  C195  1  0.69190000  0.78220000  0.14920000  1
  C  C196  1  0.69844000  0.30508000  0.93832000  1
  C  C197  1  0.70131000  0.81942000  0.81950000  1
  C  C198  1  0.70428000  0.85756000  0.86234000  1
  C  C199  1  0.71219000  0.04638000  0.66710000  1
  C  C200  1  0.71514000  0.73488000  0.64890000  1
  C  C201  1  0.71805000  0.30850000  0.57100000  1
  C  C202  1  0.72253000  0.74906000  0.81920000  1
  C  C203  1  0.72553000  0.66586000  0.64670000  1
  C  C204  1  0.72623000  0.69606000  0.78260000  1
  C  C205  1  0.72915000  0.72750000  0.14880000  1
  C  C206  1  0.73245000  0.28390000  0.76090000  1
  C  C207  1  0.73467000  0.28894000  0.71100000  1
  C  C208  1  0.73568000  0.30556000  0.61940000  1
  C  C209  1  0.73600000  0.36140000  0.50210000  1
  C  C210  1  0.73970000  0.73740000  0.86320000  1
  C  C211  1  0.74777000  0.08614000  0.71090000  1
  C  C212  1  0.74904000  0.63448000  0.79050000  1
  C  C213  1  0.76010000  0.33980000  0.35179000  1
  C  C214  1  0.76154000  0.07468000  0.62960000  1
  C  C215  1  0.76342000  0.67604000  0.87160000  1
  C  C216  1  0.76457000  0.55634000  0.34170000  1
  C  C217  1  0.76793000  0.62486000  0.83430000  1
  C  C218  1  0.77218000  0.36556000  0.54520000  1
  C  C219  1  0.79177000  0.55634000  0.84170000  1
  C  C220  1  0.79620000  0.80440000  0.65230000  1
  C  C221  1  0.80852000  0.35144000  0.69450000  1
  C  C222  1  0.81094000  0.35908000  0.64970000  1
  C  C223  1  0.82308000  0.67016000  0.64740000  1
  C  C224  1  0.83172000  0.15344000  0.71794000  1
  C  C225  1  0.83350000  0.24080000  0.35080000  1
  C  C226  1  0.83540000  0.73820000  0.14960000  1
  C  C227  1  0.84672000  0.14244000  0.63766000  1
  C  C228  1  0.84708000  0.67016000  0.14740000  1
  C  C229  1  0.84846000  0.31892000  0.35290000  1
  C  C230  1  0.85693000  0.62486000  0.33430000  1
  C  C231  1  0.87759000  0.26198000  0.85215000  1
  C  C232  1  0.88189000  0.18058000  0.68050000  1
  C  C233  1  0.88544000  0.63448000  0.29050000  1
  C  C234  1  0.89120000  0.80660000  0.65130000  1
  C  C235  1  0.90280000  0.73820000  0.64960000  1
  C  C236  1  0.90970000  0.21780000  0.35080000  1
  C  C237  1  0.91262000  0.67604000  0.37160000  1
  C  C238  1  0.91540000  0.80660000  0.15130000  1
  C  C239  1  0.94033000  0.66586000  0.14670000  1
  C  C240  1  0.94210000  0.37620000  0.35570000  1
  C  C241  1  0.96983000  0.69606000  0.28260000  1
  C  C242  1  0.97347000  0.25094000  0.68080000  1
  C  C243  1  0.98026000  0.26512000  0.85110000  1
  C  C244  1  0.98122000  0.64984000  0.64600000  1
  C  C245  1  0.99180000  0.19560000  0.84770000  1
  C  C246  1  0.99770000  0.73740000  0.36320000  1
  C  C247  1  0.99835000  0.72750000  0.64880000  1
  S  S248  1  0.07866000  0.81094000  0.40418000  1
  S  S249  1  0.14313000  0.40958000  0.35285000  1
  S  S250  1  0.26645000  0.40958000  0.85285000  1
  S  S251  1  0.26772000  0.18906000  0.09582000  1
  S  S252  1  0.38670000  0.81254000  0.90804000  1
  S  S253  1  0.42584000  0.81254000  0.40804000  1
  S  S254  1  0.57416000  0.18746000  0.59196000  1
  S  S255  1  0.61330000  0.18746000  0.09196000  1
  S  S256  1  0.73228000  0.81094000  0.90418000  1
  S  S257  1  0.73355000  0.59042000  0.14715000  1
  S  S258  1  0.85687000  0.59042000  0.64715000  1
  S  S259  1  0.92134000  0.18906000  0.59582000  1
  O  O260  1  0.03123000  0.85846000  0.42671000  1
  O  O261  1  0.12917000  0.78074000  0.43257000  1
  O  O262  1  0.13010000  0.67440000  0.13597000  1
  O  O263  1  0.16075000  0.43950000  0.30960000  1
  O  O264  1  0.17277000  0.14154000  0.07329000  1
  O  O265  1  0.17880000  0.46380000  0.39350000  1
  O  O266  1  0.19114000  0.45088000  0.11784000  1
  O  O267  1  0.19180000  0.80260000  0.15932000  1
  O  O268  1  0.20686000  0.49052000  0.19191000  1
  O  O269  1  0.22137000  0.65354000  0.21329000  1
  O  O270  1  0.22672000  0.59064000  0.64572000  1
  O  O271  1  0.25974000  0.45088000  0.61784000  1
  O  O272  1  0.26699000  0.62998000  0.07494000  1
  O  O273  1  0.27875000  0.43950000  0.80960000  1
  O  O274  1  0.28366000  0.49052000  0.69191000  1
  O  O275  1  0.28500000  0.46380000  0.89350000  1
  O  O276  1  0.29040000  0.80800000  0.89816000  1
  O  O277  1  0.30213000  0.75806000  0.08251000  1
  O  O278  1  0.31467000  0.78094000  0.22768000  1
  O  O279  1  0.32360000  0.71440000  0.65234000  1
  O  O280  1  0.33987000  0.93394000  0.12191000  1
  O  O281  1  0.34843000  0.21926000  0.06743000  1
  O  O282  1  0.36299000  0.62998000  0.57494000  1
  O  O283  1  0.36392000  0.59064000  0.14572000  1
  O  O284  1  0.37352000  0.95084000  0.19559000  1
  O  O285  1  0.38920000  0.19740000  0.34068000  1
  O  O286  1  0.39080000  0.71440000  0.15234000  1
  O  O287  1  0.40593000  0.06606000  0.37809000  1
  O  O288  1  0.42268000  0.04916000  0.30441000  1
  O  O289  1  0.42493000  0.88866000  0.41957000  1
  O  O290  1  0.43217000  0.65354000  0.71329000  1
  O  O291  1  0.45570000  0.32560000  0.36403000  1
  O  O292  1  0.45593000  0.75806000  0.58251000  1
  O  O293  1  0.46373000  0.88866000  0.91957000  1
  O  O294  1  0.46627000  0.78094000  0.72768000  1
  O  O295  1  0.48240000  0.19200000  0.60184000  1
  O  O296  1  0.51760000  0.80800000  0.39816000  1
  O  O297  1  0.53373000  0.21906000  0.27232000  1
  O  O298  1  0.53627000  0.11134000  0.08043000  1
  O  O299  1  0.54407000  0.24194000  0.41749000  1
  O  O300  1  0.54430000  0.67440000  0.63597000  1
  O  O301  1  0.56783000  0.34646000  0.28671000  1
  O  O302  1  0.57507000  0.11134000  0.58043000  1
  O  O303  1  0.57732000  0.95084000  0.69559000  1
  O  O304  1  0.59407000  0.93394000  0.62191000  1
  O  O305  1  0.60920000  0.28560000  0.84766000  1
  O  O306  1  0.61080000  0.80260000  0.65932000  1
  O  O307  1  0.62648000  0.04916000  0.80441000  1
  O  O308  1  0.63608000  0.40936000  0.85428000  1
  O  O309  1  0.63701000  0.37002000  0.42506000  1
  O  O310  1  0.65157000  0.78074000  0.93257000  1
  O  O311  1  0.66013000  0.06606000  0.87809000  1
  O  O312  1  0.67640000  0.28560000  0.34766000  1
  O  O313  1  0.68533000  0.21906000  0.77232000  1
  O  O314  1  0.69787000  0.24194000  0.91749000  1
  O  O315  1  0.70960000  0.19200000  0.10184000  1
  O  O316  1  0.71500000  0.53620000  0.10650000  1
  O  O317  1  0.71634000  0.50948000  0.30809000  1
  O  O318  1  0.72125000  0.56050000  0.19040000  1
  O  O319  1  0.73301000  0.37002000  0.92506000  1
  O  O320  1  0.74026000  0.54912000  0.38216000  1
  O  O321  1  0.77328000  0.40936000  0.35428000  1
  O  O322  1  0.77863000  0.34646000  0.78671000  1
  O  O323  1  0.79314000  0.50948000  0.80809000  1
  O  O324  1  0.80820000  0.19740000  0.84068000  1
  O  O325  1  0.80886000  0.54912000  0.88216000  1
  O  O326  1  0.82120000  0.53620000  0.60650000  1
  O  O327  1  0.82723000  0.85846000  0.92671000  1
  O  O328  1  0.83925000  0.56050000  0.69040000  1
  O  O329  1  0.86990000  0.32560000  0.86403000  1
  O  O330  1  0.87083000  0.21926000  0.56743000  1
  O  O331  1  0.96877000  0.14154000  0.57329000  1
