# generated using pymatgen
data_CoH5C9O5
_symmetry_space_group_name_H-M   'P 1'
_cell_length_a   13.20520000
_cell_length_b   14.12080000
_cell_length_c   14.56610000
_cell_angle_alpha   90.00000000
_cell_angle_beta   114.03100000
_cell_angle_gamma   90.00000000
_symmetry_Int_Tables_number   1
_chemical_formula_structural   CoH5C9O5
_chemical_formula_sum   'Co8 H40 C72 O40'
_cell_volume   2480.69311141
_cell_formula_units_Z   8
loop_
 _symmetry_equiv_pos_site_id
 _symmetry_equiv_pos_as_xyz
  1  'x, y, z'
loop_
 _atom_site_type_symbol
 _atom_site_label
 _atom_site_symmetry_multiplicity
 _atom_site_fract_x
 _atom_site_fract_y
 _atom_site_fract_z
 _atom_site_occupancy
  Co  Co0  1  0.01780000  0.10208000  0.76107000  1
  Co  Co1  1  0.16239000  0.76693000  0.42467000  1
  Co  Co2  1  0.33761000  0.26693000  0.07533000  1
  Co  Co3  1  0.48220000  0.60208000  0.73893000  1
  Co  Co4  1  0.51780000  0.39792000  0.26107000  1
  Co  Co5  1  0.66239000  0.73307000  0.92467000  1
  Co  Co6  1  0.83761000  0.23307000  0.57533000  1
  Co  Co7  1  0.98220000  0.89792000  0.23893000  1
  H  H8  1  0.02860000  0.81420000  0.84970000  1
  H  H9  1  0.03710000  0.76470000  0.99810000  1
  H  H10  1  0.03890000  0.76270000  0.69510000  1
  H  H11  1  0.04530000  0.21570000  0.47670000  1
  H  H12  1  0.06410000  0.17280000  0.32070000  1
  H  H13  1  0.07430000  0.25380000  0.17780000  1
  H  H14  1  0.19470000  0.54740000  0.94000000  1
  H  H15  1  0.23880000  0.60260000  0.22370000  1
  H  H16  1  0.24550000  0.41970000  0.45670000  1
  H  H17  1  0.24590000  0.35530000  0.72420000  1
  H  H18  1  0.25410000  0.85530000  0.77580000  1
  H  H19  1  0.25450000  0.91970000  0.04330000  1
  H  H20  1  0.26120000  0.10260000  0.27630000  1
  H  H21  1  0.30530000  0.04740000  0.56000000  1
  H  H22  1  0.42570000  0.75380000  0.32220000  1
  H  H23  1  0.43590000  0.67280000  0.17930000  1
  H  H24  1  0.45470000  0.71570000  0.02330000  1
  H  H25  1  0.46110000  0.26270000  0.80490000  1
  H  H26  1  0.46290000  0.26470000  0.50190000  1
  H  H27  1  0.47140000  0.31420000  0.65030000  1
  H  H28  1  0.52860000  0.68580000  0.34970000  1
  H  H29  1  0.53710000  0.73530000  0.49810000  1
  H  H30  1  0.53890000  0.73730000  0.19510000  1
  H  H31  1  0.54530000  0.28430000  0.97670000  1
  H  H32  1  0.56410000  0.32720000  0.82070000  1
  H  H33  1  0.57430000  0.24620000  0.67780000  1
  H  H34  1  0.69470000  0.95260000  0.44000000  1
  H  H35  1  0.73880000  0.89740000  0.72370000  1
  H  H36  1  0.74550000  0.08030000  0.95670000  1
  H  H37  1  0.74590000  0.14470000  0.22420000  1
  H  H38  1  0.75410000  0.64470000  0.27580000  1
  H  H39  1  0.75450000  0.58030000  0.54330000  1
  H  H40  1  0.76120000  0.39740000  0.77630000  1
  H  H41  1  0.80530000  0.45260000  0.06000000  1
  H  H42  1  0.92570000  0.74620000  0.82220000  1
  H  H43  1  0.93590000  0.82720000  0.67930000  1
  H  H44  1  0.95470000  0.78430000  0.52330000  1
  H  H45  1  0.96110000  0.23730000  0.30490000  1
  H  H46  1  0.96290000  0.23530000  0.00190000  1
  H  H47  1  0.97140000  0.18580000  0.15030000  1
  C  C48  1  0.00600000  0.24300000  0.18630000  1
  C  C49  1  0.02960000  0.23350000  0.29540000  1
  C  C50  1  0.08610000  0.71410000  0.02060000  1
  C  C51  1  0.09700000  0.21870000  0.67110000  1
  C  C52  1  0.09910000  0.26160000  0.50710000  1
  C  C53  1  0.10320000  0.74790000  0.19340000  1
  C  C54  1  0.11110000  0.66160000  0.95370000  1
  C  C55  1  0.13380000  0.69160000  0.12210000  1
  C  C56  1  0.13870000  0.31590000  0.44980000  1
  C  C57  1  0.14000000  0.27580000  0.60990000  1
  C  C58  1  0.15660000  0.97360000  0.85410000  1
  C  C59  1  0.18040000  0.58400000  0.98640000  1
  C  C60  1  0.19570000  0.97690000  0.37630000  1
  C  C61  1  0.20560000  0.61620000  0.15530000  1
  C  C62  1  0.21850000  0.38380000  0.49540000  1
  C  C63  1  0.21950000  0.34530000  0.65530000  1
  C  C64  1  0.22910000  0.55990000  0.08800000  1
  C  C65  1  0.24070000  0.89940000  0.90180000  1
  C  C66  1  0.25930000  0.39940000  0.59820000  1
  C  C67  1  0.27090000  0.05990000  0.41200000  1
  C  C68  1  0.28050000  0.84530000  0.84470000  1
  C  C69  1  0.28150000  0.88380000  0.00460000  1
  C  C70  1  0.29440000  0.11620000  0.34470000  1
  C  C71  1  0.30430000  0.47690000  0.12370000  1
  C  C72  1  0.31960000  0.08400000  0.51360000  1
  C  C73  1  0.34340000  0.47360000  0.64590000  1
  C  C74  1  0.36000000  0.77580000  0.89010000  1
  C  C75  1  0.36130000  0.81590000  0.05020000  1
  C  C76  1  0.36620000  0.19160000  0.37790000  1
  C  C77  1  0.38890000  0.16160000  0.54630000  1
  C  C78  1  0.39680000  0.24790000  0.30660000  1
  C  C79  1  0.40090000  0.76160000  0.99290000  1
  C  C80  1  0.40300000  0.71870000  0.82890000  1
  C  C81  1  0.41390000  0.21410000  0.47940000  1
  C  C82  1  0.47040000  0.73350000  0.20460000  1
  C  C83  1  0.49400000  0.74300000  0.31370000  1
  C  C84  1  0.50600000  0.25700000  0.68630000  1
  C  C85  1  0.52960000  0.26650000  0.79540000  1
  C  C86  1  0.58610000  0.78590000  0.52060000  1
  C  C87  1  0.59700000  0.28130000  0.17110000  1
  C  C88  1  0.59910000  0.23840000  0.00710000  1
  C  C89  1  0.60320000  0.75210000  0.69340000  1
  C  C90  1  0.61110000  0.83840000  0.45370000  1
  C  C91  1  0.63380000  0.80840000  0.62210000  1
  C  C92  1  0.63870000  0.18410000  0.94980000  1
  C  C93  1  0.64000000  0.22420000  0.10990000  1
  C  C94  1  0.65660000  0.52640000  0.35410000  1
  C  C95  1  0.68040000  0.91600000  0.48640000  1
  C  C96  1  0.69570000  0.52310000  0.87630000  1
  C  C97  1  0.70560000  0.88380000  0.65530000  1
  C  C98  1  0.71850000  0.11620000  0.99540000  1
  C  C99  1  0.71950000  0.15470000  0.15530000  1
  C  C100  1  0.72910000  0.94010000  0.58800000  1
  C  C101  1  0.74070000  0.60060000  0.40180000  1
  C  C102  1  0.75930000  0.10060000  0.09820000  1
  C  C103  1  0.77090000  0.44010000  0.91200000  1
  C  C104  1  0.78050000  0.65470000  0.34470000  1
  C  C105  1  0.78150000  0.61620000  0.50460000  1
  C  C106  1  0.79440000  0.38380000  0.84470000  1
  C  C107  1  0.80430000  0.02310000  0.62370000  1
  C  C108  1  0.81960000  0.41600000  0.01360000  1
  C  C109  1  0.84340000  0.02640000  0.14590000  1
  C  C110  1  0.86000000  0.72420000  0.39010000  1
  C  C111  1  0.86130000  0.68410000  0.55020000  1
  C  C112  1  0.86620000  0.30840000  0.87790000  1
  C  C113  1  0.88890000  0.33840000  0.04630000  1
  C  C114  1  0.89680000  0.25210000  0.80660000  1
  C  C115  1  0.90090000  0.73840000  0.49290000  1
  C  C116  1  0.90300000  0.78130000  0.32890000  1
  C  C117  1  0.91390000  0.28590000  0.97940000  1
  C  C118  1  0.97040000  0.76650000  0.70460000  1
  C  C119  1  0.99400000  0.75700000  0.81370000  1
  O  O120  1  0.00490000  0.17460000  0.63110000  1
  O  O121  1  0.02590000  0.80770000  0.15750000  1
  O  O122  1  0.06770000  0.67730000  0.85110000  1
  O  O123  1  0.10200000  0.00850000  0.89830000  1
  O  O124  1  0.10250000  0.30900000  0.34820000  1
  O  O125  1  0.11440000  0.98340000  0.29140000  1
  O  O126  1  0.13620000  0.00120000  0.76820000  1
  O  O127  1  0.15170000  0.20910000  0.76430000  1
  O  O128  1  0.15420000  0.73370000  0.28440000  1
  O  O129  1  0.21780000  0.90530000  0.43240000  1
  O  O130  1  0.28220000  0.40530000  0.06760000  1
  O  O131  1  0.34580000  0.23370000  0.21560000  1
  O  O132  1  0.34830000  0.70910000  0.73570000  1
  O  O133  1  0.36380000  0.50120000  0.73180000  1
  O  O134  1  0.38560000  0.48340000  0.20860000  1
  O  O135  1  0.39750000  0.80900000  0.15180000  1
  O  O136  1  0.39800000  0.50850000  0.60170000  1
  O  O137  1  0.43230000  0.17730000  0.64890000  1
  O  O138  1  0.47410000  0.30770000  0.34250000  1
  O  O139  1  0.49510000  0.67460000  0.86890000  1
  O  O140  1  0.50490000  0.32540000  0.13110000  1
  O  O141  1  0.52590000  0.69230000  0.65750000  1
  O  O142  1  0.56770000  0.82270000  0.35110000  1
  O  O143  1  0.60200000  0.49150000  0.39830000  1
  O  O144  1  0.60250000  0.19100000  0.84820000  1
  O  O145  1  0.61440000  0.51660000  0.79140000  1
  O  O146  1  0.63620000  0.49880000  0.26820000  1
  O  O147  1  0.65170000  0.29090000  0.26430000  1
  O  O148  1  0.65420000  0.76630000  0.78440000  1
  O  O149  1  0.71780000  0.59470000  0.93240000  1
  O  O150  1  0.78220000  0.09470000  0.56760000  1
  O  O151  1  0.84580000  0.26630000  0.71560000  1
  O  O152  1  0.84830000  0.79090000  0.23570000  1
  O  O153  1  0.86380000  0.99880000  0.23180000  1
  O  O154  1  0.88560000  0.01660000  0.70860000  1
  O  O155  1  0.89750000  0.69100000  0.65180000  1
  O  O156  1  0.89800000  0.99150000  0.10170000  1
  O  O157  1  0.93230000  0.32270000  0.14890000  1
  O  O158  1  0.97410000  0.19230000  0.84250000  1
  O  O159  1  0.99510000  0.82540000  0.36890000  1
