# generated using pymatgen
data_ZnH8C12(IN2)2
_symmetry_space_group_name_H-M   'P 1'
_cell_length_a   13.87200000
_cell_length_b   28.40000000
_cell_length_c   44.18000000
_cell_angle_alpha   90.00000000
_cell_angle_beta   90.00000000
_cell_angle_gamma   90.00000000
_symmetry_Int_Tables_number   1
_chemical_formula_structural   ZnH8C12(IN2)2
_chemical_formula_sum   'Zn24 H192 C288 I48 N96'
_cell_volume   17405.36486400
_cell_formula_units_Z   24
loop_
 _symmetry_equiv_pos_site_id
 _symmetry_equiv_pos_as_xyz
  1  'x, y, z'
loop_
 _atom_site_type_symbol
 _atom_site_label
 _atom_site_symmetry_multiplicity
 _atom_site_fract_x
 _atom_site_fract_y
 _atom_site_fract_z
 _atom_site_occupancy
  Zn  Zn0  1  0.11592000  0.48005000  0.41388000  1
  Zn  Zn1  1  0.11592000  0.98005000  0.08612000  1
  Zn  Zn2  1  0.13849000  0.44930000  0.08682000  1
  Zn  Zn3  1  0.13849000  0.94930000  0.41318000  1
  Zn  Zn4  1  0.18164000  0.26357000  0.81972000  1
  Zn  Zn5  1  0.18164000  0.76357000  0.68028000  1
  Zn  Zn6  1  0.31836000  0.26357000  0.31972000  1
  Zn  Zn7  1  0.31836000  0.76357000  0.18028000  1
  Zn  Zn8  1  0.36151000  0.44930000  0.58682000  1
  Zn  Zn9  1  0.36151000  0.94930000  0.91318000  1
  Zn  Zn10  1  0.38408000  0.48005000  0.91388000  1
  Zn  Zn11  1  0.38408000  0.98005000  0.58612000  1
  Zn  Zn12  1  0.61592000  0.01995000  0.41388000  1
  Zn  Zn13  1  0.61592000  0.51995000  0.08612000  1
  Zn  Zn14  1  0.63849000  0.05070000  0.08682000  1
  Zn  Zn15  1  0.63849000  0.55070000  0.41318000  1
  Zn  Zn16  1  0.68164000  0.23643000  0.81972000  1
  Zn  Zn17  1  0.68164000  0.73643000  0.68028000  1
  Zn  Zn18  1  0.81836000  0.23643000  0.31972000  1
  Zn  Zn19  1  0.81836000  0.73643000  0.18028000  1
  Zn  Zn20  1  0.86151000  0.05070000  0.58682000  1
  Zn  Zn21  1  0.86151000  0.55070000  0.91318000  1
  Zn  Zn22  1  0.88408000  0.01995000  0.91388000  1
  Zn  Zn23  1  0.88408000  0.51995000  0.58612000  1
  H  H24  1  0.00140000  0.20990000  0.72840000  1
  H  H25  1  0.00140000  0.70990000  0.77160000  1
  H  H26  1  0.01680000  0.34160000  0.16700000  1
  H  H27  1  0.01680000  0.84160000  0.33300000  1
  H  H28  1  0.02440000  0.03320000  0.96510000  1
  H  H29  1  0.02440000  0.53320000  0.53490000  1
  H  H30  1  0.02730000  0.21680000  0.33480000  1
  H  H31  1  0.02730000  0.71680000  0.16520000  1
  H  H32  1  0.03470000  0.07470000  0.88040000  1
  H  H33  1  0.03470000  0.57470000  0.61960000  1
  H  H34  1  0.03760000  0.08830000  0.17160000  1
  H  H35  1  0.03760000  0.58830000  0.32840000  1
  H  H36  1  0.04510000  0.41230000  0.14230000  1
  H  H37  1  0.04510000  0.91230000  0.35770000  1
  H  H38  1  0.04900000  0.03250000  0.55660000  1
  H  H39  1  0.04900000  0.53250000  0.94340000  1
  H  H40  1  0.06060000  0.01760000  0.14630000  1
  H  H41  1  0.06060000  0.51760000  0.35370000  1
  H  H42  1  0.06310000  0.20510000  0.77720000  1
  H  H43  1  0.06310000  0.70510000  0.72280000  1
  H  H44  1  0.06940000  0.34890000  0.72720000  1
  H  H45  1  0.06940000  0.84890000  0.77280000  1
  H  H46  1  0.07650000  0.15520000  0.09230000  1
  H  H47  1  0.07650000  0.65520000  0.40770000  1
  H  H48  1  0.09760000  0.08270000  0.06920000  1
  H  H49  1  0.09760000  0.58270000  0.43080000  1
  H  H50  1  0.10000000  0.27280000  0.09150000  1
  H  H51  1  0.10000000  0.77280000  0.40850000  1
  H  H52  1  0.11960000  0.17680000  0.36990000  1
  H  H53  1  0.11960000  0.67680000  0.13010000  1
  H  H54  1  0.12790000  0.36910000  0.90750000  1
  H  H55  1  0.12790000  0.86910000  0.59250000  1
  H  H56  1  0.12800000  0.34580000  0.06890000  1
  H  H57  1  0.12800000  0.41100000  0.97650000  1
  H  H58  1  0.12800000  0.84580000  0.43110000  1
  H  H59  1  0.12800000  0.91100000  0.52350000  1
  H  H60  1  0.12890000  0.05070000  0.51210000  1
  H  H61  1  0.12890000  0.55070000  0.98790000  1
  H  H62  1  0.13580000  0.33910000  0.77570000  1
  H  H63  1  0.13580000  0.83910000  0.72430000  1
  H  H64  1  0.17880000  0.05760000  0.97340000  1
  H  H65  1  0.17880000  0.55760000  0.52660000  1
  H  H66  1  0.19170000  0.09930000  0.88620000  1
  H  H67  1  0.19170000  0.59930000  0.61380000  1
  H  H68  1  0.19780000  0.42680000  0.02230000  1
  H  H69  1  0.19780000  0.92680000  0.47770000  1
  H  H70  1  0.21170000  0.32930000  0.87020000  1
  H  H71  1  0.21170000  0.82930000  0.62980000  1
  H  H72  1  0.28830000  0.32930000  0.37020000  1
  H  H73  1  0.28830000  0.82930000  0.12980000  1
  H  H74  1  0.30220000  0.42680000  0.52230000  1
  H  H75  1  0.30220000  0.92680000  0.97770000  1
  H  H76  1  0.30830000  0.09930000  0.38620000  1
  H  H77  1  0.30830000  0.59930000  0.11380000  1
  H  H78  1  0.32120000  0.05760000  0.47340000  1
  H  H79  1  0.32120000  0.55760000  0.02660000  1
  H  H80  1  0.36420000  0.33910000  0.27570000  1
  H  H81  1  0.36420000  0.83910000  0.22430000  1
  H  H82  1  0.37110000  0.05070000  0.01210000  1
  H  H83  1  0.37110000  0.55070000  0.48790000  1
  H  H84  1  0.37200000  0.34580000  0.56890000  1
  H  H85  1  0.37200000  0.41100000  0.47650000  1
  H  H86  1  0.37200000  0.84580000  0.93110000  1
  H  H87  1  0.37200000  0.91100000  0.02350000  1
  H  H88  1  0.37210000  0.36910000  0.40750000  1
  H  H89  1  0.37210000  0.86910000  0.09250000  1
  H  H90  1  0.38040000  0.17680000  0.86990000  1
  H  H91  1  0.38040000  0.67680000  0.63010000  1
  H  H92  1  0.40000000  0.27280000  0.59150000  1
  H  H93  1  0.40000000  0.77280000  0.90850000  1
  H  H94  1  0.40240000  0.08270000  0.56920000  1
  H  H95  1  0.40240000  0.58270000  0.93080000  1
  H  H96  1  0.42350000  0.15520000  0.59230000  1
  H  H97  1  0.42350000  0.65520000  0.90770000  1
  H  H98  1  0.43060000  0.34890000  0.22720000  1
  H  H99  1  0.43060000  0.84890000  0.27280000  1
  H  H100  1  0.43690000  0.20510000  0.27720000  1
  H  H101  1  0.43690000  0.70510000  0.22280000  1
  H  H102  1  0.43940000  0.01760000  0.64630000  1
  H  H103  1  0.43940000  0.51760000  0.85370000  1
  H  H104  1  0.45100000  0.03250000  0.05660000  1
  H  H105  1  0.45100000  0.53250000  0.44340000  1
  H  H106  1  0.45490000  0.41230000  0.64230000  1
  H  H107  1  0.45490000  0.91230000  0.85770000  1
  H  H108  1  0.46240000  0.08830000  0.67160000  1
  H  H109  1  0.46240000  0.58830000  0.82840000  1
  H  H110  1  0.46530000  0.07470000  0.38040000  1
  H  H111  1  0.46530000  0.57470000  0.11960000  1
  H  H112  1  0.47270000  0.21680000  0.83480000  1
  H  H113  1  0.47270000  0.71680000  0.66520000  1
  H  H114  1  0.47560000  0.03320000  0.46510000  1
  H  H115  1  0.47560000  0.53320000  0.03490000  1
  H  H116  1  0.48320000  0.34160000  0.66700000  1
  H  H117  1  0.48320000  0.84160000  0.83300000  1
  H  H118  1  0.49860000  0.20990000  0.22840000  1
  H  H119  1  0.49860000  0.70990000  0.27160000  1
  H  H120  1  0.50140000  0.29010000  0.72840000  1
  H  H121  1  0.50140000  0.79010000  0.77160000  1
  H  H122  1  0.51680000  0.15840000  0.16700000  1
  H  H123  1  0.51680000  0.65840000  0.33300000  1
  H  H124  1  0.52440000  0.46680000  0.96510000  1
  H  H125  1  0.52440000  0.96680000  0.53490000  1
  H  H126  1  0.52730000  0.28320000  0.33480000  1
  H  H127  1  0.52730000  0.78320000  0.16520000  1
  H  H128  1  0.53470000  0.42530000  0.88040000  1
  H  H129  1  0.53470000  0.92530000  0.61960000  1
  H  H130  1  0.53760000  0.41170000  0.17160000  1
  H  H131  1  0.53760000  0.91170000  0.32840000  1
  H  H132  1  0.54510000  0.08770000  0.14230000  1
  H  H133  1  0.54510000  0.58770000  0.35770000  1
  H  H134  1  0.54900000  0.46750000  0.55660000  1
  H  H135  1  0.54900000  0.96750000  0.94340000  1
  H  H136  1  0.56060000  0.48240000  0.14630000  1
  H  H137  1  0.56060000  0.98240000  0.35370000  1
  H  H138  1  0.56310000  0.29490000  0.77720000  1
  H  H139  1  0.56310000  0.79490000  0.72280000  1
  H  H140  1  0.56940000  0.15110000  0.72720000  1
  H  H141  1  0.56940000  0.65110000  0.77280000  1
  H  H142  1  0.57650000  0.34480000  0.09230000  1
  H  H143  1  0.57650000  0.84480000  0.40770000  1
  H  H144  1  0.59760000  0.41730000  0.06920000  1
  H  H145  1  0.59760000  0.91730000  0.43080000  1
  H  H146  1  0.60000000  0.22720000  0.09150000  1
  H  H147  1  0.60000000  0.72720000  0.40850000  1
  H  H148  1  0.61960000  0.32320000  0.36990000  1
  H  H149  1  0.61960000  0.82320000  0.13010000  1
  H  H150  1  0.62790000  0.13090000  0.90750000  1
  H  H151  1  0.62790000  0.63090000  0.59250000  1
  H  H152  1  0.62800000  0.08900000  0.97650000  1
  H  H153  1  0.62800000  0.15420000  0.06890000  1
  H  H154  1  0.62800000  0.58900000  0.52350000  1
  H  H155  1  0.62800000  0.65420000  0.43110000  1
  H  H156  1  0.62890000  0.44930000  0.51210000  1
  H  H157  1  0.62890000  0.94930000  0.98790000  1
  H  H158  1  0.63580000  0.16090000  0.77570000  1
  H  H159  1  0.63580000  0.66090000  0.72430000  1
  H  H160  1  0.67880000  0.44240000  0.97340000  1
  H  H161  1  0.67880000  0.94240000  0.52660000  1
  H  H162  1  0.69170000  0.40070000  0.88620000  1
  H  H163  1  0.69170000  0.90070000  0.61380000  1
  H  H164  1  0.69780000  0.07320000  0.02230000  1
  H  H165  1  0.69780000  0.57320000  0.47770000  1
  H  H166  1  0.71170000  0.17070000  0.87020000  1
  H  H167  1  0.71170000  0.67070000  0.62980000  1
  H  H168  1  0.78830000  0.17070000  0.37020000  1
  H  H169  1  0.78830000  0.67070000  0.12980000  1
  H  H170  1  0.80220000  0.07320000  0.52230000  1
  H  H171  1  0.80220000  0.57320000  0.97770000  1
  H  H172  1  0.80830000  0.40070000  0.38620000  1
  H  H173  1  0.80830000  0.90070000  0.11380000  1
  H  H174  1  0.82120000  0.44240000  0.47340000  1
  H  H175  1  0.82120000  0.94240000  0.02660000  1
  H  H176  1  0.86420000  0.16090000  0.27570000  1
  H  H177  1  0.86420000  0.66090000  0.22430000  1
  H  H178  1  0.87110000  0.44930000  0.01210000  1
  H  H179  1  0.87110000  0.94930000  0.48790000  1
  H  H180  1  0.87200000  0.08900000  0.47650000  1
  H  H181  1  0.87200000  0.15420000  0.56890000  1
  H  H182  1  0.87200000  0.58900000  0.02350000  1
  H  H183  1  0.87200000  0.65420000  0.93110000  1
  H  H184  1  0.87210000  0.13090000  0.40750000  1
  H  H185  1  0.87210000  0.63090000  0.09250000  1
  H  H186  1  0.88040000  0.32320000  0.86990000  1
  H  H187  1  0.88040000  0.82320000  0.63010000  1
  H  H188  1  0.90000000  0.22720000  0.59150000  1
  H  H189  1  0.90000000  0.72720000  0.90850000  1
  H  H190  1  0.90240000  0.41730000  0.56920000  1
  H  H191  1  0.90240000  0.91730000  0.93080000  1
  H  H192  1  0.92350000  0.34480000  0.59230000  1
  H  H193  1  0.92350000  0.84480000  0.90770000  1
  H  H194  1  0.93060000  0.15110000  0.22720000  1
  H  H195  1  0.93060000  0.65110000  0.27280000  1
  H  H196  1  0.93690000  0.29490000  0.27720000  1
  H  H197  1  0.93690000  0.79490000  0.22280000  1
  H  H198  1  0.93940000  0.48240000  0.64630000  1
  H  H199  1  0.93940000  0.98240000  0.85370000  1
  H  H200  1  0.95100000  0.46750000  0.05660000  1
  H  H201  1  0.95100000  0.96750000  0.44340000  1
  H  H202  1  0.95490000  0.08770000  0.64230000  1
  H  H203  1  0.95490000  0.58770000  0.85770000  1
  H  H204  1  0.96240000  0.41170000  0.67160000  1
  H  H205  1  0.96240000  0.91170000  0.82840000  1
  H  H206  1  0.96530000  0.42530000  0.38040000  1
  H  H207  1  0.96530000  0.92530000  0.11960000  1
  H  H208  1  0.97270000  0.28320000  0.83480000  1
  H  H209  1  0.97270000  0.78320000  0.66520000  1
  H  H210  1  0.97560000  0.46680000  0.46510000  1
  H  H211  1  0.97560000  0.96680000  0.03490000  1
  H  H212  1  0.98320000  0.15840000  0.66700000  1
  H  H213  1  0.98320000  0.65840000  0.83300000  1
  H  H214  1  0.99860000  0.29010000  0.22840000  1
  H  H215  1  0.99860000  0.79010000  0.27160000  1
  C  C216  1  0.00450000  0.21720000  0.19114000  1
  C  C217  1  0.00450000  0.30120000  0.84993000  1
  C  C218  1  0.00450000  0.71720000  0.30886000  1
  C  C219  1  0.00450000  0.80120000  0.65007000  1
  C  C220  1  0.00460000  0.15100000  0.39287000  1
  C  C221  1  0.00460000  0.65100000  0.10713000  1
  C  C222  1  0.00920000  0.07360000  0.48966000  1
  C  C223  1  0.00920000  0.57360000  0.01034000  1
  C  C224  1  0.01350000  0.04570000  0.54030000  1
  C  C225  1  0.01350000  0.54570000  0.95970000  1
  C  C226  1  0.02830000  0.23700000  0.73782000  1
  C  C227  1  0.02830000  0.73700000  0.76218000  1
  C  C228  1  0.03020000  0.28000000  0.72264000  1
  C  C229  1  0.03020000  0.78000000  0.77736000  1
  C  C230  1  0.04080000  0.34160000  0.14684000  1
  C  C231  1  0.04080000  0.84160000  0.35316000  1
  C  C232  1  0.04290000  0.17590000  0.14995000  1
  C  C233  1  0.04290000  0.67590000  0.35005000  1
  C  C234  1  0.04340000  0.25450000  0.14817000  1
  C  C235  1  0.04340000  0.75450000  0.35183000  1
  C  C236  1  0.05060000  0.08820000  0.15046000  1
  C  C237  1  0.05060000  0.58820000  0.34954000  1
  C  C238  1  0.05120000  0.17570000  0.37076000  1
  C  C239  1  0.05120000  0.67570000  0.12924000  1
  C  C240  1  0.05570000  0.12970000  0.13463000  1
  C  C241  1  0.05570000  0.62970000  0.36537000  1
  C  C242  1  0.05830000  0.38360000  0.13204000  1
  C  C243  1  0.05830000  0.88360000  0.36796000  1
  C  C244  1  0.05840000  0.29980000  0.13212000  1
  C  C245  1  0.05840000  0.79980000  0.36788000  1
  C  C246  1  0.05890000  0.12550000  0.41717000  1
  C  C247  1  0.05890000  0.62550000  0.08283000  1
  C  C248  1  0.05940000  0.04660000  0.94879000  1
  C  C249  1  0.05940000  0.54660000  0.55121000  1
  C  C250  1  0.05990000  0.08800000  0.46175000  1
  C  C251  1  0.05990000  0.58800000  0.03825000  1
  C  C252  1  0.06140000  0.05590000  0.51379000  1
  C  C253  1  0.06140000  0.55590000  0.98621000  1
  C  C254  1  0.06460000  0.04610000  0.13516000  1
  C  C255  1  0.06460000  0.54610000  0.36484000  1
  C  C256  1  0.06540000  0.07060000  0.89941000  1
  C  C257  1  0.06540000  0.57060000  0.60059000  1
  C  C258  1  0.06620000  0.23420000  0.76668000  1
  C  C259  1  0.06620000  0.73420000  0.73332000  1
  C  C260  1  0.06900000  0.31900000  0.73679000  1
  C  C261  1  0.06900000  0.81900000  0.76321000  1
  C  C262  1  0.07330000  0.12720000  0.10402000  1
  C  C263  1  0.07330000  0.62720000  0.39598000  1
  C  C264  1  0.08630000  0.08380000  0.09044000  1
  C  C265  1  0.08630000  0.58380000  0.40956000  1
  C  C266  1  0.08940000  0.42120000  0.99299000  1
  C  C267  1  0.08940000  0.92120000  0.50701000  1
  C  C268  1  0.08980000  0.30100000  0.10253000  1
  C  C269  1  0.08980000  0.80100000  0.39747000  1
  C  C270  1  0.09430000  0.35140000  0.89263000  1
  C  C271  1  0.09430000  0.85140000  0.60737000  1
  C  C272  1  0.10630000  0.34470000  0.08924000  1
  C  C273  1  0.10630000  0.84470000  0.41076000  1
  C  C274  1  0.10780000  0.31280000  0.76581000  1
  C  C275  1  0.10780000  0.81280000  0.73419000  1
  C  C276  1  0.13020000  0.43110000  0.02027000  1
  C  C277  1  0.13020000  0.93110000  0.47973000  1
  C  C278  1  0.14330000  0.32750000  0.87044000  1
  C  C279  1  0.14330000  0.82750000  0.62956000  1
  C  C280  1  0.15070000  0.06090000  0.95385000  1
  C  C281  1  0.15070000  0.56090000  0.54615000  1
  C  C282  1  0.15830000  0.08550000  0.90276000  1
  C  C283  1  0.15830000  0.58550000  0.59724000  1
  C  C284  1  0.19540000  0.09350000  0.43472000  1
  C  C285  1  0.19540000  0.59350000  0.06528000  1
  C  C286  1  0.20290000  0.08030000  0.93025000  1
  C  C287  1  0.20290000  0.58030000  0.56975000  1
  C  C288  1  0.29710000  0.08030000  0.43025000  1
  C  C289  1  0.29710000  0.58030000  0.06975000  1
  C  C290  1  0.30460000  0.09350000  0.93472000  1
  C  C291  1  0.30460000  0.59350000  0.56528000  1
  C  C292  1  0.34170000  0.08550000  0.40276000  1
  C  C293  1  0.34170000  0.58550000  0.09724000  1
  C  C294  1  0.34930000  0.06090000  0.45385000  1
  C  C295  1  0.34930000  0.56090000  0.04615000  1
  C  C296  1  0.35670000  0.32750000  0.37044000  1
  C  C297  1  0.35670000  0.82750000  0.12956000  1
  C  C298  1  0.36980000  0.43110000  0.52027000  1
  C  C299  1  0.36980000  0.93110000  0.97973000  1
  C  C300  1  0.39220000  0.31280000  0.26581000  1
  C  C301  1  0.39220000  0.81280000  0.23419000  1
  C  C302  1  0.39370000  0.34470000  0.58924000  1
  C  C303  1  0.39370000  0.84470000  0.91076000  1
  C  C304  1  0.40570000  0.35140000  0.39263000  1
  C  C305  1  0.40570000  0.85140000  0.10737000  1
  C  C306  1  0.41020000  0.30100000  0.60253000  1
  C  C307  1  0.41020000  0.80100000  0.89747000  1
  C  C308  1  0.41060000  0.42120000  0.49299000  1
  C  C309  1  0.41060000  0.92120000  0.00701000  1
  C  C310  1  0.41370000  0.08380000  0.59044000  1
  C  C311  1  0.41370000  0.58380000  0.90956000  1
  C  C312  1  0.42670000  0.12720000  0.60402000  1
  C  C313  1  0.42670000  0.62720000  0.89598000  1
  C  C314  1  0.43100000  0.31900000  0.23679000  1
  C  C315  1  0.43100000  0.81900000  0.26321000  1
  C  C316  1  0.43380000  0.23420000  0.26668000  1
  C  C317  1  0.43380000  0.73420000  0.23332000  1
  C  C318  1  0.43460000  0.07060000  0.39941000  1
  C  C319  1  0.43460000  0.57060000  0.10059000  1
  C  C320  1  0.43540000  0.04610000  0.63516000  1
  C  C321  1  0.43540000  0.54610000  0.86484000  1
  C  C322  1  0.43860000  0.05590000  0.01379000  1
  C  C323  1  0.43860000  0.55590000  0.48621000  1
  C  C324  1  0.44010000  0.08800000  0.96175000  1
  C  C325  1  0.44010000  0.58800000  0.53825000  1
  C  C326  1  0.44060000  0.04660000  0.44879000  1
  C  C327  1  0.44060000  0.54660000  0.05121000  1
  C  C328  1  0.44110000  0.12550000  0.91717000  1
  C  C329  1  0.44110000  0.62550000  0.58283000  1
  C  C330  1  0.44160000  0.29980000  0.63212000  1
  C  C331  1  0.44160000  0.79980000  0.86788000  1
  C  C332  1  0.44170000  0.38360000  0.63204000  1
  C  C333  1  0.44170000  0.88360000  0.86796000  1
  C  C334  1  0.44430000  0.12970000  0.63463000  1
  C  C335  1  0.44430000  0.62970000  0.86537000  1
  C  C336  1  0.44880000  0.17570000  0.87076000  1
  C  C337  1  0.44880000  0.67570000  0.62924000  1
  C  C338  1  0.44940000  0.08820000  0.65046000  1
  C  C339  1  0.44940000  0.58820000  0.84954000  1
  C  C340  1  0.45660000  0.25450000  0.64817000  1
  C  C341  1  0.45660000  0.75450000  0.85183000  1
  C  C342  1  0.45710000  0.17590000  0.64995000  1
  C  C343  1  0.45710000  0.67590000  0.85005000  1
  C  C344  1  0.45920000  0.34160000  0.64684000  1
  C  C345  1  0.45920000  0.84160000  0.85316000  1
  C  C346  1  0.46980000  0.28000000  0.22264000  1
  C  C347  1  0.46980000  0.78000000  0.27736000  1
  C  C348  1  0.47170000  0.23700000  0.23782000  1
  C  C349  1  0.47170000  0.73700000  0.26218000  1
  C  C350  1  0.48650000  0.04570000  0.04030000  1
  C  C351  1  0.48650000  0.54570000  0.45970000  1
  C  C352  1  0.49080000  0.07360000  0.98966000  1
  C  C353  1  0.49080000  0.57360000  0.51034000  1
  C  C354  1  0.49540000  0.15100000  0.89287000  1
  C  C355  1  0.49540000  0.65100000  0.60713000  1
  C  C356  1  0.49550000  0.21720000  0.69114000  1
  C  C357  1  0.49550000  0.30120000  0.34993000  1
  C  C358  1  0.49550000  0.71720000  0.80886000  1
  C  C359  1  0.49550000  0.80120000  0.15007000  1
  C  C360  1  0.50450000  0.19880000  0.84993000  1
  C  C361  1  0.50450000  0.28280000  0.19114000  1
  C  C362  1  0.50450000  0.69880000  0.65007000  1
  C  C363  1  0.50450000  0.78280000  0.30886000  1
  C  C364  1  0.50460000  0.34900000  0.39287000  1
  C  C365  1  0.50460000  0.84900000  0.10713000  1
  C  C366  1  0.50920000  0.42640000  0.48966000  1
  C  C367  1  0.50920000  0.92640000  0.01034000  1
  C  C368  1  0.51350000  0.45430000  0.54030000  1
  C  C369  1  0.51350000  0.95430000  0.95970000  1
  C  C370  1  0.52830000  0.26300000  0.73782000  1
  C  C371  1  0.52830000  0.76300000  0.76218000  1
  C  C372  1  0.53020000  0.22000000  0.72264000  1
  C  C373  1  0.53020000  0.72000000  0.77736000  1
  C  C374  1  0.54080000  0.15840000  0.14684000  1
  C  C375  1  0.54080000  0.65840000  0.35316000  1
  C  C376  1  0.54290000  0.32410000  0.14995000  1
  C  C377  1  0.54290000  0.82410000  0.35005000  1
  C  C378  1  0.54340000  0.24550000  0.14817000  1
  C  C379  1  0.54340000  0.74550000  0.35183000  1
  C  C380  1  0.55060000  0.41180000  0.15046000  1
  C  C381  1  0.55060000  0.91180000  0.34954000  1
  C  C382  1  0.55120000  0.32430000  0.37076000  1
  C  C383  1  0.55120000  0.82430000  0.12924000  1
  C  C384  1  0.55570000  0.37030000  0.13463000  1
  C  C385  1  0.55570000  0.87030000  0.36537000  1
  C  C386  1  0.55830000  0.11640000  0.13204000  1
  C  C387  1  0.55830000  0.61640000  0.36796000  1
  C  C388  1  0.55840000  0.20020000  0.13212000  1
  C  C389  1  0.55840000  0.70020000  0.36788000  1
  C  C390  1  0.55890000  0.37450000  0.41717000  1
  C  C391  1  0.55890000  0.87450000  0.08283000  1
  C  C392  1  0.55940000  0.45340000  0.94879000  1
  C  C393  1  0.55940000  0.95340000  0.55121000  1
  C  C394  1  0.55990000  0.41200000  0.46175000  1
  C  C395  1  0.55990000  0.91200000  0.03825000  1
  C  C396  1  0.56140000  0.44410000  0.51379000  1
  C  C397  1  0.56140000  0.94410000  0.98621000  1
  C  C398  1  0.56460000  0.45390000  0.13516000  1
  C  C399  1  0.56460000  0.95390000  0.36484000  1
  C  C400  1  0.56540000  0.42940000  0.89941000  1
  C  C401  1  0.56540000  0.92940000  0.60059000  1
  C  C402  1  0.56620000  0.26580000  0.76668000  1
  C  C403  1  0.56620000  0.76580000  0.73332000  1
  C  C404  1  0.56900000  0.18100000  0.73679000  1
  C  C405  1  0.56900000  0.68100000  0.76321000  1
  C  C406  1  0.57330000  0.37280000  0.10402000  1
  C  C407  1  0.57330000  0.87280000  0.39598000  1
  C  C408  1  0.58630000  0.41620000  0.09044000  1
  C  C409  1  0.58630000  0.91620000  0.40956000  1
  C  C410  1  0.58940000  0.07880000  0.99299000  1
  C  C411  1  0.58940000  0.57880000  0.50701000  1
  C  C412  1  0.58980000  0.19900000  0.10253000  1
  C  C413  1  0.58980000  0.69900000  0.39747000  1
  C  C414  1  0.59430000  0.14860000  0.89263000  1
  C  C415  1  0.59430000  0.64860000  0.60737000  1
  C  C416  1  0.60630000  0.15530000  0.08924000  1
  C  C417  1  0.60630000  0.65530000  0.41076000  1
  C  C418  1  0.60780000  0.18720000  0.76581000  1
  C  C419  1  0.60780000  0.68720000  0.73419000  1
  C  C420  1  0.63020000  0.06890000  0.02027000  1
  C  C421  1  0.63020000  0.56890000  0.47973000  1
  C  C422  1  0.64330000  0.17250000  0.87044000  1
  C  C423  1  0.64330000  0.67250000  0.62956000  1
  C  C424  1  0.65070000  0.43910000  0.95385000  1
  C  C425  1  0.65070000  0.93910000  0.54615000  1
  C  C426  1  0.65830000  0.41450000  0.90276000  1
  C  C427  1  0.65830000  0.91450000  0.59724000  1
  C  C428  1  0.69540000  0.40650000  0.43472000  1
  C  C429  1  0.69540000  0.90650000  0.06528000  1
  C  C430  1  0.70290000  0.41970000  0.93025000  1
  C  C431  1  0.70290000  0.91970000  0.56975000  1
  C  C432  1  0.79710000  0.41970000  0.43025000  1
  C  C433  1  0.79710000  0.91970000  0.06975000  1
  C  C434  1  0.80460000  0.40650000  0.93472000  1
  C  C435  1  0.80460000  0.90650000  0.56528000  1
  C  C436  1  0.84170000  0.41450000  0.40276000  1
  C  C437  1  0.84170000  0.91450000  0.09724000  1
  C  C438  1  0.84930000  0.43910000  0.45385000  1
  C  C439  1  0.84930000  0.93910000  0.04615000  1
  C  C440  1  0.85670000  0.17250000  0.37044000  1
  C  C441  1  0.85670000  0.67250000  0.12956000  1
  C  C442  1  0.86980000  0.06890000  0.52027000  1
  C  C443  1  0.86980000  0.56890000  0.97973000  1
  C  C444  1  0.89220000  0.18720000  0.26581000  1
  C  C445  1  0.89220000  0.68720000  0.23419000  1
  C  C446  1  0.89370000  0.15530000  0.58924000  1
  C  C447  1  0.89370000  0.65530000  0.91076000  1
  C  C448  1  0.90570000  0.14860000  0.39263000  1
  C  C449  1  0.90570000  0.64860000  0.10737000  1
  C  C450  1  0.91020000  0.19900000  0.60253000  1
  C  C451  1  0.91020000  0.69900000  0.89747000  1
  C  C452  1  0.91060000  0.07880000  0.49299000  1
  C  C453  1  0.91060000  0.57880000  0.00701000  1
  C  C454  1  0.91370000  0.41620000  0.59044000  1
  C  C455  1  0.91370000  0.91620000  0.90956000  1
  C  C456  1  0.92670000  0.37280000  0.60402000  1
  C  C457  1  0.92670000  0.87280000  0.89598000  1
  C  C458  1  0.93100000  0.18100000  0.23679000  1
  C  C459  1  0.93100000  0.68100000  0.26321000  1
  C  C460  1  0.93380000  0.26580000  0.26668000  1
  C  C461  1  0.93380000  0.76580000  0.23332000  1
  C  C462  1  0.93460000  0.42940000  0.39941000  1
  C  C463  1  0.93460000  0.92940000  0.10059000  1
  C  C464  1  0.93540000  0.45390000  0.63516000  1
  C  C465  1  0.93540000  0.95390000  0.86484000  1
  C  C466  1  0.93860000  0.44410000  0.01379000  1
  C  C467  1  0.93860000  0.94410000  0.48621000  1
  C  C468  1  0.94010000  0.41200000  0.96175000  1
  C  C469  1  0.94010000  0.91200000  0.53825000  1
  C  C470  1  0.94060000  0.45340000  0.44879000  1
  C  C471  1  0.94060000  0.95340000  0.05121000  1
  C  C472  1  0.94110000  0.37450000  0.91717000  1
  C  C473  1  0.94110000  0.87450000  0.58283000  1
  C  C474  1  0.94160000  0.20020000  0.63212000  1
  C  C475  1  0.94160000  0.70020000  0.86788000  1
  C  C476  1  0.94170000  0.11640000  0.63204000  1
  C  C477  1  0.94170000  0.61640000  0.86796000  1
  C  C478  1  0.94430000  0.37030000  0.63463000  1
  C  C479  1  0.94430000  0.87030000  0.86537000  1
  C  C480  1  0.94880000  0.32430000  0.87076000  1
  C  C481  1  0.94880000  0.82430000  0.62924000  1
  C  C482  1  0.94940000  0.41180000  0.65046000  1
  C  C483  1  0.94940000  0.91180000  0.84954000  1
  C  C484  1  0.95660000  0.24550000  0.64817000  1
  C  C485  1  0.95660000  0.74550000  0.85183000  1
  C  C486  1  0.95710000  0.32410000  0.64995000  1
  C  C487  1  0.95710000  0.82410000  0.85005000  1
  C  C488  1  0.95920000  0.15840000  0.64684000  1
  C  C489  1  0.95920000  0.65840000  0.85316000  1
  C  C490  1  0.96980000  0.22000000  0.22264000  1
  C  C491  1  0.96980000  0.72000000  0.27736000  1
  C  C492  1  0.97170000  0.26300000  0.23782000  1
  C  C493  1  0.97170000  0.76300000  0.26218000  1
  C  C494  1  0.98650000  0.45430000  0.04030000  1
  C  C495  1  0.98650000  0.95430000  0.45970000  1
  C  C496  1  0.99080000  0.42640000  0.98966000  1
  C  C497  1  0.99080000  0.92640000  0.51034000  1
  C  C498  1  0.99540000  0.34900000  0.89287000  1
  C  C499  1  0.99540000  0.84900000  0.60713000  1
  C  C500  1  0.99550000  0.19880000  0.34993000  1
  C  C501  1  0.99550000  0.28280000  0.69114000  1
  C  C502  1  0.99550000  0.69880000  0.15007000  1
  C  C503  1  0.99550000  0.78280000  0.80886000  1
  I  I504  1  0.05184000  0.01202000  0.38300000  1
  I  I505  1  0.05184000  0.51202000  0.11700000  1
  I  I506  1  0.15713000  0.30512000  0.31350000  1
  I  I507  1  0.15713000  0.80512000  0.18650000  1
  I  I508  1  0.17921000  0.17725000  0.83455000  1
  I  I509  1  0.17921000  0.67725000  0.66545000  1
  I  I510  1  0.18037000  0.44193000  0.58285000  1
  I  I511  1  0.18037000  0.94193000  0.91715000  1
  I  I512  1  0.19328000  0.49703000  0.46514000  1
  I  I513  1  0.19328000  0.99703000  0.03486000  1
  I  I514  1  0.19905000  0.43226000  0.37349000  1
  I  I515  1  0.19905000  0.93226000  0.12651000  1
  I  I516  1  0.30095000  0.43226000  0.87349000  1
  I  I517  1  0.30095000  0.93226000  0.62651000  1
  I  I518  1  0.30672000  0.49703000  0.96514000  1
  I  I519  1  0.30672000  0.99703000  0.53486000  1
  I  I520  1  0.31963000  0.44193000  0.08285000  1
  I  I521  1  0.31963000  0.94193000  0.41715000  1
  I  I522  1  0.32079000  0.17725000  0.33455000  1
  I  I523  1  0.32079000  0.67725000  0.16545000  1
  I  I524  1  0.34287000  0.30512000  0.81350000  1
  I  I525  1  0.34287000  0.80512000  0.68650000  1
  I  I526  1  0.44816000  0.01202000  0.88300000  1
  I  I527  1  0.44816000  0.51202000  0.61700000  1
  I  I528  1  0.55184000  0.48798000  0.38300000  1
  I  I529  1  0.55184000  0.98798000  0.11700000  1
  I  I530  1  0.65713000  0.19488000  0.31350000  1
  I  I531  1  0.65713000  0.69488000  0.18650000  1
  I  I532  1  0.67921000  0.32275000  0.83455000  1
  I  I533  1  0.67921000  0.82275000  0.66545000  1
  I  I534  1  0.68037000  0.05807000  0.58285000  1
  I  I535  1  0.68037000  0.55807000  0.91715000  1
  I  I536  1  0.69328000  0.00297000  0.46514000  1
  I  I537  1  0.69328000  0.50297000  0.03486000  1
  I  I538  1  0.69905000  0.06774000  0.37349000  1
  I  I539  1  0.69905000  0.56774000  0.12651000  1
  I  I540  1  0.80095000  0.06774000  0.87349000  1
  I  I541  1  0.80095000  0.56774000  0.62651000  1
  I  I542  1  0.80672000  0.00297000  0.96514000  1
  I  I543  1  0.80672000  0.50297000  0.53486000  1
  I  I544  1  0.81963000  0.05807000  0.08285000  1
  I  I545  1  0.81963000  0.55807000  0.41715000  1
  I  I546  1  0.82079000  0.32275000  0.33455000  1
  I  I547  1  0.82079000  0.82275000  0.16545000  1
  I  I548  1  0.84287000  0.19488000  0.81350000  1
  I  I549  1  0.84287000  0.69488000  0.68650000  1
  I  I550  1  0.94816000  0.48798000  0.88300000  1
  I  I551  1  0.94816000  0.98798000  0.61700000  1
  N  N552  1  0.00840000  0.11109000  0.44099000  1
  N  N553  1  0.00840000  0.61109000  0.05901000  1
  N  N554  1  0.01580000  0.05028000  0.92191000  1
  N  N555  1  0.01580000  0.55028000  0.57809000  1
  N  N556  1  0.01660000  0.17475000  0.17893000  1
  N  N557  1  0.01660000  0.67475000  0.32107000  1
  N  N558  1  0.01700000  0.25789000  0.17703000  1
  N  N559  1  0.01700000  0.75789000  0.32297000  1
  N  N560  1  0.05730000  0.21417000  0.13333000  1
  N  N561  1  0.05730000  0.71417000  0.36667000  1
  N  N562  1  0.08130000  0.44633000  0.04410000  1
  N  N563  1  0.08130000  0.94633000  0.45590000  1
  N  N564  1  0.08350000  0.04355000  0.10580000  1
  N  N565  1  0.08350000  0.54355000  0.39420000  1
  N  N566  1  0.09280000  0.38542000  0.10398000  1
  N  N567  1  0.09280000  0.88542000  0.39602000  1
  N  N568  1  0.10020000  0.30233000  0.84960000  1
  N  N569  1  0.10020000  0.80233000  0.65040000  1
  N  N570  1  0.10710000  0.27135000  0.78018000  1
  N  N571  1  0.10710000  0.77135000  0.71982000  1
  N  N572  1  0.15250000  0.07728000  0.45944000  1
  N  N573  1  0.15250000  0.57728000  0.04056000  1
  N  N574  1  0.15280000  0.11914000  0.41287000  1
  N  N575  1  0.15280000  0.61914000  0.08713000  1
  N  N576  1  0.34720000  0.11914000  0.91287000  1
  N  N577  1  0.34720000  0.61914000  0.58713000  1
  N  N578  1  0.34750000  0.07728000  0.95944000  1
  N  N579  1  0.34750000  0.57728000  0.54056000  1
  N  N580  1  0.39290000  0.27135000  0.28018000  1
  N  N581  1  0.39290000  0.77135000  0.21982000  1
  N  N582  1  0.39980000  0.30233000  0.34960000  1
  N  N583  1  0.39980000  0.80233000  0.15040000  1
  N  N584  1  0.40720000  0.38542000  0.60398000  1
  N  N585  1  0.40720000  0.88542000  0.89602000  1
  N  N586  1  0.41650000  0.04355000  0.60580000  1
  N  N587  1  0.41650000  0.54355000  0.89420000  1
  N  N588  1  0.41870000  0.44633000  0.54410000  1
  N  N589  1  0.41870000  0.94633000  0.95590000  1
  N  N590  1  0.44270000  0.21417000  0.63333000  1
  N  N591  1  0.44270000  0.71417000  0.86667000  1
  N  N592  1  0.48300000  0.25789000  0.67703000  1
  N  N593  1  0.48300000  0.75789000  0.82297000  1
  N  N594  1  0.48340000  0.17475000  0.67893000  1
  N  N595  1  0.48340000  0.67475000  0.82107000  1
  N  N596  1  0.48420000  0.05028000  0.42191000  1
  N  N597  1  0.48420000  0.55028000  0.07809000  1
  N  N598  1  0.49160000  0.11109000  0.94099000  1
  N  N599  1  0.49160000  0.61109000  0.55901000  1
  N  N600  1  0.50840000  0.38891000  0.44099000  1
  N  N601  1  0.50840000  0.88891000  0.05901000  1
  N  N602  1  0.51580000  0.44972000  0.92191000  1
  N  N603  1  0.51580000  0.94972000  0.57809000  1
  N  N604  1  0.51660000  0.32525000  0.17893000  1
  N  N605  1  0.51660000  0.82525000  0.32107000  1
  N  N606  1  0.51700000  0.24211000  0.17703000  1
  N  N607  1  0.51700000  0.74211000  0.32297000  1
  N  N608  1  0.55730000  0.28583000  0.13333000  1
  N  N609  1  0.55730000  0.78583000  0.36667000  1
  N  N610  1  0.58130000  0.05367000  0.04410000  1
  N  N611  1  0.58130000  0.55367000  0.45590000  1
  N  N612  1  0.58350000  0.45645000  0.10580000  1
  N  N613  1  0.58350000  0.95645000  0.39420000  1
  N  N614  1  0.59280000  0.11458000  0.10398000  1
  N  N615  1  0.59280000  0.61458000  0.39602000  1
  N  N616  1  0.60020000  0.19767000  0.84960000  1
  N  N617  1  0.60020000  0.69767000  0.65040000  1
  N  N618  1  0.60710000  0.22865000  0.78018000  1
  N  N619  1  0.60710000  0.72865000  0.71982000  1
  N  N620  1  0.65250000  0.42272000  0.45944000  1
  N  N621  1  0.65250000  0.92272000  0.04056000  1
  N  N622  1  0.65280000  0.38086000  0.41287000  1
  N  N623  1  0.65280000  0.88086000  0.08713000  1
  N  N624  1  0.84720000  0.38086000  0.91287000  1
  N  N625  1  0.84720000  0.88086000  0.58713000  1
  N  N626  1  0.84750000  0.42272000  0.95944000  1
  N  N627  1  0.84750000  0.92272000  0.54056000  1
  N  N628  1  0.89290000  0.22865000  0.28018000  1
  N  N629  1  0.89290000  0.72865000  0.21982000  1
  N  N630  1  0.89980000  0.19767000  0.34960000  1
  N  N631  1  0.89980000  0.69767000  0.15040000  1
  N  N632  1  0.90720000  0.11458000  0.60398000  1
  N  N633  1  0.90720000  0.61458000  0.89602000  1
  N  N634  1  0.91650000  0.45645000  0.60580000  1
  N  N635  1  0.91650000  0.95645000  0.89420000  1
  N  N636  1  0.91870000  0.05367000  0.54410000  1
  N  N637  1  0.91870000  0.55367000  0.95590000  1
  N  N638  1  0.94270000  0.28583000  0.63333000  1
  N  N639  1  0.94270000  0.78583000  0.86667000  1
  N  N640  1  0.98300000  0.24211000  0.67703000  1
  N  N641  1  0.98300000  0.74211000  0.82297000  1
  N  N642  1  0.98340000  0.32525000  0.67893000  1
  N  N643  1  0.98340000  0.82525000  0.82107000  1
  N  N644  1  0.98420000  0.44972000  0.42191000  1
  N  N645  1  0.98420000  0.94972000  0.07809000  1
  N  N646  1  0.99160000  0.38891000  0.94099000  1
  N  N647  1  0.99160000  0.88891000  0.55901000  1
