# generated using pymatgen
data_Zn2H24C34(NO3)3
_symmetry_space_group_name_H-M   'P 1'
_cell_length_a   13.86060000
_cell_length_b   16.91420000
_cell_length_c   18.15880000
_cell_angle_alpha   112.89500000
_cell_angle_beta   96.84000000
_cell_angle_gamma   101.84000000
_symmetry_Int_Tables_number   1
_chemical_formula_structural   Zn2H24C34(NO3)3
_chemical_formula_sum   'Zn8 H96 C136 N12 O36'
_cell_volume   3743.76307811
_cell_formula_units_Z   4
loop_
 _symmetry_equiv_pos_site_id
 _symmetry_equiv_pos_as_xyz
  1  'x, y, z'
loop_
 _atom_site_type_symbol
 _atom_site_label
 _atom_site_symmetry_multiplicity
 _atom_site_fract_x
 _atom_site_fract_y
 _atom_site_fract_z
 _atom_site_occupancy
  Zn  Zn0  1  0.14119000  0.92769000  0.59850000  1
  Zn  Zn1  1  0.14996000  0.41367000  0.60365000  1
  Zn  Zn2  1  0.16113000  0.34662000  0.85179000  1
  Zn  Zn3  1  0.17854000  0.85099000  0.84682000  1
  Zn  Zn4  1  0.82146000  0.14901000  0.15318000  1
  Zn  Zn5  1  0.83887000  0.65338000  0.14821000  1
  Zn  Zn6  1  0.85004000  0.58633000  0.39635000  1
  Zn  Zn7  1  0.85881000  0.07231000  0.40150000  1
  H  H8  1  0.01470000  0.60040000  0.53450000  1
  H  H9  1  0.01550000  0.10900000  0.55340000  1
  H  H10  1  0.01830000  0.11100000  0.67980000  1
  H  H11  1  0.02940000  0.60240000  0.66210000  1
  H  H12  1  0.04030000  0.41780000  0.11160000  1
  H  H13  1  0.04400000  0.28630000  0.18010000  1
  H  H14  1  0.05370000  0.92480000  0.10610000  1
  H  H15  1  0.05390000  0.79450000  0.17530000  1
  H  H16  1  0.05410000  0.43220000  0.23900000  1
  H  H17  1  0.05520000  0.41830000  0.98740000  1
  H  H18  1  0.07720000  0.94330000  0.23420000  1
  H  H19  1  0.07740000  0.92990000  0.98430000  1
  H  H20  1  0.15210000  0.12190000  0.14720000  1
  H  H21  1  0.16120000  0.30620000  0.20530000  1
  H  H22  1  0.17040000  0.80710000  0.19710000  1
  H  H23  1  0.17250000  0.45720000  0.25720000  1
  H  H24  1  0.18090000  0.61450000  0.15510000  1
  H  H25  1  0.19480000  0.95990000  0.25020000  1
  H  H26  1  0.19770000  0.23970000  0.07150000  1
  H  H27  1  0.20310000  0.73900000  0.06160000  1
  H  H28  1  0.20850000  0.24250000  0.94830000  1
  H  H29  1  0.21420000  0.50140000  0.81240000  1
  H  H30  1  0.21590000  0.74470000  0.94010000  1
  H  H31  1  0.22430000  0.00330000  0.80350000  1
  H  H32  1  0.22550000  0.66850000  0.42850000  1
  H  H33  1  0.23860000  0.17780000  0.41980000  1
  H  H34  1  0.25700000  0.41650000  0.35590000  1
  H  H35  1  0.26740000  0.41780000  0.48380000  1
  H  H36  1  0.27850000  0.94290000  0.49440000  1
  H  H37  1  0.28110000  0.94050000  0.36770000  1
  H  H38  1  0.32100000  0.47010000  0.00180000  1
  H  H39  1  0.32360000  0.64010000  0.86110000  1
  H  H40  1  0.32930000  0.14420000  0.85050000  1
  H  H41  1  0.34610000  0.97170000  0.98890000  1
  H  H42  1  0.36250000  0.67210000  0.36780000  1
  H  H43  1  0.36370000  0.19790000  0.35000000  1
  H  H44  1  0.37120000  0.33480000  0.25530000  1
  H  H45  1  0.38910000  0.80760000  0.30150000  1
  H  H46  1  0.41540000  0.78200000  0.98500000  1
  H  H47  1  0.42510000  0.61160000  0.06050000  1
  H  H48  1  0.42900000  0.28490000  0.97260000  1
  H  H49  1  0.43970000  0.77270000  0.06830000  1
  H  H50  1  0.44420000  0.11480000  0.04820000  1
  H  H51  1  0.45330000  0.27560000  0.05580000  1
  H  H52  1  0.46160000  0.08130000  0.65450000  1
  H  H53  1  0.46320000  0.37430000  0.79510000  1
  H  H54  1  0.47570000  0.55840000  0.70000000  1
  H  H55  1  0.48550000  0.85570000  0.79360000  1
  H  H56  1  0.51450000  0.14430000  0.20640000  1
  H  H57  1  0.52430000  0.44160000  0.30000000  1
  H  H58  1  0.53680000  0.62570000  0.20490000  1
  H  H59  1  0.53840000  0.91870000  0.34550000  1
  H  H60  1  0.54670000  0.72440000  0.94420000  1
  H  H61  1  0.55580000  0.88520000  0.95180000  1
  H  H62  1  0.56030000  0.22730000  0.93170000  1
  H  H63  1  0.57100000  0.71510000  0.02740000  1
  H  H64  1  0.57490000  0.38840000  0.93950000  1
  H  H65  1  0.58460000  0.21800000  0.01500000  1
  H  H66  1  0.61090000  0.19240000  0.69850000  1
  H  H67  1  0.62880000  0.66520000  0.74470000  1
  H  H68  1  0.63630000  0.80210000  0.65000000  1
  H  H69  1  0.63750000  0.32790000  0.63220000  1
  H  H70  1  0.65390000  0.02830000  0.01110000  1
  H  H71  1  0.67070000  0.85580000  0.14950000  1
  H  H72  1  0.67640000  0.35990000  0.13890000  1
  H  H73  1  0.67900000  0.52990000  0.99820000  1
  H  H74  1  0.71890000  0.05950000  0.63230000  1
  H  H75  1  0.72150000  0.05710000  0.50560000  1
  H  H76  1  0.73260000  0.58220000  0.51620000  1
  H  H77  1  0.74300000  0.58350000  0.64410000  1
  H  H78  1  0.76140000  0.82220000  0.58020000  1
  H  H79  1  0.77450000  0.33150000  0.57150000  1
  H  H80  1  0.77570000  0.99670000  0.19650000  1
  H  H81  1  0.78410000  0.25530000  0.05990000  1
  H  H82  1  0.78580000  0.49860000  0.18760000  1
  H  H83  1  0.79150000  0.75750000  0.05170000  1
  H  H84  1  0.79690000  0.26100000  0.93840000  1
  H  H85  1  0.80230000  0.76030000  0.92850000  1
  H  H86  1  0.80520000  0.04010000  0.74980000  1
  H  H87  1  0.81910000  0.38550000  0.84490000  1
  H  H88  1  0.82750000  0.54280000  0.74280000  1
  H  H89  1  0.82960000  0.19290000  0.80290000  1
  H  H90  1  0.83880000  0.69380000  0.79470000  1
  H  H91  1  0.84790000  0.87810000  0.85280000  1
  H  H92  1  0.92260000  0.07010000  0.01570000  1
  H  H93  1  0.92280000  0.05670000  0.76580000  1
  H  H94  1  0.94480000  0.58170000  0.01260000  1
  H  H95  1  0.94590000  0.56780000  0.76100000  1
  H  H96  1  0.94610000  0.20550000  0.82470000  1
  H  H97  1  0.94630000  0.07520000  0.89390000  1
  H  H98  1  0.95600000  0.71370000  0.81990000  1
  H  H99  1  0.95970000  0.58220000  0.88840000  1
  H  H100  1  0.97060000  0.39760000  0.33790000  1
  H  H101  1  0.98170000  0.88900000  0.32020000  1
  H  H102  1  0.98450000  0.89100000  0.44660000  1
  H  H103  1  0.98530000  0.39960000  0.46550000  1
  C  C104  1  0.00630000  0.61380000  0.19440000  1
  C  C105  1  0.01180000  0.89260000  0.80180000  1
  C  C106  1  0.03240000  0.63530000  0.37070000  1
  C  C107  1  0.03340000  0.40290000  0.36700000  1
  C  C108  1  0.03960000  0.12470000  0.37340000  1
  C  C109  1  0.04310000  0.90110000  0.35500000  1
  C  C110  1  0.04320000  0.40420000  0.44450000  1
  C  C111  1  0.04540000  0.90300000  0.43110000  1
  C  C112  1  0.07550000  0.38170000  0.07940000  1
  C  C113  1  0.08470000  0.38180000  0.00440000  1
  C  C114  1  0.08900000  0.88870000  0.07420000  1
  C  C115  1  0.09290000  0.12620000  0.24520000  1
  C  C116  1  0.10230000  0.89050000  0.99990000  1
  C  C117  1  0.10570000  0.62680000  0.24720000  1
  C  C118  1  0.10780000  0.32830000  0.18780000  1
  C  C119  1  0.11230000  0.41310000  0.25280000  1
  C  C120  1  0.11430000  0.40940000  0.33460000  1
  C  C121  1  0.11740000  0.32910000  0.10660000  1
  C  C122  1  0.11750000  0.14170000  0.32750000  1
  C  C123  1  0.11820000  0.64290000  0.32970000  1
  C  C124  1  0.11970000  0.83290000  0.18140000  1
  C  C125  1  0.12820000  0.83340000  0.09980000  1
  C  C126  1  0.13180000  0.91970000  0.24700000  1
  C  C127  1  0.13240000  0.91730000  0.33020000  1
  C  C128  1  0.16800000  0.27680000  0.05560000  1
  C  C129  1  0.16910000  0.13430000  0.20240000  1
  C  C130  1  0.17470000  0.27890000  0.98180000  1
  C  C131  1  0.17630000  0.77850000  0.04720000  1
  C  C132  1  0.18430000  0.78270000  0.97460000  1
  C  C133  1  0.18920000  0.62610000  0.21030000  1
  C  C134  1  0.19940000  0.41390000  0.37740000  1
  C  C135  1  0.20530000  0.41480000  0.45540000  1
  C  C136  1  0.21590000  0.65860000  0.37370000  1
  C  C137  1  0.21830000  0.93330000  0.45940000  1
  C  C138  1  0.21980000  0.93170000  0.38340000  1
  C  C139  1  0.22050000  0.16760000  0.36520000  1
  C  C140  1  0.25960000  0.52320000  0.86230000  1
  C  C141  1  0.26930000  0.16050000  0.24190000  1
  C  C142  1  0.27280000  0.02540000  0.85190000  1
  C  C143  1  0.27360000  0.08760000  0.66850000  1
  C  C144  1  0.28170000  0.27770000  0.76520000  1
  C  C145  1  0.28280000  0.64260000  0.25630000  1
  C  C146  1  0.28870000  0.57170000  0.68090000  1
  C  C147  1  0.29590000  0.17860000  0.32330000  1
  C  C148  1  0.29790000  0.65980000  0.33750000  1
  C  C149  1  0.29870000  0.76600000  0.75690000  1
  C  C150  1  0.32070000  0.50540000  0.97320000  1
  C  C151  1  0.32480000  0.60760000  0.89220000  1
  C  C152  1  0.33440000  0.11120000  0.88080000  1
  C  C153  1  0.34260000  0.00760000  0.96130000  1
  C  C154  1  0.37090000  0.16050000  0.70020000  1
  C  C155  1  0.37330000  0.24810000  0.74140000  1
  C  C156  1  0.38460000  0.58950000  0.00830000  1
  C  C157  1  0.38640000  0.64250000  0.71890000  1
  C  C158  1  0.38880000  0.64340000  0.96400000  1
  C  C159  1  0.39060000  0.73080000  0.74690000  1
  C  C160  1  0.40120000  0.14690000  0.95200000  1
  C  C161  1  0.40260000  0.09210000  0.99640000  1
  C  C162  1  0.42880000  0.22900000  0.22700000  1
  C  C163  1  0.43110000  0.31800000  0.25470000  1
  C  C164  1  0.44340000  0.74880000  0.01100000  1
  C  C165  1  0.44880000  0.70560000  0.24840000  1
  C  C166  1  0.44880000  0.79340000  0.29070000  1
  C  C167  1  0.45680000  0.25160000  0.99850000  1
  C  C168  1  0.46200000  0.14040000  0.68350000  1
  C  C169  1  0.46290000  0.31510000  0.76710000  1
  C  C170  1  0.47730000  0.61830000  0.71860000  1
  C  C171  1  0.48350000  0.79570000  0.77440000  1
  C  C172  1  0.51650000  0.20430000  0.22560000  1
  C  C173  1  0.52270000  0.38170000  0.28140000  1
  C  C174  1  0.53710000  0.68490000  0.23290000  1
  C  C175  1  0.53800000  0.85960000  0.31650000  1
  C  C176  1  0.54320000  0.74840000  0.00150000  1
  C  C177  1  0.55120000  0.20660000  0.70930000  1
  C  C178  1  0.55120000  0.29440000  0.75160000  1
  C  C179  1  0.55660000  0.25120000  0.98900000  1
  C  C180  1  0.56890000  0.68200000  0.74530000  1
  C  C181  1  0.57120000  0.77100000  0.77300000  1
  C  C182  1  0.59740000  0.90790000  0.00360000  1
  C  C183  1  0.59880000  0.85310000  0.04800000  1
  C  C184  1  0.60940000  0.26920000  0.25310000  1
  C  C185  1  0.61120000  0.35660000  0.03600000  1
  C  C186  1  0.61360000  0.35750000  0.28110000  1
  C  C187  1  0.61540000  0.41050000  0.99170000  1
  C  C188  1  0.62670000  0.75190000  0.25860000  1
  C  C189  1  0.62910000  0.83950000  0.29980000  1
  C  C190  1  0.65740000  0.99240000  0.03870000  1
  C  C191  1  0.66560000  0.88880000  0.11920000  1
  C  C192  1  0.67520000  0.39240000  0.10780000  1
  C  C193  1  0.67930000  0.49460000  0.02680000  1
  C  C194  1  0.70130000  0.23400000  0.24310000  1
  C  C195  1  0.70210000  0.34020000  0.66250000  1
  C  C196  1  0.70410000  0.82140000  0.67670000  1
  C  C197  1  0.71130000  0.42830000  0.31910000  1
  C  C198  1  0.71720000  0.35740000  0.74370000  1
  C  C199  1  0.71830000  0.72230000  0.23480000  1
  C  C200  1  0.72640000  0.91240000  0.33150000  1
  C  C201  1  0.72720000  0.97460000  0.14810000  1
  C  C202  1  0.73070000  0.83950000  0.75810000  1
  C  C203  1  0.74040000  0.47680000  0.13770000  1
  C  C204  1  0.77950000  0.83240000  0.63480000  1
  C  C205  1  0.78020000  0.06830000  0.61660000  1
  C  C206  1  0.78170000  0.06670000  0.54060000  1
  C  C207  1  0.78410000  0.34140000  0.62630000  1
  C  C208  1  0.79470000  0.58520000  0.54460000  1
  C  C209  1  0.80060000  0.58610000  0.62260000  1
  C  C210  1  0.81080000  0.37390000  0.78970000  1
  C  C211  1  0.81570000  0.21730000  0.02540000  1
  C  C212  1  0.82370000  0.22150000  0.95280000  1
  C  C213  1  0.82530000  0.72110000  0.01820000  1
  C  C214  1  0.83090000  0.86570000  0.79760000  1
  C  C215  1  0.83200000  0.72320000  0.94440000  1
  C  C216  1  0.86760000  0.08270000  0.66980000  1
  C  C217  1  0.86820000  0.08030000  0.75300000  1
  C  C218  1  0.87180000  0.16660000  0.90020000  1
  C  C219  1  0.88030000  0.16710000  0.81860000  1
  C  C220  1  0.88180000  0.35710000  0.67030000  1
  C  C221  1  0.88250000  0.85830000  0.67250000  1
  C  C222  1  0.88260000  0.67090000  0.89340000  1
  C  C223  1  0.88570000  0.59060000  0.66540000  1
  C  C224  1  0.88770000  0.58690000  0.74720000  1
  C  C225  1  0.89220000  0.67170000  0.81220000  1
  C  C226  1  0.89430000  0.37320000  0.75280000  1
  C  C227  1  0.89770000  0.10950000  0.00010000  1
  C  C228  1  0.90710000  0.87380000  0.75480000  1
  C  C229  1  0.91100000  0.11130000  0.92580000  1
  C  C230  1  0.91530000  0.61820000  0.99560000  1
  C  C231  1  0.92450000  0.61830000  0.92060000  1
  C  C232  1  0.95460000  0.09700000  0.56890000  1
  C  C233  1  0.95680000  0.59580000  0.55550000  1
  C  C234  1  0.95690000  0.09890000  0.64500000  1
  C  C235  1  0.96040000  0.87530000  0.62660000  1
  C  C236  1  0.96660000  0.59710000  0.63300000  1
  C  C237  1  0.96760000  0.36470000  0.62930000  1
  C  C238  1  0.98820000  0.10740000  0.19820000  1
  C  C239  1  0.99370000  0.38620000  0.80560000  1
  N  N240  1  0.12860000  0.41150000  0.49040000  1
  N  N241  1  0.13050000  0.92120000  0.48390000  1
  N  N242  1  0.13370000  0.33220000  0.95600000  1
  N  N243  1  0.14920000  0.83830000  0.95060000  1
  N  N244  1  0.25890000  0.47180000  0.90160000  1
  N  N245  1  0.27890000  0.97350000  0.88910000  1
  N  N246  1  0.72110000  0.02650000  0.11090000  1
  N  N247  1  0.74110000  0.52820000  0.09840000  1
  N  N248  1  0.85080000  0.16170000  0.04940000  1
  N  N249  1  0.86630000  0.66780000  0.04400000  1
  N  N250  1  0.86950000  0.07880000  0.51610000  1
  N  N251  1  0.87140000  0.58850000  0.50960000  1
  O  O252  1  0.02610000  0.45260000  0.87100000  1
  O  O253  1  0.03470000  0.32350000  0.77950000  1
  O  O254  1  0.04470000  0.67870000  0.44490000  1
  O  O255  1  0.04600000  0.92880000  0.66940000  1
  O  O256  1  0.04630000  0.96040000  0.86560000  1
  O  O257  1  0.05160000  0.41990000  0.67340000  1
  O  O258  1  0.05510000  0.83080000  0.77350000  1
  O  O259  1  0.05860000  0.16000000  0.44820000  1
  O  O260  1  0.19320000  0.10410000  0.65530000  1
  O  O261  1  0.20910000  0.59180000  0.66980000  1
  O  O262  1  0.24200000  0.31780000  0.73110000  1
  O  O263  1  0.25530000  0.26910000  0.82660000  1
  O  O264  1  0.26360000  0.76870000  0.81810000  1
  O  O265  1  0.27200000  0.80140000  0.71290000  1
  O  O266  1  0.27870000  0.00840000  0.65620000  1
  O  O267  1  0.28920000  0.49100000  0.65900000  1
  O  O268  1  0.33810000  0.16280000  0.19330000  1
  O  O269  1  0.36180000  0.63600000  0.21580000  1
  O  O270  1  0.63820000  0.36400000  0.78420000  1
  O  O271  1  0.66190000  0.83720000  0.80670000  1
  O  O272  1  0.71080000  0.50900000  0.34100000  1
  O  O273  1  0.72130000  0.99160000  0.34380000  1
  O  O274  1  0.72800000  0.19860000  0.28710000  1
  O  O275  1  0.73640000  0.23130000  0.18190000  1
  O  O276  1  0.74470000  0.73090000  0.17340000  1
  O  O277  1  0.75800000  0.68220000  0.26890000  1
  O  O278  1  0.79090000  0.40820000  0.33020000  1
  O  O279  1  0.80680000  0.89590000  0.34470000  1
  O  O280  1  0.94140000  0.84000000  0.55180000  1
  O  O281  1  0.94490000  0.16920000  0.22650000  1
  O  O282  1  0.94840000  0.58010000  0.32660000  1
  O  O283  1  0.95370000  0.03960000  0.13440000  1
  O  O284  1  0.95400000  0.07120000  0.33060000  1
  O  O285  1  0.95530000  0.32130000  0.55510000  1
  O  O286  1  0.96530000  0.67650000  0.22050000  1
  O  O287  1  0.97390000  0.54740000  0.12900000  1
