# generated using pymatgen
data_NiH12C18(NO2)2
_symmetry_space_group_name_H-M   'P 1'
_cell_length_a   9.95620000
_cell_length_b   14.89040000
_cell_length_c   28.22600000
_cell_angle_alpha   90.00000000
_cell_angle_beta   90.00000000
_cell_angle_gamma   106.30600000
_symmetry_Int_Tables_number   1
_chemical_formula_structural   NiH12C18(NO2)2
_chemical_formula_sum   'Ni8 H96 C144 N16 O32'
_cell_volume   4016.23532929
_cell_formula_units_Z   8
loop_
 _symmetry_equiv_pos_site_id
 _symmetry_equiv_pos_as_xyz
  1  'x, y, z'
loop_
 _atom_site_type_symbol
 _atom_site_label
 _atom_site_symmetry_multiplicity
 _atom_site_fract_x
 _atom_site_fract_y
 _atom_site_fract_z
 _atom_site_occupancy
  Ni  Ni0  1  0.18217000  0.82913000  0.49040000  1
  Ni  Ni1  1  0.23384000  0.51089000  0.66437000  1
  Ni  Ni2  1  0.26616000  0.48911000  0.16437000  1
  Ni  Ni3  1  0.31783000  0.17087000  0.99040000  1
  Ni  Ni4  1  0.68217000  0.82913000  0.00960000  1
  Ni  Ni5  1  0.73384000  0.51089000  0.83563000  1
  Ni  Ni6  1  0.76616000  0.48911000  0.33563000  1
  Ni  Ni7  1  0.81783000  0.17087000  0.50960000  1
  H  H8  1  0.00770000  0.88390000  0.26270000  1
  H  H9  1  0.01830000  0.99270000  0.34240000  1
  H  H10  1  0.03600000  0.07100000  0.81920000  1
  H  H11  1  0.05660000  0.60620000  0.18830000  1
  H  H12  1  0.06280000  0.62910000  0.70300000  1
  H  H13  1  0.07840000  0.14120000  0.46340000  1
  H  H14  1  0.08340000  0.18550000  0.25100000  1
  H  H15  1  0.09110000  0.05070000  0.92780000  1
  H  H16  1  0.10910000  0.37480000  0.24220000  1
  H  H17  1  0.10980000  0.39500000  0.75510000  1
  H  H18  1  0.12220000  0.83610000  0.86150000  1
  H  H19  1  0.12330000  0.05980000  0.06650000  1
  H  H20  1  0.12460000  0.30320000  0.38110000  1
  H  H21  1  0.14400000  0.83340000  0.20790000  1
  H  H22  1  0.14810000  0.97900000  0.60510000  1
  H  H23  1  0.15440000  0.86820000  0.73870000  1
  H  H24  1  0.18060000  0.27720000  0.81350000  1
  H  H25  1  0.19230000  0.02770000  0.45260000  1
  H  H26  1  0.19810000  0.89830000  0.06650000  1
  H  H27  1  0.19890000  0.99440000  0.84300000  1
  H  H28  1  0.19980000  0.00980000  0.18670000  1
  H  H29  1  0.20910000  0.74710000  0.07640000  1
  H  H30  1  0.21040000  0.25620000  0.73270000  1
  H  H31  1  0.22600000  0.27070000  0.31070000  1
  H  H32  1  0.27400000  0.72930000  0.81070000  1
  H  H33  1  0.28960000  0.74380000  0.23270000  1
  H  H34  1  0.29090000  0.25290000  0.57640000  1
  H  H35  1  0.30020000  0.99020000  0.68670000  1
  H  H36  1  0.30110000  0.00560000  0.34300000  1
  H  H37  1  0.30190000  0.10170000  0.56650000  1
  H  H38  1  0.30770000  0.97230000  0.95260000  1
  H  H39  1  0.31940000  0.72280000  0.31350000  1
  H  H40  1  0.34560000  0.13180000  0.23870000  1
  H  H41  1  0.35190000  0.02100000  0.10510000  1
  H  H42  1  0.35600000  0.16660000  0.70790000  1
  H  H43  1  0.37540000  0.69680000  0.88110000  1
  H  H44  1  0.37670000  0.94020000  0.56650000  1
  H  H45  1  0.37780000  0.16390000  0.36150000  1
  H  H46  1  0.39020000  0.60500000  0.25510000  1
  H  H47  1  0.39090000  0.62520000  0.74220000  1
  H  H48  1  0.40890000  0.94930000  0.42780000  1
  H  H49  1  0.41660000  0.81450000  0.75100000  1
  H  H50  1  0.42160000  0.85880000  0.96340000  1
  H  H51  1  0.43720000  0.37090000  0.20300000  1
  H  H52  1  0.44340000  0.39380000  0.68830000  1
  H  H53  1  0.46400000  0.92900000  0.31920000  1
  H  H54  1  0.48170000  0.00730000  0.84240000  1
  H  H55  1  0.49230000  0.11610000  0.76270000  1
  H  H56  1  0.50770000  0.88390000  0.23730000  1
  H  H57  1  0.51830000  0.99270000  0.15760000  1
  H  H58  1  0.53600000  0.07100000  0.68080000  1
  H  H59  1  0.55660000  0.60620000  0.31170000  1
  H  H60  1  0.56280000  0.62910000  0.79700000  1
  H  H61  1  0.57840000  0.14120000  0.03660000  1
  H  H62  1  0.58340000  0.18550000  0.24900000  1
  H  H63  1  0.59110000  0.05070000  0.57220000  1
  H  H64  1  0.60910000  0.37480000  0.25780000  1
  H  H65  1  0.60980000  0.39500000  0.74490000  1
  H  H66  1  0.62220000  0.83610000  0.63850000  1
  H  H67  1  0.62330000  0.05980000  0.43350000  1
  H  H68  1  0.62460000  0.30320000  0.11890000  1
  H  H69  1  0.64400000  0.83340000  0.29210000  1
  H  H70  1  0.64810000  0.97900000  0.89490000  1
  H  H71  1  0.65440000  0.86820000  0.76130000  1
  H  H72  1  0.68060000  0.27720000  0.68650000  1
  H  H73  1  0.69230000  0.02770000  0.04740000  1
  H  H74  1  0.69810000  0.89830000  0.43350000  1
  H  H75  1  0.69890000  0.99440000  0.65700000  1
  H  H76  1  0.69980000  0.00980000  0.31330000  1
  H  H77  1  0.70910000  0.74710000  0.42360000  1
  H  H78  1  0.71040000  0.25620000  0.76730000  1
  H  H79  1  0.72600000  0.27070000  0.18930000  1
  H  H80  1  0.77400000  0.72930000  0.68930000  1
  H  H81  1  0.78960000  0.74380000  0.26730000  1
  H  H82  1  0.79090000  0.25290000  0.92360000  1
  H  H83  1  0.80020000  0.99020000  0.81330000  1
  H  H84  1  0.80110000  0.00560000  0.15700000  1
  H  H85  1  0.80190000  0.10170000  0.93350000  1
  H  H86  1  0.80770000  0.97230000  0.54740000  1
  H  H87  1  0.81940000  0.72280000  0.18650000  1
  H  H88  1  0.84560000  0.13180000  0.26130000  1
  H  H89  1  0.85190000  0.02100000  0.39490000  1
  H  H90  1  0.85600000  0.16660000  0.79210000  1
  H  H91  1  0.87540000  0.69680000  0.61890000  1
  H  H92  1  0.87670000  0.94020000  0.93350000  1
  H  H93  1  0.87780000  0.16390000  0.13850000  1
  H  H94  1  0.89020000  0.60500000  0.24490000  1
  H  H95  1  0.89090000  0.62520000  0.75780000  1
  H  H96  1  0.90890000  0.94930000  0.07220000  1
  H  H97  1  0.91660000  0.81450000  0.74900000  1
  H  H98  1  0.92160000  0.85880000  0.53660000  1
  H  H99  1  0.93720000  0.37090000  0.29700000  1
  H  H100  1  0.94340000  0.39380000  0.81170000  1
  H  H101  1  0.96400000  0.92900000  0.18080000  1
  H  H102  1  0.98170000  0.00730000  0.65760000  1
  H  H103  1  0.99230000  0.11610000  0.73730000  1
  C  C104  1  0.00600000  0.00620000  0.82664000  1
  C  C105  1  0.03080000  0.14840000  0.64657000  1
  C  C106  1  0.03460000  0.55740000  0.21114000  1
  C  C107  1  0.03760000  0.57860000  0.72490000  1
  C  C108  1  0.04230000  0.05770000  0.64070000  1
  C  C109  1  0.04280000  0.19800000  0.27990000  1
  C  C110  1  0.04370000  0.08260000  0.47897000  1
  C  C111  1  0.05470000  0.03040000  0.95826000  1
  C  C112  1  0.05600000  0.86740000  0.85155000  1
  C  C113  1  0.06420000  0.42330000  0.24208000  1
  C  C114  1  0.06540000  0.44370000  0.75523000  1
  C  C115  1  0.06730000  0.26710000  0.35703000  1
  C  C116  1  0.06880000  0.84910000  0.27330000  1
  C  C117  1  0.07350000  0.03580000  0.03838000  1
  C  C118  1  0.07440000  0.82980000  0.32146000  1
  C  C119  1  0.07700000  0.76720000  0.63586000  1
  C  C120  1  0.08510000  0.18350000  0.15164000  1
  C  C121  1  0.09820000  0.83430000  0.71386000  1
  C  C122  1  0.10240000  0.96140000  0.84080000  1
  C  C123  1  0.11240000  0.01470000  0.47261000  1
  C  C124  1  0.11630000  0.28650000  0.14231000  1
  C  C125  1  0.12680000  0.32210000  0.62722000  1
  C  C126  1  0.12760000  0.24870000  0.31510000  1
  C  C127  1  0.12780000  0.22160000  0.62276000  1
  C  C128  1  0.12910000  0.75330000  0.58696000  1
  C  C129  1  0.13490000  0.04210000  0.17685000  1
  C  C130  1  0.14290000  0.04110000  0.61000000  1
  C  C131  1  0.14980000  0.81920000  0.24052000  1
  C  C132  1  0.16270000  0.81870000  0.67165000  1
  C  C133  1  0.17370000  0.78650000  0.33691000  1
  C  C134  1  0.18290000  0.13760000  0.16615000  1
  C  C135  1  0.20720000  0.77590000  0.38868000  1
  C  C136  1  0.22710000  0.20320000  0.59280000  1
  C  C137  1  0.23320000  0.11370000  0.58700000  1
  C  C138  1  0.23900000  0.76860000  0.25520000  1
  C  C139  1  0.24590000  0.24550000  0.80322000  1
  C  C140  1  0.25410000  0.75450000  0.30322000  1
  C  C141  1  0.26100000  0.23140000  0.75520000  1
  C  C142  1  0.26680000  0.88630000  0.08700000  1
  C  C143  1  0.27290000  0.79680000  0.09280000  1
  C  C144  1  0.29280000  0.22410000  0.88868000  1
  C  C145  1  0.31710000  0.86240000  0.66615000  1
  C  C146  1  0.32630000  0.21350000  0.83691000  1
  C  C147  1  0.33730000  0.18130000  0.17165000  1
  C  C148  1  0.35020000  0.18080000  0.74052000  1
  C  C149  1  0.35710000  0.95890000  0.11000000  1
  C  C150  1  0.36510000  0.95790000  0.67685000  1
  C  C151  1  0.37090000  0.24670000  0.08696000  1
  C  C152  1  0.37220000  0.77840000  0.12276000  1
  C  C153  1  0.37240000  0.75130000  0.81510000  1
  C  C154  1  0.37320000  0.67790000  0.12722000  1
  C  C155  1  0.38370000  0.71350000  0.64231000  1
  C  C156  1  0.38760000  0.98530000  0.97261000  1
  C  C157  1  0.39760000  0.03860000  0.34080000  1
  C  C158  1  0.40180000  0.16570000  0.21386000  1
  C  C159  1  0.41490000  0.81650000  0.65164000  1
  C  C160  1  0.42300000  0.23280000  0.13586000  1
  C  C161  1  0.42560000  0.17020000  0.82146000  1
  C  C162  1  0.42650000  0.96420000  0.53838000  1
  C  C163  1  0.43120000  0.15090000  0.77330000  1
  C  C164  1  0.43270000  0.73290000  0.85703000  1
  C  C165  1  0.43460000  0.55630000  0.25523000  1
  C  C166  1  0.43580000  0.57670000  0.74208000  1
  C  C167  1  0.44400000  0.13260000  0.35155000  1
  C  C168  1  0.44530000  0.96960000  0.45826000  1
  C  C169  1  0.45630000  0.91740000  0.97897000  1
  C  C170  1  0.45720000  0.80200000  0.77990000  1
  C  C171  1  0.45770000  0.94230000  0.14070000  1
  C  C172  1  0.46240000  0.42140000  0.22490000  1
  C  C173  1  0.46540000  0.44260000  0.71114000  1
  C  C174  1  0.46920000  0.85160000  0.14657000  1
  C  C175  1  0.49400000  0.99380000  0.32664000  1
  C  C176  1  0.50600000  0.00620000  0.67336000  1
  C  C177  1  0.53080000  0.14840000  0.85343000  1
  C  C178  1  0.53460000  0.55740000  0.28886000  1
  C  C179  1  0.53760000  0.57860000  0.77510000  1
  C  C180  1  0.54230000  0.05770000  0.85930000  1
  C  C181  1  0.54280000  0.19800000  0.22010000  1
  C  C182  1  0.54370000  0.08260000  0.02103000  1
  C  C183  1  0.55470000  0.03040000  0.54174000  1
  C  C184  1  0.55600000  0.86740000  0.64845000  1
  C  C185  1  0.56420000  0.42330000  0.25792000  1
  C  C186  1  0.56540000  0.44370000  0.74477000  1
  C  C187  1  0.56730000  0.26710000  0.14297000  1
  C  C188  1  0.56880000  0.84910000  0.22670000  1
  C  C189  1  0.57350000  0.03580000  0.46162000  1
  C  C190  1  0.57440000  0.82980000  0.17854000  1
  C  C191  1  0.57700000  0.76720000  0.86414000  1
  C  C192  1  0.58510000  0.18350000  0.34836000  1
  C  C193  1  0.59820000  0.83430000  0.78614000  1
  C  C194  1  0.60240000  0.96140000  0.65920000  1
  C  C195  1  0.61240000  0.01470000  0.02739000  1
  C  C196  1  0.61630000  0.28650000  0.35769000  1
  C  C197  1  0.62680000  0.32210000  0.87278000  1
  C  C198  1  0.62760000  0.24870000  0.18490000  1
  C  C199  1  0.62780000  0.22160000  0.87724000  1
  C  C200  1  0.62910000  0.75330000  0.91304000  1
  C  C201  1  0.63490000  0.04210000  0.32315000  1
  C  C202  1  0.64290000  0.04110000  0.89000000  1
  C  C203  1  0.64980000  0.81920000  0.25948000  1
  C  C204  1  0.66270000  0.81870000  0.82835000  1
  C  C205  1  0.67370000  0.78650000  0.16309000  1
  C  C206  1  0.68290000  0.13760000  0.33385000  1
  C  C207  1  0.70720000  0.77590000  0.11132000  1
  C  C208  1  0.72710000  0.20320000  0.90720000  1
  C  C209  1  0.73320000  0.11370000  0.91300000  1
  C  C210  1  0.73900000  0.76860000  0.24480000  1
  C  C211  1  0.74590000  0.24550000  0.69678000  1
  C  C212  1  0.75410000  0.75450000  0.19678000  1
  C  C213  1  0.76100000  0.23140000  0.74480000  1
  C  C214  1  0.76680000  0.88630000  0.41300000  1
  C  C215  1  0.77290000  0.79680000  0.40720000  1
  C  C216  1  0.79280000  0.22410000  0.61132000  1
  C  C217  1  0.81710000  0.86240000  0.83385000  1
  C  C218  1  0.82630000  0.21350000  0.66309000  1
  C  C219  1  0.83730000  0.18130000  0.32835000  1
  C  C220  1  0.85020000  0.18080000  0.75948000  1
  C  C221  1  0.85710000  0.95890000  0.39000000  1
  C  C222  1  0.86510000  0.95790000  0.82315000  1
  C  C223  1  0.87090000  0.24670000  0.41304000  1
  C  C224  1  0.87220000  0.77840000  0.37724000  1
  C  C225  1  0.87240000  0.75130000  0.68490000  1
  C  C226  1  0.87320000  0.67790000  0.37278000  1
  C  C227  1  0.88370000  0.71350000  0.85769000  1
  C  C228  1  0.88760000  0.98530000  0.52739000  1
  C  C229  1  0.89760000  0.03860000  0.15920000  1
  C  C230  1  0.90180000  0.16570000  0.28614000  1
  C  C231  1  0.91490000  0.81650000  0.84836000  1
  C  C232  1  0.92300000  0.23280000  0.36414000  1
  C  C233  1  0.92560000  0.17020000  0.67854000  1
  C  C234  1  0.92650000  0.96420000  0.96162000  1
  C  C235  1  0.93120000  0.15090000  0.72670000  1
  C  C236  1  0.93270000  0.73290000  0.64297000  1
  C  C237  1  0.93460000  0.55630000  0.24477000  1
  C  C238  1  0.93580000  0.57670000  0.75792000  1
  C  C239  1  0.94400000  0.13260000  0.14845000  1
  C  C240  1  0.94530000  0.96960000  0.04174000  1
  C  C241  1  0.95630000  0.91740000  0.52103000  1
  C  C242  1  0.95720000  0.80200000  0.72010000  1
  C  C243  1  0.95770000  0.94230000  0.35930000  1
  C  C244  1  0.96240000  0.42140000  0.27510000  1
  C  C245  1  0.96540000  0.44260000  0.78886000  1
  C  C246  1  0.96920000  0.85160000  0.35343000  1
  C  C247  1  0.99400000  0.99380000  0.17336000  1
  N  N248  1  0.06930000  0.93130000  0.49386000  1
  N  N249  1  0.10200000  0.49120000  0.20984000  1
  N  N250  1  0.10220000  0.51140000  0.72268000  1
  N  N251  1  0.12880000  0.06660000  0.99631000  1
  N  N252  1  0.37120000  0.93340000  0.49631000  1
  N  N253  1  0.39780000  0.48860000  0.22268000  1
  N  N254  1  0.39800000  0.50880000  0.70984000  1
  N  N255  1  0.43070000  0.06870000  0.99386000  1
  N  N256  1  0.56930000  0.93130000  0.00614000  1
  N  N257  1  0.60200000  0.49120000  0.29016000  1
  N  N258  1  0.60220000  0.51140000  0.77732000  1
  N  N259  1  0.62880000  0.06660000  0.50369000  1
  N  N260  1  0.87120000  0.93340000  0.00369000  1
  N  N261  1  0.89780000  0.48860000  0.27732000  1
  N  N262  1  0.89800000  0.50880000  0.79016000  1
  N  N263  1  0.93070000  0.06870000  0.50614000  1
  O  O264  1  0.04160000  0.31000000  0.11175000  1
  O  O265  1  0.07790000  0.35800000  0.59277000  1
  O  O266  1  0.11880000  0.67390000  0.57228000  1
  O  O267  1  0.16900000  0.82630000  0.56275000  1
  O  O268  1  0.17530000  0.36660000  0.66377000  1
  O  O269  1  0.18480000  0.83450000  0.41746000  1
  O  O270  1  0.20790000  0.34290000  0.16728000  1
  O  O271  1  0.23680000  0.28670000  0.89902000  1
  O  O272  1  0.26320000  0.71330000  0.39902000  1
  O  O273  1  0.29210000  0.65710000  0.66728000  1
  O  O274  1  0.31520000  0.16550000  0.91746000  1
  O  O275  1  0.32470000  0.63340000  0.16377000  1
  O  O276  1  0.33100000  0.17370000  0.06275000  1
  O  O277  1  0.38120000  0.32610000  0.07228000  1
  O  O278  1  0.42210000  0.64200000  0.09277000  1
  O  O279  1  0.45840000  0.69000000  0.61175000  1
  O  O280  1  0.54160000  0.31000000  0.38825000  1
  O  O281  1  0.57790000  0.35800000  0.90723000  1
  O  O282  1  0.61880000  0.67390000  0.92772000  1
  O  O283  1  0.66900000  0.82630000  0.93725000  1
  O  O284  1  0.67530000  0.36660000  0.83623000  1
  O  O285  1  0.68480000  0.83450000  0.08254000  1
  O  O286  1  0.70790000  0.34290000  0.33272000  1
  O  O287  1  0.73680000  0.28670000  0.60098000  1
  O  O288  1  0.76320000  0.71330000  0.10098000  1
  O  O289  1  0.79210000  0.65710000  0.83272000  1
  O  O290  1  0.81520000  0.16550000  0.58254000  1
  O  O291  1  0.82470000  0.63340000  0.33623000  1
  O  O292  1  0.83100000  0.17370000  0.43725000  1
  O  O293  1  0.88120000  0.32610000  0.42772000  1
  O  O294  1  0.92210000  0.64200000  0.40723000  1
  O  O295  1  0.95840000  0.69000000  0.88825000  1
