# generated using pymatgen
data_VH4C8O5
_symmetry_space_group_name_H-M   'P 1'
_cell_length_a   6.80500000
_cell_length_b   13.97930000
_cell_length_c   15.94470000
_cell_angle_alpha   90.00000000
_cell_angle_beta   90.00000000
_cell_angle_gamma   90.00000000
_symmetry_Int_Tables_number   1
_chemical_formula_structural   VH4C8O5
_chemical_formula_sum   'V4 H16 C32 O20'
_cell_volume   1516.80554275
_cell_formula_units_Z   4
loop_
 _symmetry_equiv_pos_site_id
 _symmetry_equiv_pos_as_xyz
  1  'x, y, z'
loop_
 _atom_site_type_symbol
 _atom_site_label
 _atom_site_symmetry_multiplicity
 _atom_site_fract_x
 _atom_site_fract_y
 _atom_site_fract_z
 _atom_site_occupancy
  V  V0  1  0.06503000  0.73611000  0.00120000  1
  V  V1  1  0.43497000  0.26389000  0.50120000  1
  V  V2  1  0.56503000  0.76389000  0.99880000  1
  V  V3  1  0.93497000  0.23611000  0.49880000  1
  H  H4  1  0.03080000  0.40760000  0.71470000  1
  H  H5  1  0.03220000  0.45320000  0.32060000  1
  H  H6  1  0.05130000  0.51650000  0.82330000  1
  H  H7  1  0.05310000  0.56150000  0.21160000  1
  H  H8  1  0.44690000  0.43850000  0.71160000  1
  H  H9  1  0.44870000  0.48350000  0.32330000  1
  H  H10  1  0.46780000  0.54680000  0.82060000  1
  H  H11  1  0.46920000  0.59240000  0.21470000  1
  H  H12  1  0.53080000  0.09240000  0.28530000  1
  H  H13  1  0.53220000  0.04680000  0.67940000  1
  H  H14  1  0.55130000  0.98350000  0.17670000  1
  H  H15  1  0.55310000  0.93850000  0.78840000  1
  H  H16  1  0.94690000  0.06150000  0.28840000  1
  H  H17  1  0.94870000  0.01650000  0.67670000  1
  H  H18  1  0.96780000  0.95320000  0.17940000  1
  H  H19  1  0.96920000  0.90760000  0.78530000  1
  C  C20  1  0.06910000  0.04520000  0.26647000  1
  C  C21  1  0.07040000  0.00149000  0.69966000  1
  C  C22  1  0.08160000  0.98030000  0.20131000  1
  C  C23  1  0.08260000  0.93637000  0.76473000  1
  C  C24  1  0.22430000  0.11905000  0.60191000  1
  C  C25  1  0.22450000  0.15096000  0.37326000  1
  C  C26  1  0.23690000  0.08589000  0.29911000  1
  C  C27  1  0.23810000  0.04426000  0.66867000  1
  C  C28  1  0.26190000  0.95574000  0.16867000  1
  C  C29  1  0.26310000  0.91411000  0.79911000  1
  C  C30  1  0.27550000  0.84904000  0.87326000  1
  C  C31  1  0.27570000  0.88095000  0.10191000  1
  C  C32  1  0.41740000  0.06363000  0.26473000  1
  C  C33  1  0.41840000  0.01970000  0.70131000  1
  C  C34  1  0.42960000  0.99851000  0.19966000  1
  C  C35  1  0.43090000  0.95480000  0.76647000  1
  C  C36  1  0.56910000  0.45480000  0.73353000  1
  C  C37  1  0.57040000  0.49851000  0.30034000  1
  C  C38  1  0.58160000  0.51970000  0.79869000  1
  C  C39  1  0.58260000  0.56363000  0.23527000  1
  C  C40  1  0.72430000  0.38095000  0.39809000  1
  C  C41  1  0.72450000  0.34904000  0.62674000  1
  C  C42  1  0.73690000  0.41411000  0.70089000  1
  C  C43  1  0.73810000  0.45574000  0.33133000  1
  C  C44  1  0.76190000  0.54426000  0.83133000  1
  C  C45  1  0.76310000  0.58589000  0.20089000  1
  C  C46  1  0.77550000  0.65096000  0.12674000  1
  C  C47  1  0.77570000  0.61905000  0.89809000  1
  C  C48  1  0.91740000  0.43637000  0.73527000  1
  C  C49  1  0.91840000  0.48030000  0.29869000  1
  C  C50  1  0.92960000  0.50149000  0.80034000  1
  C  C51  1  0.93090000  0.54520000  0.23353000  1
  O  O52  1  0.05580000  0.14114000  0.57608000  1
  O  O53  1  0.05630000  0.16834000  0.40196000  1
  O  O54  1  0.11610000  0.81703000  0.90193000  1
  O  O55  1  0.11630000  0.84507000  0.07724000  1
  O  O56  1  0.21694000  0.30870000  0.50722000  1
  O  O57  1  0.28306000  0.69130000  0.00722000  1
  O  O58  1  0.38370000  0.15493000  0.57724000  1
  O  O59  1  0.38390000  0.18297000  0.40193000  1
  O  O60  1  0.44370000  0.83166000  0.90196000  1
  O  O61  1  0.44420000  0.85886000  0.07608000  1
  O  O62  1  0.55580000  0.35886000  0.42392000  1
  O  O63  1  0.55630000  0.33166000  0.59804000  1
  O  O64  1  0.61610000  0.68297000  0.09807000  1
  O  O65  1  0.61630000  0.65493000  0.92276000  1
  O  O66  1  0.71694000  0.19130000  0.49278000  1
  O  O67  1  0.78306000  0.80870000  0.99278000  1
  O  O68  1  0.88370000  0.34507000  0.42276000  1
  O  O69  1  0.88390000  0.31703000  0.59807000  1
  O  O70  1  0.94370000  0.66834000  0.09804000  1
  O  O71  1  0.94420000  0.64114000  0.92392000  1
