# generated using pymatgen
data_NiH12C24(NO2)6
_symmetry_space_group_name_H-M   'P 1'
_cell_length_a   11.33730000
_cell_length_b   11.33730000
_cell_length_c   30.74600000
_cell_angle_alpha   90.00000000
_cell_angle_beta   90.00000000
_cell_angle_gamma   118.54300000
_symmetry_Int_Tables_number   1
_chemical_formula_structural   NiH12C24(NO2)6
_chemical_formula_sum   'Ni4 H48 C96 N24 O48'
_cell_volume   3471.59679858
_cell_formula_units_Z   4
loop_
 _symmetry_equiv_pos_site_id
 _symmetry_equiv_pos_as_xyz
  1  'x, y, z'
loop_
 _atom_site_type_symbol
 _atom_site_label
 _atom_site_symmetry_multiplicity
 _atom_site_fract_x
 _atom_site_fract_y
 _atom_site_fract_z
 _atom_site_occupancy
  Ni  Ni0  1  0.73365000  0.18661000  0.07295000  1
  Ni  Ni1  1  0.68661000  0.23365000  0.57295000  1
  Ni  Ni2  1  0.23365000  0.68661000  0.42705000  1
  Ni  Ni3  1  0.18661000  0.73365000  0.92705000  1
  H  H4  1  0.23970000  0.00850000  0.10450000  1
  H  H5  1  0.44300000  0.01300000  0.10350000  1
  H  H6  1  0.34530000  0.01470000  0.96380000  1
  H  H7  1  0.06550000  0.03190000  0.11570000  1
  H  H8  1  0.86870000  0.03570000  0.11360000  1
  H  H9  1  0.03190000  0.06550000  0.88430000  1
  H  H10  1  0.71300000  0.10640000  0.93280000  1
  H  H11  1  0.85890000  0.10790000  0.54510000  1
  H  H12  1  0.38200000  0.12000000  0.72670000  1
  H  H13  1  0.95380000  0.20260000  0.42830000  1
  H  H14  1  0.60640000  0.21300000  0.43280000  1
  H  H15  1  0.35060000  0.21940000  0.96330000  1
  H  H16  1  0.00850000  0.23970000  0.89550000  1
  H  H17  1  0.77800000  0.27140000  0.70710000  1
  H  H18  1  0.77140000  0.27800000  0.20710000  1
  H  H19  1  0.01470000  0.34530000  0.03620000  1
  H  H20  1  0.21940000  0.35060000  0.03670000  1
  H  H21  1  0.60790000  0.35890000  0.04510000  1
  H  H22  1  0.41020000  0.36660000  0.04530000  1
  H  H23  1  0.53570000  0.36870000  0.61360000  1
  H  H24  1  0.12000000  0.38200000  0.27330000  1
  H  H25  1  0.36660000  0.41020000  0.95470000  1
  H  H26  1  0.01300000  0.44300000  0.89650000  1
  H  H27  1  0.70260000  0.45380000  0.92830000  1
  H  H28  1  0.73970000  0.50850000  0.39550000  1
  H  H29  1  0.94300000  0.51300000  0.39650000  1
  H  H30  1  0.84530000  0.51470000  0.53620000  1
  H  H31  1  0.56550000  0.53190000  0.38430000  1
  H  H32  1  0.36870000  0.53570000  0.38640000  1
  H  H33  1  0.53190000  0.56550000  0.61570000  1
  H  H34  1  0.21300000  0.60640000  0.56720000  1
  H  H35  1  0.35890000  0.60790000  0.95490000  1
  H  H36  1  0.88200000  0.62000000  0.77330000  1
  H  H37  1  0.45380000  0.70260000  0.07170000  1
  H  H38  1  0.10640000  0.71300000  0.06720000  1
  H  H39  1  0.85060000  0.71940000  0.53670000  1
  H  H40  1  0.50850000  0.73970000  0.60450000  1
  H  H41  1  0.27800000  0.77140000  0.79290000  1
  H  H42  1  0.27140000  0.77800000  0.29290000  1
  H  H43  1  0.51470000  0.84530000  0.46380000  1
  H  H44  1  0.71940000  0.85060000  0.46330000  1
  H  H45  1  0.10790000  0.85890000  0.45490000  1
  H  H46  1  0.91020000  0.86660000  0.45470000  1
  H  H47  1  0.03570000  0.86870000  0.88640000  1
  H  H48  1  0.62000000  0.88200000  0.22670000  1
  H  H49  1  0.86660000  0.91020000  0.54530000  1
  H  H50  1  0.51300000  0.94300000  0.60350000  1
  H  H51  1  0.20260000  0.95380000  0.57170000  1
  C  C52  1  0.28070000  0.02470000  0.94790000  1
  C  C53  1  0.78710000  0.03250000  0.55710000  1
  C  C54  1  0.67300000  0.05340000  0.16122000  1
  C  C55  1  0.09610000  0.05810000  0.90120000  1
  C  C56  1  0.69210000  0.07610000  0.20981000  1
  C  C57  1  0.31350000  0.08170000  0.09230000  1
  C  C58  1  0.43600000  0.08440000  0.09120000  1
  C  C59  1  0.05810000  0.09610000  0.09880000  1
  C  C60  1  0.94000000  0.09920000  0.09730000  1
  C  C61  1  0.72360000  0.12260000  0.30053000  1
  C  C62  1  0.74300000  0.14680000  0.34880000  1
  C  C63  1  0.28380000  0.14840000  0.94790000  1
  C  C64  1  0.66970000  0.15290000  0.87380000  1
  C  C65  1  0.46890000  0.15490000  0.73751000  1
  C  C66  1  0.85410000  0.16070000  0.37046000  1
  C  C67  1  0.18820000  0.16820000  0.92490000  1
  C  C68  1  0.65290000  0.16970000  0.37380000  1
  C  C69  1  0.49370000  0.17110000  0.78262000  1
  C  C70  1  0.70290000  0.17150000  0.91737000  1
  C  C71  1  0.55340000  0.17300000  0.66122000  1
  C  C72  1  0.29970000  0.18730000  0.07544000  1
  C  C73  1  0.16820000  0.18820000  0.07510000  1
  C  C74  1  0.57610000  0.19210000  0.70981000  1
  C  C75  1  0.87770000  0.19610000  0.41474000  1
  C  C76  1  0.67150000  0.20290000  0.41737000  1
  C  C77  1  0.74520000  0.20560000  0.22597000  1
  C  C78  1  0.78730000  0.22110000  0.43808000  1
  C  C79  1  0.62260000  0.22360000  0.80053000  1
  C  C80  1  0.75870000  0.22570000  0.27020000  1
  C  C81  1  0.64680000  0.24300000  0.84880000  1
  C  C82  1  0.70560000  0.24520000  0.72597000  1
  C  C83  1  0.72570000  0.25870000  0.77020000  1
  C  C84  1  0.81420000  0.26720000  0.48446000  1
  C  C85  1  0.02470000  0.28070000  0.05210000  1
  C  C86  1  0.14840000  0.28380000  0.05210000  1
  C  C87  1  0.53250000  0.28710000  0.05710000  1
  C  C88  1  0.72110000  0.28730000  0.93808000  1
  C  C89  1  0.41390000  0.29310000  0.05720000  1
  C  C90  1  0.18730000  0.29970000  0.92456000  1
  C  C91  1  0.08170000  0.31350000  0.90770000  1
  C  C92  1  0.76720000  0.31420000  0.98446000  1
  C  C93  1  0.66070000  0.35410000  0.87046000  1
  C  C94  1  0.69610000  0.37770000  0.91474000  1
  C  C95  1  0.29310000  0.41390000  0.94280000  1
  C  C96  1  0.08440000  0.43600000  0.90880000  1
  C  C97  1  0.59920000  0.44000000  0.59730000  1
  C  C98  1  0.15490000  0.46890000  0.26249000  1
  C  C99  1  0.17110000  0.49370000  0.21738000  1
  C  C100  1  0.78070000  0.52470000  0.55210000  1
  C  C101  1  0.28710000  0.53250000  0.94290000  1
  C  C102  1  0.17300000  0.55340000  0.33878000  1
  C  C103  1  0.59610000  0.55810000  0.59880000  1
  C  C104  1  0.19210000  0.57610000  0.29019000  1
  C  C105  1  0.81350000  0.58170000  0.40770000  1
  C  C106  1  0.93600000  0.58440000  0.40880000  1
  C  C107  1  0.55810000  0.59610000  0.40120000  1
  C  C108  1  0.44000000  0.59920000  0.40270000  1
  C  C109  1  0.22360000  0.62260000  0.19947000  1
  C  C110  1  0.24300000  0.64680000  0.15120000  1
  C  C111  1  0.78380000  0.64840000  0.55210000  1
  C  C112  1  0.16970000  0.65290000  0.62620000  1
  C  C113  1  0.96890000  0.65490000  0.76249000  1
  C  C114  1  0.35410000  0.66070000  0.12954000  1
  C  C115  1  0.68820000  0.66820000  0.57510000  1
  C  C116  1  0.15290000  0.66970000  0.12620000  1
  C  C117  1  0.99370000  0.67110000  0.71738000  1
  C  C118  1  0.20290000  0.67150000  0.58263000  1
  C  C119  1  0.05340000  0.67300000  0.83878000  1
  C  C120  1  0.79970000  0.68730000  0.42456000  1
  C  C121  1  0.66820000  0.68820000  0.42490000  1
  C  C122  1  0.07610000  0.69210000  0.79019000  1
  C  C123  1  0.37770000  0.69610000  0.08526000  1
  C  C124  1  0.17150000  0.70290000  0.08263000  1
  C  C125  1  0.24520000  0.70560000  0.27403000  1
  C  C126  1  0.28730000  0.72110000  0.06192000  1
  C  C127  1  0.12260000  0.72360000  0.69947000  1
  C  C128  1  0.25870000  0.72570000  0.22980000  1
  C  C129  1  0.14680000  0.74300000  0.65120000  1
  C  C130  1  0.20560000  0.74520000  0.77403000  1
  C  C131  1  0.22570000  0.75870000  0.72980000  1
  C  C132  1  0.31420000  0.76720000  0.01554000  1
  C  C133  1  0.52470000  0.78070000  0.44790000  1
  C  C134  1  0.64840000  0.78380000  0.44790000  1
  C  C135  1  0.03250000  0.78710000  0.44290000  1
  C  C136  1  0.22110000  0.78730000  0.56192000  1
  C  C137  1  0.91390000  0.79310000  0.44280000  1
  C  C138  1  0.68730000  0.79970000  0.57544000  1
  C  C139  1  0.58170000  0.81350000  0.59230000  1
  C  C140  1  0.26720000  0.81420000  0.51554000  1
  C  C141  1  0.16070000  0.85410000  0.62954000  1
  C  C142  1  0.19610000  0.87770000  0.58526000  1
  C  C143  1  0.79310000  0.91390000  0.55720000  1
  C  C144  1  0.58440000  0.93600000  0.59120000  1
  C  C145  1  0.09920000  0.94000000  0.90270000  1
  C  C146  1  0.65490000  0.96890000  0.23751000  1
  C  C147  1  0.67110000  0.99370000  0.28262000  1
  N  N148  1  0.66780000  0.03100000  0.85420000  1
  N  N149  1  0.68420000  0.04580000  0.57324000  1
  N  N150  1  0.37450000  0.12990000  0.81030000  1
  N  N151  1  0.95960000  0.14080000  0.34780000  1
  N  N152  1  0.53100000  0.16780000  0.35420000  1
  N  N153  1  0.54580000  0.18420000  0.07324000  1
  N  N154  1  0.91900000  0.18820000  0.07394000  1
  N  N155  1  0.86690000  0.30930000  0.78430000  1
  N  N156  1  0.80930000  0.36690000  0.28430000  1
  N  N157  1  0.12990000  0.37450000  0.18970000  1
  N  N158  1  0.68820000  0.41900000  0.57394000  1
  N  N159  1  0.64080000  0.45960000  0.84780000  1
  N  N160  1  0.16780000  0.53100000  0.64580000  1
  N  N161  1  0.18420000  0.54580000  0.92676000  1
  N  N162  1  0.87450000  0.62990000  0.68970000  1
  N  N163  1  0.45960000  0.64080000  0.15220000  1
  N  N164  1  0.03100000  0.66780000  0.14580000  1
  N  N165  1  0.04580000  0.68420000  0.42676000  1
  N  N166  1  0.41900000  0.68820000  0.42606000  1
  N  N167  1  0.36690000  0.80930000  0.71570000  1
  N  N168  1  0.30930000  0.86690000  0.21570000  1
  N  N169  1  0.62990000  0.87450000  0.31030000  1
  N  N170  1  0.18820000  0.91900000  0.92606000  1
  N  N171  1  0.14080000  0.95960000  0.65220000  1
  O  O172  1  0.11620000  0.03240000  0.62950000  1
  O  O173  1  0.26570000  0.04430000  0.79690000  1
  O  O174  1  0.48440000  0.09860000  0.32220000  1
  O  O175  1  0.03240000  0.11620000  0.37050000  1
  O  O176  1  0.43480000  0.11700000  0.64779000  1
  O  O177  1  0.96810000  0.15030000  0.30896000  1
  O  O178  1  0.71830000  0.15890000  0.13812000  1
  O  O179  1  0.38550000  0.19730000  0.84280000  1
  O  O180  1  0.74100000  0.21240000  0.00692000  1
  O  O181  1  0.65890000  0.21830000  0.63812000  1
  O  O182  1  0.48540000  0.23680000  0.37030000  1
  O  O183  1  0.71240000  0.24100000  0.50692000  1
  O  O184  1  0.04430000  0.26570000  0.20310000  1
  O  O185  1  0.89290000  0.28370000  0.81900000  1
  O  O186  1  0.93360000  0.32740000  0.49693000  1
  O  O187  1  0.95490000  0.37930000  0.75980000  1
  O  O188  1  0.19730000  0.38550000  0.15720000  1
  O  O189  1  0.78370000  0.39290000  0.31900000  1
  O  O190  1  0.82740000  0.43360000  0.99693000  1
  O  O191  1  0.11700000  0.43480000  0.35221000  1
  O  O192  1  0.87930000  0.45490000  0.25980000  1
  O  O193  1  0.65030000  0.46810000  0.80896000  1
  O  O194  1  0.09860000  0.48440000  0.67780000  1
  O  O195  1  0.23680000  0.48540000  0.62970000  1
  O  O196  1  0.61620000  0.53240000  0.87050000  1
  O  O197  1  0.76570000  0.54430000  0.70310000  1
  O  O198  1  0.98440000  0.59860000  0.17780000  1
  O  O199  1  0.53240000  0.61620000  0.12950000  1
  O  O200  1  0.93480000  0.61700000  0.85221000  1
  O  O201  1  0.46810000  0.65030000  0.19104000  1
  O  O202  1  0.21830000  0.65890000  0.36188000  1
  O  O203  1  0.88550000  0.69730000  0.65720000  1
  O  O204  1  0.24100000  0.71240000  0.49308000  1
  O  O205  1  0.15890000  0.71830000  0.86188000  1
  O  O206  1  0.98540000  0.73680000  0.12970000  1
  O  O207  1  0.21240000  0.74100000  0.99308000  1
  O  O208  1  0.54430000  0.76570000  0.29690000  1
  O  O209  1  0.39290000  0.78370000  0.68100000  1
  O  O210  1  0.43360000  0.82740000  0.00307000  1
  O  O211  1  0.45490000  0.87930000  0.74020000  1
  O  O212  1  0.69730000  0.88550000  0.34280000  1
  O  O213  1  0.28370000  0.89290000  0.18100000  1
  O  O214  1  0.32740000  0.93360000  0.50307000  1
  O  O215  1  0.61700000  0.93480000  0.14779000  1
  O  O216  1  0.37930000  0.95490000  0.24020000  1
  O  O217  1  0.15030000  0.96810000  0.69104000  1
  O  O218  1  0.59860000  0.98440000  0.82220000  1
  O  O219  1  0.73680000  0.98540000  0.87030000  1
