# generated using pymatgen
data_MgH2(CO2)2
_symmetry_space_group_name_H-M   'P 1'
_cell_length_a   9.81840000
_cell_length_b   11.29620000
_cell_length_c   14.58470000
_cell_angle_alpha   91.66200000
_cell_angle_beta   90.00000000
_cell_angle_gamma   90.00000000
_symmetry_Int_Tables_number   1
_chemical_formula_structural   MgH2(CO2)2
_chemical_formula_sum   'Mg12 H24 C24 O48'
_cell_volume   1616.91747673
_cell_formula_units_Z   12
loop_
 _symmetry_equiv_pos_site_id
 _symmetry_equiv_pos_as_xyz
  1  'x, y, z'
loop_
 _atom_site_type_symbol
 _atom_site_label
 _atom_site_symmetry_multiplicity
 _atom_site_fract_x
 _atom_site_fract_y
 _atom_site_fract_z
 _atom_site_occupancy
  Mg  Mg0  1  0.00000000  0.00000000  0.00000000  1
  Mg  Mg1  1  0.00000000  0.50000000  0.00000000  1
  Mg  Mg2  1  0.07960000  0.75645000  0.13511000  1
  Mg  Mg3  1  0.11114000  0.25983000  0.69074000  1
  Mg  Mg4  1  0.38886000  0.75983000  0.19074000  1
  Mg  Mg5  1  0.42040000  0.25645000  0.63511000  1
  Mg  Mg6  1  0.50000000  0.00000000  0.50000000  1
  Mg  Mg7  1  0.50000000  0.50000000  0.50000000  1
  Mg  Mg8  1  0.57960000  0.74355000  0.36489000  1
  Mg  Mg9  1  0.61114000  0.24017000  0.80926000  1
  Mg  Mg10  1  0.88886000  0.74017000  0.30926000  1
  Mg  Mg11  1  0.92040000  0.24355000  0.86489000  1
  H  H12  1  0.04500000  0.52330000  0.73810000  1
  H  H13  1  0.11880000  0.05360000  0.54890000  1
  H  H14  1  0.15740000  0.30470000  0.07000000  1
  H  H15  1  0.20010000  0.02240000  0.77270000  1
  H  H16  1  0.20490000  0.49420000  0.51700000  1
  H  H17  1  0.24100000  0.86070000  0.36930000  1
  H  H18  1  0.25900000  0.36070000  0.86930000  1
  H  H19  1  0.29510000  0.99420000  0.01700000  1
  H  H20  1  0.29990000  0.52240000  0.27270000  1
  H  H21  1  0.34260000  0.80470000  0.57000000  1
  H  H22  1  0.38120000  0.55360000  0.04890000  1
  H  H23  1  0.45500000  0.02330000  0.23810000  1
  H  H24  1  0.54500000  0.97670000  0.76190000  1
  H  H25  1  0.61880000  0.44640000  0.95110000  1
  H  H26  1  0.65740000  0.19530000  0.43000000  1
  H  H27  1  0.70010000  0.47760000  0.72730000  1
  H  H28  1  0.70490000  0.00580000  0.98300000  1
  H  H29  1  0.74100000  0.63930000  0.13070000  1
  H  H30  1  0.75900000  0.13930000  0.63070000  1
  H  H31  1  0.79510000  0.50580000  0.48300000  1
  H  H32  1  0.79990000  0.97760000  0.22730000  1
  H  H33  1  0.84260000  0.69530000  0.93000000  1
  H  H34  1  0.88120000  0.94640000  0.45110000  1
  H  H35  1  0.95500000  0.47670000  0.26190000  1
  C  C36  1  0.02050000  0.48060000  0.79080000  1
  C  C37  1  0.09980000  0.25930000  0.03025000  1
  C  C38  1  0.13520000  0.04990000  0.81667000  1
  C  C39  1  0.17070000  0.82970000  0.33079000  1
  C  C40  1  0.21260000  0.07340000  0.55455000  1
  C  C41  1  0.22390000  0.43130000  0.55692000  1
  C  C42  1  0.27610000  0.93130000  0.05692000  1
  C  C43  1  0.28740000  0.57340000  0.05455000  1
  C  C44  1  0.32930000  0.32970000  0.83079000  1
  C  C45  1  0.36480000  0.54990000  0.31667000  1
  C  C46  1  0.40020000  0.75930000  0.53025000  1
  C  C47  1  0.47950000  0.98060000  0.29080000  1
  C  C48  1  0.52050000  0.01940000  0.70920000  1
  C  C49  1  0.59980000  0.24070000  0.46975000  1
  C  C50  1  0.63520000  0.45010000  0.68333000  1
  C  C51  1  0.67070000  0.67030000  0.16921000  1
  C  C52  1  0.71260000  0.42660000  0.94545000  1
  C  C53  1  0.72390000  0.06870000  0.94308000  1
  C  C54  1  0.77610000  0.56870000  0.44308000  1
  C  C55  1  0.78740000  0.92660000  0.44545000  1
  C  C56  1  0.82930000  0.17030000  0.66921000  1
  C  C57  1  0.86480000  0.95010000  0.18333000  1
  C  C58  1  0.90020000  0.74070000  0.96975000  1
  C  C59  1  0.97950000  0.51940000  0.20920000  1
  O  O60  1  0.00513000  0.53784000  0.86337000  1
  O  O61  1  0.00634000  0.36918000  0.78080000  1
  O  O62  1  0.02563000  0.31606000  0.97474000  1
  O  O63  1  0.05777000  0.81390000  0.36643000  1
  O  O64  1  0.08114000  0.15031000  0.80378000  1
  O  O65  1  0.10325000  0.15071000  0.03694000  1
  O  O66  1  0.11074000  0.98488000  0.88133000  1
  O  O67  1  0.12614000  0.38827000  0.59736000  1
  O  O68  1  0.15210000  0.89925000  0.06356000  1
  O  O69  1  0.20071000  0.80816000  0.24703000  1
  O  O70  1  0.20692000  0.51707000  0.00534000  1
  O  O71  1  0.24386000  0.15593000  0.61252000  1
  O  O72  1  0.25614000  0.65593000  0.11252000  1
  O  O73  1  0.29308000  0.01707000  0.50534000  1
  O  O74  1  0.29929000  0.30816000  0.74703000  1
  O  O75  1  0.34790000  0.39925000  0.56356000  1
  O  O76  1  0.37386000  0.88827000  0.09736000  1
  O  O77  1  0.38926000  0.48488000  0.38133000  1
  O  O78  1  0.39675000  0.65071000  0.53694000  1
  O  O79  1  0.41886000  0.65031000  0.30378000  1
  O  O80  1  0.44223000  0.31390000  0.86643000  1
  O  O81  1  0.47437000  0.81606000  0.47474000  1
  O  O82  1  0.49366000  0.86918000  0.28080000  1
  O  O83  1  0.49487000  0.03784000  0.36337000  1
  O  O84  1  0.50513000  0.96216000  0.63663000  1
  O  O85  1  0.50634000  0.13082000  0.71920000  1
  O  O86  1  0.52563000  0.18394000  0.52526000  1
  O  O87  1  0.55777000  0.68610000  0.13357000  1
  O  O88  1  0.58114000  0.34969000  0.69622000  1
  O  O89  1  0.60325000  0.34929000  0.46306000  1
  O  O90  1  0.61074000  0.51512000  0.61867000  1
  O  O91  1  0.62614000  0.11173000  0.90264000  1
  O  O92  1  0.65210000  0.60075000  0.43644000  1
  O  O93  1  0.70071000  0.69184000  0.25297000  1
  O  O94  1  0.70692000  0.98293000  0.49466000  1
  O  O95  1  0.74386000  0.34407000  0.88748000  1
  O  O96  1  0.75614000  0.84407000  0.38748000  1
  O  O97  1  0.79308000  0.48293000  0.99466000  1
  O  O98  1  0.79929000  0.19184000  0.75297000  1
  O  O99  1  0.84790000  0.10075000  0.93644000  1
  O  O100  1  0.87386000  0.61173000  0.40264000  1
  O  O101  1  0.88926000  0.01512000  0.11867000  1
  O  O102  1  0.89675000  0.84929000  0.96306000  1
  O  O103  1  0.91886000  0.84969000  0.19622000  1
  O  O104  1  0.94223000  0.18610000  0.63357000  1
  O  O105  1  0.97437000  0.68394000  0.02526000  1
  O  O106  1  0.99366000  0.63082000  0.21920000  1
  O  O107  1  0.99487000  0.46216000  0.13663000  1
