# generated using pymatgen
data_PrH3C9(NO2)3
_symmetry_space_group_name_H-M   'P 1'
_cell_length_a   6.08200000
_cell_length_b   10.50910000
_cell_length_c   13.62800000
_cell_angle_alpha   72.39800000
_cell_angle_beta   88.98000000
_cell_angle_gamma   89.04300000
_symmetry_Int_Tables_number   1
_chemical_formula_structural   PrH3C9(NO2)3
_chemical_formula_sum   'Pr2 H6 C18 N6 O12'
_cell_volume   830.07929850
_cell_formula_units_Z   2
loop_
 _symmetry_equiv_pos_site_id
 _symmetry_equiv_pos_as_xyz
  1  'x, y, z'
loop_
 _atom_site_type_symbol
 _atom_site_label
 _atom_site_symmetry_multiplicity
 _atom_site_fract_x
 _atom_site_fract_y
 _atom_site_fract_z
 _atom_site_occupancy
  Pr  Pr0  1  0.25128000  0.66056000  0.70878000  1
  Pr  Pr1  1  0.74872000  0.33944000  0.29122000  1
  H  H2  1  0.18950000  0.08630000  0.35030000  1
  H  H3  1  0.29630000  0.53160000  0.13150000  1
  H  H4  1  0.34940000  0.57230000  0.47320000  1
  H  H5  1  0.65060000  0.42770000  0.52680000  1
  H  H6  1  0.70370000  0.46840000  0.86850000  1
  H  H7  1  0.81050000  0.91370000  0.64970000  1
  C  C8  1  0.10900000  0.05260000  0.41100000  1
  C  C9  1  0.10960000  0.65780000  0.95060000  1
  C  C10  1  0.11720000  0.47110000  0.42540000  1
  C  C11  1  0.18670000  0.94000000  0.48610000  1
  C  C12  1  0.20490000  0.54350000  0.48520000  1
  C  C13  1  0.24690000  0.43230000  0.34380000  1
  C  C14  1  0.31830000  0.57320000  0.97730000  1
  C  C15  1  0.38240000  0.51730000  0.07870000  1
  C  C16  1  0.40000000  0.86820000  0.47300000  1
  C  C17  1  0.60000000  0.13180000  0.52700000  1
  C  C18  1  0.61760000  0.48270000  0.92130000  1
  C  C19  1  0.68170000  0.42680000  0.02270000  1
  C  C20  1  0.75310000  0.56770000  0.65620000  1
  C  C21  1  0.79510000  0.45650000  0.51480000  1
  C  C22  1  0.81330000  0.06000000  0.51390000  1
  C  C23  1  0.88280000  0.52890000  0.57460000  1
  C  C24  1  0.89040000  0.34220000  0.04940000  1
  C  C25  1  0.89100000  0.94740000  0.58900000  1
  N  N26  1  0.07820000  0.88700000  0.57550000  1
  N  N27  1  0.08960000  0.57220000  0.55820000  1
  N  N28  1  0.43400000  0.55690000  0.89840000  1
  N  N29  1  0.56600000  0.44310000  0.10160000  1
  N  N30  1  0.91040000  0.42780000  0.44180000  1
  N  N31  1  0.92180000  0.11300000  0.42450000  1
  O  O32  1  0.00190000  0.32080000  0.97920000  1
  O  O33  1  0.06330000  0.69820000  0.85680000  1
  O  O34  1  0.15420000  0.35860000  0.30080000  1
  O  O35  1  0.43990000  0.47610000  0.32460000  1
  O  O36  1  0.45340000  0.77120000  0.54720000  1
  O  O37  1  0.49720000  0.08870000  0.61020000  1
  O  O38  1  0.50280000  0.91130000  0.38980000  1
  O  O39  1  0.54660000  0.22880000  0.45280000  1
  O  O40  1  0.56010000  0.52390000  0.67540000  1
  O  O41  1  0.84580000  0.64140000  0.69920000  1
  O  O42  1  0.93670000  0.30180000  0.14320000  1
  O  O43  1  0.99810000  0.67920000  0.02080000  1
