# generated using pymatgen
data_ZnH8C12(IN2)2
_symmetry_space_group_name_H-M   'P 1'
_cell_length_a   13.75000000
_cell_length_b   27.64790000
_cell_length_c   45.71400000
_cell_angle_alpha   90.00000000
_cell_angle_beta   90.00000000
_cell_angle_gamma   90.00000000
_symmetry_Int_Tables_number   1
_chemical_formula_structural   ZnH8C12(IN2)2
_chemical_formula_sum   'Zn24 H192 C288 I48 N96'
_cell_volume   17378.57138325
_cell_formula_units_Z   24
loop_
 _symmetry_equiv_pos_site_id
 _symmetry_equiv_pos_as_xyz
  1  'x, y, z'
loop_
 _atom_site_type_symbol
 _atom_site_label
 _atom_site_symmetry_multiplicity
 _atom_site_fract_x
 _atom_site_fract_y
 _atom_site_fract_z
 _atom_site_occupancy
  Zn  Zn0  1  0.36153000  0.97232000  0.58869000  1
  Zn  Zn1  1  0.13847000  0.97232000  0.08869000  1
  Zn  Zn2  1  0.35570000  0.94925000  0.92467000  1
  Zn  Zn3  1  0.14430000  0.94925000  0.42467000  1
  Zn  Zn4  1  0.34635000  0.75453000  0.18655000  1
  Zn  Zn5  1  0.15365000  0.75453000  0.68655000  1
  Zn  Zn6  1  0.84635000  0.74547000  0.18655000  1
  Zn  Zn7  1  0.65365000  0.74547000  0.68655000  1
  Zn  Zn8  1  0.85570000  0.55075000  0.92467000  1
  Zn  Zn9  1  0.64430000  0.55075000  0.42467000  1
  Zn  Zn10  1  0.86153000  0.52768000  0.58869000  1
  Zn  Zn11  1  0.63847000  0.52768000  0.08869000  1
  Zn  Zn12  1  0.36153000  0.47232000  0.91131000  1
  Zn  Zn13  1  0.13847000  0.47232000  0.41131000  1
  Zn  Zn14  1  0.35570000  0.44925000  0.57533000  1
  Zn  Zn15  1  0.14430000  0.44925000  0.07533000  1
  Zn  Zn16  1  0.34635000  0.25453000  0.31345000  1
  Zn  Zn17  1  0.15365000  0.25453000  0.81345000  1
  Zn  Zn18  1  0.84635000  0.24547000  0.31345000  1
  Zn  Zn19  1  0.65365000  0.24547000  0.81345000  1
  Zn  Zn20  1  0.85570000  0.05075000  0.57533000  1
  Zn  Zn21  1  0.64430000  0.05075000  0.07533000  1
  Zn  Zn22  1  0.86153000  0.02768000  0.91131000  1
  Zn  Zn23  1  0.63847000  0.02768000  0.41131000  1
  H  H24  1  0.91540000  0.98820000  0.85170000  1
  H  H25  1  0.58460000  0.98820000  0.35170000  1
  H  H26  1  0.95110000  0.96670000  0.45330000  1
  H  H27  1  0.54890000  0.96670000  0.95330000  1
  H  H28  1  0.49950000  0.95570000  0.53780000  1
  H  H29  1  0.00050000  0.95570000  0.03780000  1
  H  H30  1  0.86600000  0.94390000  0.49470000  1
  H  H31  1  0.63400000  0.94390000  0.99470000  1
  H  H32  1  0.84270000  0.92810000  0.02950000  1
  H  H33  1  0.65730000  0.92810000  0.52950000  1
  H  H34  1  0.89500000  0.92400000  0.92830000  1
  H  H35  1  0.60500000  0.92400000  0.42830000  1
  H  H36  1  0.98200000  0.92150000  0.12140000  1
  H  H37  1  0.51800000  0.92150000  0.62140000  1
  H  H38  1  0.43480000  0.91760000  0.86690000  1
  H  H39  1  0.06520000  0.91760000  0.36690000  1
  H  H40  1  0.94250000  0.91480000  0.82820000  1
  H  H41  1  0.55750000  0.91480000  0.32820000  1
  H  H42  1  0.30930000  0.90720000  0.98450000  1
  H  H43  1  0.19070000  0.90720000  0.48450000  1
  H  H44  1  0.82530000  0.89190000  0.11480000  1
  H  H45  1  0.67470000  0.89190000  0.61480000  1
  H  H46  1  0.38900000  0.88310000  0.02680000  1
  H  H47  1  0.11100000  0.88310000  0.52680000  1
  H  H48  1  0.91690000  0.84860000  0.90730000  1
  H  H49  1  0.58310000  0.84860000  0.40730000  1
  H  H50  1  0.45730000  0.84850000  0.83910000  1
  H  H51  1  0.04270000  0.84850000  0.33910000  1
  H  H52  1  0.38930000  0.84700000  0.09400000  1
  H  H53  1  0.11070000  0.84700000  0.59400000  1
  H  H54  1  0.48730000  0.84660000  0.27030000  1
  H  H55  1  0.01270000  0.84660000  0.77030000  1
  H  H56  1  0.36260000  0.84000000  0.93600000  1
  H  H57  1  0.13740000  0.84000000  0.43600000  1
  H  H58  1  0.42760000  0.83460000  0.22320000  1
  H  H59  1  0.07240000  0.83460000  0.72320000  1
  H  H60  1  0.85580000  0.81450000  0.63400000  1
  H  H61  1  0.64420000  0.81450000  0.13400000  1
  H  H62  1  0.30850000  0.80970000  0.13260000  1
  H  H63  1  0.19150000  0.80970000  0.63260000  1
  H  H64  1  0.94850000  0.80650000  0.23150000  1
  H  H65  1  0.55150000  0.80650000  0.73150000  1
  H  H66  1  0.49450000  0.79910000  0.77910000  1
  H  H67  1  0.00550000  0.79910000  0.27910000  1
  H  H68  1  0.94390000  0.77610000  0.67070000  1
  H  H69  1  0.55610000  0.77610000  0.17070000  1
  H  H70  1  0.39000000  0.76890000  0.91090000  1
  H  H71  1  0.11000000  0.76890000  0.41090000  1
  H  H72  1  0.89000000  0.73110000  0.91090000  1
  H  H73  1  0.61000000  0.73110000  0.41090000  1
  H  H74  1  0.44390000  0.72390000  0.67070000  1
  H  H75  1  0.05610000  0.72390000  0.17070000  1
  H  H76  1  0.99450000  0.70090000  0.77910000  1
  H  H77  1  0.50550000  0.70090000  0.27910000  1
  H  H78  1  0.44850000  0.69350000  0.23150000  1
  H  H79  1  0.05150000  0.69350000  0.73150000  1
  H  H80  1  0.80850000  0.69030000  0.13260000  1
  H  H81  1  0.69150000  0.69030000  0.63260000  1
  H  H82  1  0.35580000  0.68550000  0.63400000  1
  H  H83  1  0.14420000  0.68550000  0.13400000  1
  H  H84  1  0.92760000  0.66540000  0.22320000  1
  H  H85  1  0.57240000  0.66540000  0.72320000  1
  H  H86  1  0.86260000  0.66000000  0.93600000  1
  H  H87  1  0.63740000  0.66000000  0.43600000  1
  H  H88  1  0.98730000  0.65340000  0.27030000  1
  H  H89  1  0.51270000  0.65340000  0.77030000  1
  H  H90  1  0.88930000  0.65300000  0.09400000  1
  H  H91  1  0.61070000  0.65300000  0.59400000  1
  H  H92  1  0.95730000  0.65150000  0.83910000  1
  H  H93  1  0.54270000  0.65150000  0.33910000  1
  H  H94  1  0.41690000  0.65140000  0.90730000  1
  H  H95  1  0.08310000  0.65140000  0.40730000  1
  H  H96  1  0.88900000  0.61690000  0.02680000  1
  H  H97  1  0.61100000  0.61690000  0.52680000  1
  H  H98  1  0.32530000  0.60810000  0.11480000  1
  H  H99  1  0.17470000  0.60810000  0.61480000  1
  H  H100  1  0.80930000  0.59280000  0.98450000  1
  H  H101  1  0.69070000  0.59280000  0.48450000  1
  H  H102  1  0.44250000  0.58520000  0.82820000  1
  H  H103  1  0.05750000  0.58520000  0.32820000  1
  H  H104  1  0.93480000  0.58240000  0.86690000  1
  H  H105  1  0.56520000  0.58240000  0.36690000  1
  H  H106  1  0.48200000  0.57850000  0.12140000  1
  H  H107  1  0.01800000  0.57850000  0.62140000  1
  H  H108  1  0.39500000  0.57600000  0.92830000  1
  H  H109  1  0.10500000  0.57600000  0.42830000  1
  H  H110  1  0.34270000  0.57190000  0.02950000  1
  H  H111  1  0.15730000  0.57190000  0.52950000  1
  H  H112  1  0.36600000  0.55610000  0.49470000  1
  H  H113  1  0.13400000  0.55610000  0.99470000  1
  H  H114  1  0.99950000  0.54430000  0.53780000  1
  H  H115  1  0.50050000  0.54430000  0.03780000  1
  H  H116  1  0.45110000  0.53330000  0.45330000  1
  H  H117  1  0.04890000  0.53330000  0.95330000  1
  H  H118  1  0.41540000  0.51180000  0.85170000  1
  H  H119  1  0.08460000  0.51180000  0.35170000  1
  H  H120  1  0.91540000  0.48820000  0.64830000  1
  H  H121  1  0.58460000  0.48820000  0.14830000  1
  H  H122  1  0.95110000  0.46670000  0.04670000  1
  H  H123  1  0.54890000  0.46670000  0.54670000  1
  H  H124  1  0.49950000  0.45570000  0.96220000  1
  H  H125  1  0.00050000  0.45570000  0.46220000  1
  H  H126  1  0.86600000  0.44390000  0.00530000  1
  H  H127  1  0.63400000  0.44390000  0.50530000  1
  H  H128  1  0.84270000  0.42810000  0.47050000  1
  H  H129  1  0.65730000  0.42810000  0.97050000  1
  H  H130  1  0.89500000  0.42400000  0.57170000  1
  H  H131  1  0.60500000  0.42400000  0.07170000  1
  H  H132  1  0.98200000  0.42150000  0.37860000  1
  H  H133  1  0.51800000  0.42150000  0.87860000  1
  H  H134  1  0.43480000  0.41760000  0.63310000  1
  H  H135  1  0.06520000  0.41760000  0.13310000  1
  H  H136  1  0.94250000  0.41480000  0.67180000  1
  H  H137  1  0.55750000  0.41480000  0.17180000  1
  H  H138  1  0.30930000  0.40720000  0.51550000  1
  H  H139  1  0.19070000  0.40720000  0.01550000  1
  H  H140  1  0.82530000  0.39190000  0.38520000  1
  H  H141  1  0.67470000  0.39190000  0.88520000  1
  H  H142  1  0.38900000  0.38310000  0.47320000  1
  H  H143  1  0.11100000  0.38310000  0.97320000  1
  H  H144  1  0.91690000  0.34860000  0.59270000  1
  H  H145  1  0.58310000  0.34860000  0.09270000  1
  H  H146  1  0.45730000  0.34850000  0.66090000  1
  H  H147  1  0.04270000  0.34850000  0.16090000  1
  H  H148  1  0.38930000  0.34700000  0.40600000  1
  H  H149  1  0.11070000  0.34700000  0.90600000  1
  H  H150  1  0.48730000  0.34660000  0.22970000  1
  H  H151  1  0.01270000  0.34660000  0.72970000  1
  H  H152  1  0.36260000  0.34000000  0.56400000  1
  H  H153  1  0.13740000  0.34000000  0.06400000  1
  H  H154  1  0.42760000  0.33460000  0.27680000  1
  H  H155  1  0.07240000  0.33460000  0.77680000  1
  H  H156  1  0.85580000  0.31450000  0.86600000  1
  H  H157  1  0.64420000  0.31450000  0.36600000  1
  H  H158  1  0.30850000  0.30970000  0.36740000  1
  H  H159  1  0.19150000  0.30970000  0.86740000  1
  H  H160  1  0.94850000  0.30650000  0.26850000  1
  H  H161  1  0.55150000  0.30650000  0.76850000  1
  H  H162  1  0.49450000  0.29910000  0.72090000  1
  H  H163  1  0.00550000  0.29910000  0.22090000  1
  H  H164  1  0.94390000  0.27610000  0.82930000  1
  H  H165  1  0.55610000  0.27610000  0.32930000  1
  H  H166  1  0.39000000  0.26890000  0.58910000  1
  H  H167  1  0.11000000  0.26890000  0.08910000  1
  H  H168  1  0.89000000  0.23110000  0.58910000  1
  H  H169  1  0.61000000  0.23110000  0.08910000  1
  H  H170  1  0.44390000  0.22390000  0.82930000  1
  H  H171  1  0.05610000  0.22390000  0.32930000  1
  H  H172  1  0.99450000  0.20090000  0.72090000  1
  H  H173  1  0.50550000  0.20090000  0.22090000  1
  H  H174  1  0.44850000  0.19350000  0.26850000  1
  H  H175  1  0.05150000  0.19350000  0.76850000  1
  H  H176  1  0.80850000  0.19030000  0.36740000  1
  H  H177  1  0.69150000  0.19030000  0.86740000  1
  H  H178  1  0.35580000  0.18550000  0.86600000  1
  H  H179  1  0.14420000  0.18550000  0.36600000  1
  H  H180  1  0.92760000  0.16540000  0.27680000  1
  H  H181  1  0.57240000  0.16540000  0.77680000  1
  H  H182  1  0.86260000  0.16000000  0.56400000  1
  H  H183  1  0.63740000  0.16000000  0.06400000  1
  H  H184  1  0.98730000  0.15340000  0.22970000  1
  H  H185  1  0.51270000  0.15340000  0.72970000  1
  H  H186  1  0.88930000  0.15300000  0.40600000  1
  H  H187  1  0.61070000  0.15300000  0.90600000  1
  H  H188  1  0.95730000  0.15150000  0.66090000  1
  H  H189  1  0.54270000  0.15150000  0.16090000  1
  H  H190  1  0.41690000  0.15140000  0.59270000  1
  H  H191  1  0.08310000  0.15140000  0.09270000  1
  H  H192  1  0.88900000  0.11690000  0.47320000  1
  H  H193  1  0.61100000  0.11690000  0.97320000  1
  H  H194  1  0.32530000  0.10810000  0.38520000  1
  H  H195  1  0.17470000  0.10810000  0.88520000  1
  H  H196  1  0.80930000  0.09280000  0.51550000  1
  H  H197  1  0.69070000  0.09280000  0.01550000  1
  H  H198  1  0.44250000  0.08520000  0.67180000  1
  H  H199  1  0.05750000  0.08520000  0.17180000  1
  H  H200  1  0.93480000  0.08240000  0.63310000  1
  H  H201  1  0.56520000  0.08240000  0.13310000  1
  H  H202  1  0.48200000  0.07850000  0.37860000  1
  H  H203  1  0.01800000  0.07850000  0.87860000  1
  H  H204  1  0.39500000  0.07600000  0.57170000  1
  H  H205  1  0.10500000  0.07600000  0.07170000  1
  H  H206  1  0.34270000  0.07190000  0.47050000  1
  H  H207  1  0.15730000  0.07190000  0.97050000  1
  H  H208  1  0.36600000  0.05610000  0.00530000  1
  H  H209  1  0.13400000  0.05610000  0.50530000  1
  H  H210  1  0.99950000  0.04430000  0.96220000  1
  H  H211  1  0.50050000  0.04430000  0.46220000  1
  H  H212  1  0.45110000  0.03330000  0.04670000  1
  H  H213  1  0.04890000  0.03330000  0.54670000  1
  H  H214  1  0.41540000  0.01180000  0.64830000  1
  H  H215  1  0.08460000  0.01180000  0.14830000  1
  C  C216  1  0.91590000  0.95930000  0.86302000  1
  C  C217  1  0.58410000  0.95930000  0.36302000  1
  C  C218  1  0.98360000  0.94900000  0.46817000  1
  C  C219  1  0.51640000  0.94900000  0.96817000  1
  C  C220  1  0.96430000  0.94270000  0.05365000  1
  C  C221  1  0.53570000  0.94270000  0.55365000  1
  C  C222  1  0.93260000  0.93530000  0.49282000  1
  C  C223  1  0.56740000  0.93530000  0.99282000  1
  C  C224  1  0.87040000  0.92610000  0.04853000  1
  C  C225  1  0.62960000  0.92610000  0.54853000  1
  C  C226  1  0.95370000  0.92260000  0.10250000  1
  C  C227  1  0.54630000  0.92260000  0.60250000  1
  C  C228  1  0.90330000  0.92190000  0.90772000  1
  C  C229  1  0.59670000  0.92190000  0.40772000  1
  C  C230  1  0.93140000  0.91571000  0.84875000  1
  C  C231  1  0.56860000  0.91571000  0.34875000  1
  C  C232  1  0.37660000  0.91420000  0.98654000  1
  C  C233  1  0.12340000  0.91420000  0.48654000  1
  C  C234  1  0.97750000  0.90939000  0.51461000  1
  C  C235  1  0.52250000  0.90939000  0.01461000  1
  C  C236  1  0.81810000  0.90691000  0.07146000  1
  C  C237  1  0.68190000  0.90691000  0.57146000  1
  C  C238  1  0.86010000  0.90510000  0.09868000  1
  C  C239  1  0.63990000  0.90510000  0.59868000  1
  C  C240  1  0.42340000  0.89950000  0.01176000  1
  C  C241  1  0.07660000  0.89950000  0.51176000  1
  C  C242  1  0.92300000  0.89342000  0.54101000  1
  C  C243  1  0.57700000  0.89342000  0.04101000  1
  C  C244  1  0.78480000  0.89163000  0.56740000  1
  C  C245  1  0.71520000  0.89163000  0.06740000  1
  C  C246  1  0.42390000  0.88689000  0.87562000  1
  C  C247  1  0.07610000  0.88689000  0.37562000  1
  C  C248  1  0.91680000  0.87683000  0.89538000  1
  C  C249  1  0.58320000  0.87683000  0.39538000  1
  C  C250  1  0.93030000  0.87322000  0.86524000  1
  C  C251  1  0.56970000  0.87322000  0.36524000  1
  C  C252  1  0.92100000  0.85764000  0.58524000  1
  C  C253  1  0.57900000  0.85764000  0.08524000  1
  C  C254  1  0.43880000  0.84595000  0.85902000  1
  C  C255  1  0.06120000  0.84595000  0.35902000  1
  C  C256  1  0.38260000  0.84159000  0.91613000  1
  C  C257  1  0.11740000  0.84159000  0.41613000  1
  C  C258  1  0.97340000  0.83351000  0.60941000  1
  C  C259  1  0.52660000  0.83351000  0.10941000  1
  C  C260  1  0.42520000  0.83260000  0.10948000  1
  C  C261  1  0.07480000  0.83260000  0.60948000  1
  C  C262  1  0.94190000  0.82544000  0.85126000  1
  C  C263  1  0.55810000  0.82544000  0.35126000  1
  C  C264  1  0.47790000  0.81474000  0.26300000  1
  C  C265  1  0.02210000  0.81474000  0.76300000  1
  C  C266  1  0.92470000  0.81320000  0.63297000  1
  C  C267  1  0.57530000  0.81320000  0.13297000  1
  C  C268  1  0.37760000  0.81030000  0.13257000  1
  C  C269  1  0.12240000  0.81030000  0.63257000  1
  C  C270  1  0.44270000  0.80718000  0.23486000  1
  C  C271  1  0.05730000  0.80718000  0.73486000  1
  C  C272  1  0.42620000  0.80052000  0.87201000  1
  C  C273  1  0.07380000  0.80052000  0.37201000  1
  C  C274  1  0.39820000  0.79906000  0.90129000  1
  C  C275  1  0.10180000  0.79906000  0.40129000  1
  C  C276  1  0.97780000  0.79090000  0.65495000  1
  C  C277  1  0.52220000  0.79090000  0.15495000  1
  C  C278  1  0.97280000  0.77964000  0.81148000  1
  C  C279  1  0.52720000  0.77964000  0.31148000  1
  C  C280  1  0.95450000  0.77518000  0.23983000  1
  C  C281  1  0.54550000  0.77518000  0.73983000  1
  C  C282  1  0.49900000  0.77458000  0.28023000  1
  C  C283  1  0.00100000  0.77458000  0.78023000  1
  C  C284  1  0.98900000  0.77110000  0.26817000  1
  C  C285  1  0.51100000  0.77110000  0.76817000  1
  C  C286  1  0.43970000  0.75625000  0.85472000  1
  C  C287  1  0.06030000  0.75625000  0.35472000  1
  C  C288  1  0.93970000  0.74375000  0.85472000  1
  C  C289  1  0.56030000  0.74375000  0.35472000  1
  C  C290  1  0.48900000  0.72890000  0.26817000  1
  C  C291  1  0.01100000  0.72890000  0.76817000  1
  C  C292  1  0.99900000  0.72542000  0.28023000  1
  C  C293  1  0.50100000  0.72542000  0.78023000  1
  C  C294  1  0.45450000  0.72482000  0.23983000  1
  C  C295  1  0.04550000  0.72482000  0.73983000  1
  C  C296  1  0.47280000  0.72036000  0.81148000  1
  C  C297  1  0.02720000  0.72036000  0.31148000  1
  C  C298  1  0.47780000  0.70910000  0.65495000  1
  C  C299  1  0.02220000  0.70910000  0.15495000  1
  C  C300  1  0.89820000  0.70094000  0.90129000  1
  C  C301  1  0.60180000  0.70094000  0.40129000  1
  C  C302  1  0.92620000  0.69948000  0.87201000  1
  C  C303  1  0.57380000  0.69948000  0.37201000  1
  C  C304  1  0.94270000  0.69282000  0.23486000  1
  C  C305  1  0.55730000  0.69282000  0.73486000  1
  C  C306  1  0.87760000  0.68970000  0.13257000  1
  C  C307  1  0.62240000  0.68970000  0.63257000  1
  C  C308  1  0.42470000  0.68680000  0.63297000  1
  C  C309  1  0.07530000  0.68680000  0.13297000  1
  C  C310  1  0.97790000  0.68526000  0.26300000  1
  C  C311  1  0.52210000  0.68526000  0.76300000  1
  C  C312  1  0.44190000  0.67456000  0.85126000  1
  C  C313  1  0.05810000  0.67456000  0.35126000  1
  C  C314  1  0.92520000  0.66740000  0.10948000  1
  C  C315  1  0.57480000  0.66740000  0.60948000  1
  C  C316  1  0.47340000  0.66649000  0.60941000  1
  C  C317  1  0.02660000  0.66649000  0.10941000  1
  C  C318  1  0.88260000  0.65841000  0.91613000  1
  C  C319  1  0.61740000  0.65841000  0.41613000  1
  C  C320  1  0.93880000  0.65405000  0.85902000  1
  C  C321  1  0.56120000  0.65405000  0.35902000  1
  C  C322  1  0.42100000  0.64236000  0.58524000  1
  C  C323  1  0.07900000  0.64236000  0.08524000  1
  C  C324  1  0.43030000  0.62678000  0.86524000  1
  C  C325  1  0.06970000  0.62678000  0.36524000  1
  C  C326  1  0.41680000  0.62317000  0.89538000  1
  C  C327  1  0.08320000  0.62317000  0.39538000  1
  C  C328  1  0.92390000  0.61311000  0.87562000  1
  C  C329  1  0.57610000  0.61311000  0.37562000  1
  C  C330  1  0.28480000  0.60837000  0.56740000  1
  C  C331  1  0.21520000  0.60837000  0.06740000  1
  C  C332  1  0.42300000  0.60658000  0.54101000  1
  C  C333  1  0.07700000  0.60658000  0.04101000  1
  C  C334  1  0.92340000  0.60050000  0.01176000  1
  C  C335  1  0.57660000  0.60050000  0.51176000  1
  C  C336  1  0.36010000  0.59490000  0.09868000  1
  C  C337  1  0.13990000  0.59490000  0.59868000  1
  C  C338  1  0.31810000  0.59309000  0.07146000  1
  C  C339  1  0.18190000  0.59309000  0.57146000  1
  C  C340  1  0.47750000  0.59061000  0.51461000  1
  C  C341  1  0.02250000  0.59061000  0.01461000  1
  C  C342  1  0.87660000  0.58580000  0.98654000  1
  C  C343  1  0.62340000  0.58580000  0.48654000  1
  C  C344  1  0.43140000  0.58429000  0.84875000  1
  C  C345  1  0.06860000  0.58429000  0.34875000  1
  C  C346  1  0.40330000  0.57810000  0.90772000  1
  C  C347  1  0.09670000  0.57810000  0.40772000  1
  C  C348  1  0.45370000  0.57740000  0.10250000  1
  C  C349  1  0.04630000  0.57740000  0.60250000  1
  C  C350  1  0.37040000  0.57390000  0.04853000  1
  C  C351  1  0.12960000  0.57390000  0.54853000  1
  C  C352  1  0.43260000  0.56470000  0.49282000  1
  C  C353  1  0.06740000  0.56470000  0.99282000  1
  C  C354  1  0.46430000  0.55730000  0.05365000  1
  C  C355  1  0.03570000  0.55730000  0.55365000  1
  C  C356  1  0.48360000  0.55100000  0.46817000  1
  C  C357  1  0.01640000  0.55100000  0.96817000  1
  C  C358  1  0.41590000  0.54070000  0.86302000  1
  C  C359  1  0.08410000  0.54070000  0.36302000  1
  C  C360  1  0.91590000  0.45930000  0.63698000  1
  C  C361  1  0.58410000  0.45930000  0.13698000  1
  C  C362  1  0.98360000  0.44900000  0.03183000  1
  C  C363  1  0.51640000  0.44900000  0.53183000  1
  C  C364  1  0.96430000  0.44270000  0.44635000  1
  C  C365  1  0.53570000  0.44270000  0.94635000  1
  C  C366  1  0.93260000  0.43530000  0.00718000  1
  C  C367  1  0.56740000  0.43530000  0.50718000  1
  C  C368  1  0.87040000  0.42610000  0.45147000  1
  C  C369  1  0.62960000  0.42610000  0.95147000  1
  C  C370  1  0.95370000  0.42260000  0.39750000  1
  C  C371  1  0.54630000  0.42260000  0.89750000  1
  C  C372  1  0.90330000  0.42190000  0.59228000  1
  C  C373  1  0.59670000  0.42190000  0.09228000  1
  C  C374  1  0.93140000  0.41571000  0.65125000  1
  C  C375  1  0.56860000  0.41571000  0.15125000  1
  C  C376  1  0.37660000  0.41420000  0.51346000  1
  C  C377  1  0.12340000  0.41420000  0.01346000  1
  C  C378  1  0.97750000  0.40939000  0.98539000  1
  C  C379  1  0.52250000  0.40939000  0.48539000  1
  C  C380  1  0.81810000  0.40691000  0.42854000  1
  C  C381  1  0.68190000  0.40691000  0.92854000  1
  C  C382  1  0.86010000  0.40510000  0.40132000  1
  C  C383  1  0.63990000  0.40510000  0.90132000  1
  C  C384  1  0.42340000  0.39950000  0.48824000  1
  C  C385  1  0.07660000  0.39950000  0.98824000  1
  C  C386  1  0.92300000  0.39342000  0.95899000  1
  C  C387  1  0.57700000  0.39342000  0.45899000  1
  C  C388  1  0.78480000  0.39163000  0.93260000  1
  C  C389  1  0.71520000  0.39163000  0.43260000  1
  C  C390  1  0.42390000  0.38689000  0.62438000  1
  C  C391  1  0.07610000  0.38689000  0.12438000  1
  C  C392  1  0.91680000  0.37683000  0.60462000  1
  C  C393  1  0.58320000  0.37683000  0.10462000  1
  C  C394  1  0.93030000  0.37322000  0.63476000  1
  C  C395  1  0.56970000  0.37322000  0.13476000  1
  C  C396  1  0.92100000  0.35764000  0.91476000  1
  C  C397  1  0.57900000  0.35764000  0.41476000  1
  C  C398  1  0.43880000  0.34595000  0.64098000  1
  C  C399  1  0.06120000  0.34595000  0.14098000  1
  C  C400  1  0.38260000  0.34159000  0.58387000  1
  C  C401  1  0.11740000  0.34159000  0.08387000  1
  C  C402  1  0.97340000  0.33351000  0.89059000  1
  C  C403  1  0.52660000  0.33351000  0.39059000  1
  C  C404  1  0.42520000  0.33260000  0.39052000  1
  C  C405  1  0.07480000  0.33260000  0.89052000  1
  C  C406  1  0.94190000  0.32544000  0.64874000  1
  C  C407  1  0.55810000  0.32544000  0.14874000  1
  C  C408  1  0.47790000  0.31474000  0.23700000  1
  C  C409  1  0.02210000  0.31474000  0.73700000  1
  C  C410  1  0.92470000  0.31320000  0.86703000  1
  C  C411  1  0.57530000  0.31320000  0.36703000  1
  C  C412  1  0.37760000  0.31030000  0.36743000  1
  C  C413  1  0.12240000  0.31030000  0.86743000  1
  C  C414  1  0.44270000  0.30718000  0.26514000  1
  C  C415  1  0.05730000  0.30718000  0.76514000  1
  C  C416  1  0.42620000  0.30052000  0.62799000  1
  C  C417  1  0.07380000  0.30052000  0.12799000  1
  C  C418  1  0.39820000  0.29906000  0.59871000  1
  C  C419  1  0.10180000  0.29906000  0.09871000  1
  C  C420  1  0.97780000  0.29090000  0.84505000  1
  C  C421  1  0.52220000  0.29090000  0.34505000  1
  C  C422  1  0.97280000  0.27964000  0.68852000  1
  C  C423  1  0.52720000  0.27964000  0.18852000  1
  C  C424  1  0.95450000  0.27518000  0.26017000  1
  C  C425  1  0.54550000  0.27518000  0.76017000  1
  C  C426  1  0.49900000  0.27458000  0.21977000  1
  C  C427  1  0.00100000  0.27458000  0.71977000  1
  C  C428  1  0.98900000  0.27110000  0.23183000  1
  C  C429  1  0.51100000  0.27110000  0.73183000  1
  C  C430  1  0.43970000  0.25625000  0.64528000  1
  C  C431  1  0.06030000  0.25625000  0.14528000  1
  C  C432  1  0.93970000  0.24375000  0.64528000  1
  C  C433  1  0.56030000  0.24375000  0.14528000  1
  C  C434  1  0.48900000  0.22890000  0.23183000  1
  C  C435  1  0.01100000  0.22890000  0.73183000  1
  C  C436  1  0.99900000  0.22542000  0.21977000  1
  C  C437  1  0.50100000  0.22542000  0.71977000  1
  C  C438  1  0.45450000  0.22482000  0.26017000  1
  C  C439  1  0.04550000  0.22482000  0.76017000  1
  C  C440  1  0.47280000  0.22036000  0.68852000  1
  C  C441  1  0.02720000  0.22036000  0.18852000  1
  C  C442  1  0.47780000  0.20910000  0.84505000  1
  C  C443  1  0.02220000  0.20910000  0.34505000  1
  C  C444  1  0.89820000  0.20094000  0.59871000  1
  C  C445  1  0.60180000  0.20094000  0.09871000  1
  C  C446  1  0.92620000  0.19948000  0.62799000  1
  C  C447  1  0.57380000  0.19948000  0.12799000  1
  C  C448  1  0.94270000  0.19282000  0.26514000  1
  C  C449  1  0.55730000  0.19282000  0.76514000  1
  C  C450  1  0.87760000  0.18970000  0.36743000  1
  C  C451  1  0.62240000  0.18970000  0.86743000  1
  C  C452  1  0.42470000  0.18680000  0.86703000  1
  C  C453  1  0.07530000  0.18680000  0.36703000  1
  C  C454  1  0.97790000  0.18526000  0.23700000  1
  C  C455  1  0.52210000  0.18526000  0.73700000  1
  C  C456  1  0.44190000  0.17456000  0.64874000  1
  C  C457  1  0.05810000  0.17456000  0.14874000  1
  C  C458  1  0.92520000  0.16740000  0.39052000  1
  C  C459  1  0.57480000  0.16740000  0.89052000  1
  C  C460  1  0.47340000  0.16649000  0.89059000  1
  C  C461  1  0.02660000  0.16649000  0.39059000  1
  C  C462  1  0.88260000  0.15841000  0.58387000  1
  C  C463  1  0.61740000  0.15841000  0.08387000  1
  C  C464  1  0.93880000  0.15405000  0.64098000  1
  C  C465  1  0.56120000  0.15405000  0.14098000  1
  C  C466  1  0.42100000  0.14236000  0.91476000  1
  C  C467  1  0.07900000  0.14236000  0.41476000  1
  C  C468  1  0.43030000  0.12678000  0.63476000  1
  C  C469  1  0.06970000  0.12678000  0.13476000  1
  C  C470  1  0.41680000  0.12317000  0.60462000  1
  C  C471  1  0.08320000  0.12317000  0.10462000  1
  C  C472  1  0.92390000  0.11311000  0.62438000  1
  C  C473  1  0.57610000  0.11311000  0.12438000  1
  C  C474  1  0.28480000  0.10837000  0.93260000  1
  C  C475  1  0.21520000  0.10837000  0.43260000  1
  C  C476  1  0.42300000  0.10658000  0.95899000  1
  C  C477  1  0.07700000  0.10658000  0.45899000  1
  C  C478  1  0.92340000  0.10050000  0.48824000  1
  C  C479  1  0.57660000  0.10050000  0.98824000  1
  C  C480  1  0.36010000  0.09490000  0.40132000  1
  C  C481  1  0.13990000  0.09490000  0.90132000  1
  C  C482  1  0.31810000  0.09309000  0.42854000  1
  C  C483  1  0.18190000  0.09309000  0.92854000  1
  C  C484  1  0.47750000  0.09061000  0.98539000  1
  C  C485  1  0.02250000  0.09061000  0.48539000  1
  C  C486  1  0.87660000  0.08580000  0.51346000  1
  C  C487  1  0.62340000  0.08580000  0.01346000  1
  C  C488  1  0.43140000  0.08429000  0.65125000  1
  C  C489  1  0.06860000  0.08429000  0.15125000  1
  C  C490  1  0.40330000  0.07810000  0.59228000  1
  C  C491  1  0.09670000  0.07810000  0.09228000  1
  C  C492  1  0.45370000  0.07740000  0.39750000  1
  C  C493  1  0.04630000  0.07740000  0.89750000  1
  C  C494  1  0.37040000  0.07390000  0.45147000  1
  C  C495  1  0.12960000  0.07390000  0.95147000  1
  C  C496  1  0.43260000  0.06470000  0.00718000  1
  C  C497  1  0.06740000  0.06470000  0.50718000  1
  C  C498  1  0.46430000  0.05730000  0.44635000  1
  C  C499  1  0.03570000  0.05730000  0.94635000  1
  C  C500  1  0.48360000  0.05100000  0.03183000  1
  C  C501  1  0.01640000  0.05100000  0.53183000  1
  C  C502  1  0.41590000  0.04070000  0.63698000  1
  C  C503  1  0.08410000  0.04070000  0.13698000  1
  I  I504  1  0.28313000  0.99105000  0.53916000  1
  I  I505  1  0.21687000  0.99105000  0.03916000  1
  I  I506  1  0.94744000  0.98393000  0.60185000  1
  I  I507  1  0.55256000  0.98393000  0.10185000  1
  I  I508  1  0.32758000  0.94366000  0.43194000  1
  I  I509  1  0.17242000  0.94366000  0.93194000  1
  I  I510  1  0.27464000  0.92551000  0.62858000  1
  I  I511  1  0.22536000  0.92551000  0.12858000  1
  I  I512  1  0.83316000  0.83578000  0.17566000  1
  I  I513  1  0.66684000  0.83578000  0.67566000  1
  I  I514  1  0.30856000  0.80472000  0.69417000  1
  I  I515  1  0.19144000  0.80472000  0.19417000  1
  I  I516  1  0.80856000  0.69528000  0.69417000  1
  I  I517  1  0.69144000  0.69528000  0.19417000  1
  I  I518  1  0.33316000  0.66422000  0.17566000  1
  I  I519  1  0.16684000  0.66422000  0.67566000  1
  I  I520  1  0.77464000  0.57449000  0.62858000  1
  I  I521  1  0.72536000  0.57449000  0.12858000  1
  I  I522  1  0.82758000  0.55634000  0.43194000  1
  I  I523  1  0.67242000  0.55634000  0.93194000  1
  I  I524  1  0.44744000  0.51607000  0.60185000  1
  I  I525  1  0.05256000  0.51607000  0.10185000  1
  I  I526  1  0.78313000  0.50895000  0.53916000  1
  I  I527  1  0.71687000  0.50895000  0.03916000  1
  I  I528  1  0.28313000  0.49105000  0.96084000  1
  I  I529  1  0.21687000  0.49105000  0.46084000  1
  I  I530  1  0.94744000  0.48393000  0.89815000  1
  I  I531  1  0.55256000  0.48393000  0.39815000  1
  I  I532  1  0.32758000  0.44366000  0.06806000  1
  I  I533  1  0.17242000  0.44366000  0.56806000  1
  I  I534  1  0.27464000  0.42551000  0.87142000  1
  I  I535  1  0.22536000  0.42551000  0.37142000  1
  I  I536  1  0.83316000  0.33578000  0.32434000  1
  I  I537  1  0.66684000  0.33578000  0.82434000  1
  I  I538  1  0.30856000  0.30472000  0.80583000  1
  I  I539  1  0.19144000  0.30472000  0.30583000  1
  I  I540  1  0.80856000  0.19528000  0.80583000  1
  I  I541  1  0.69144000  0.19528000  0.30583000  1
  I  I542  1  0.33316000  0.16422000  0.32434000  1
  I  I543  1  0.16684000  0.16422000  0.82434000  1
  I  I544  1  0.77464000  0.07449000  0.87142000  1
  I  I545  1  0.72536000  0.07449000  0.37142000  1
  I  I546  1  0.82758000  0.05634000  0.06806000  1
  I  I547  1  0.67242000  0.05634000  0.56806000  1
  I  I548  1  0.44744000  0.01607000  0.89815000  1
  I  I549  1  0.05256000  0.01607000  0.39815000  1
  I  I550  1  0.78313000  0.00895000  0.96084000  1
  I  I551  1  0.71687000  0.00895000  0.46084000  1
  N  N552  1  0.90140000  0.96275000  0.89203000  1
  N  N553  1  0.59860000  0.96275000  0.39203000  1
  N  N554  1  0.49450000  0.94098000  0.58027000  1
  N  N555  1  0.00550000  0.94098000  0.08027000  1
  N  N556  1  0.42220000  0.93800000  0.96472000  1
  N  N557  1  0.07780000  0.93800000  0.46472000  1
  N  N558  1  0.82930000  0.90505000  0.54262000  1
  N  N559  1  0.67070000  0.90505000  0.04262000  1
  N  N560  1  0.39460000  0.88535000  0.90373000  1
  N  N561  1  0.10540000  0.88535000  0.40373000  1
  N  N562  1  0.97290000  0.86947000  0.56156000  1
  N  N563  1  0.52710000  0.86947000  0.06156000  1
  N  N564  1  0.82710000  0.86676000  0.58917000  1
  N  N565  1  0.67290000  0.86676000  0.08917000  1
  N  N566  1  0.96430000  0.82414000  0.82260000  1
  N  N567  1  0.53570000  0.82414000  0.32260000  1
  N  N568  1  0.42500000  0.78955000  0.15484000  1
  N  N569  1  0.07500000  0.78955000  0.65484000  1
  N  N570  1  0.92890000  0.78647000  0.86810000  1
  N  N571  1  0.57110000  0.78647000  0.36810000  1
  N  N572  1  0.42900000  0.76309000  0.22354000  1
  N  N573  1  0.07100000  0.76309000  0.72354000  1
  N  N574  1  0.46140000  0.76164000  0.82633000  1
  N  N575  1  0.03860000  0.76164000  0.32633000  1
  N  N576  1  0.96140000  0.73836000  0.82633000  1
  N  N577  1  0.53860000  0.73836000  0.32633000  1
  N  N578  1  0.92900000  0.73691000  0.22354000  1
  N  N579  1  0.57100000  0.73691000  0.72354000  1
  N  N580  1  0.42890000  0.71353000  0.86810000  1
  N  N581  1  0.07110000  0.71353000  0.36810000  1
  N  N582  1  0.92500000  0.71045000  0.15484000  1
  N  N583  1  0.57500000  0.71045000  0.65484000  1
  N  N584  1  0.46430000  0.67586000  0.82260000  1
  N  N585  1  0.03570000  0.67586000  0.32260000  1
  N  N586  1  0.32710000  0.63324000  0.58917000  1
  N  N587  1  0.17290000  0.63324000  0.08917000  1
  N  N588  1  0.47290000  0.63053000  0.56156000  1
  N  N589  1  0.02710000  0.63053000  0.06156000  1
  N  N590  1  0.89460000  0.61465000  0.90373000  1
  N  N591  1  0.60540000  0.61465000  0.40373000  1
  N  N592  1  0.32930000  0.59495000  0.54262000  1
  N  N593  1  0.17070000  0.59495000  0.04262000  1
  N  N594  1  0.92220000  0.56200000  0.96472000  1
  N  N595  1  0.57780000  0.56200000  0.46472000  1
  N  N596  1  0.99450000  0.55902000  0.58027000  1
  N  N597  1  0.50550000  0.55902000  0.08027000  1
  N  N598  1  0.40140000  0.53725000  0.89203000  1
  N  N599  1  0.09860000  0.53725000  0.39203000  1
  N  N600  1  0.90140000  0.46275000  0.60797000  1
  N  N601  1  0.59860000  0.46275000  0.10797000  1
  N  N602  1  0.49450000  0.44098000  0.91973000  1
  N  N603  1  0.00550000  0.44098000  0.41973000  1
  N  N604  1  0.42220000  0.43800000  0.53528000  1
  N  N605  1  0.07780000  0.43800000  0.03528000  1
  N  N606  1  0.82930000  0.40505000  0.95738000  1
  N  N607  1  0.67070000  0.40505000  0.45738000  1
  N  N608  1  0.39460000  0.38535000  0.59627000  1
  N  N609  1  0.10540000  0.38535000  0.09627000  1
  N  N610  1  0.97290000  0.36947000  0.93844000  1
  N  N611  1  0.52710000  0.36947000  0.43844000  1
  N  N612  1  0.82710000  0.36676000  0.91083000  1
  N  N613  1  0.67290000  0.36676000  0.41083000  1
  N  N614  1  0.96430000  0.32414000  0.67740000  1
  N  N615  1  0.53570000  0.32414000  0.17740000  1
  N  N616  1  0.42500000  0.28955000  0.34516000  1
  N  N617  1  0.07500000  0.28955000  0.84516000  1
  N  N618  1  0.92890000  0.28647000  0.63190000  1
  N  N619  1  0.57110000  0.28647000  0.13190000  1
  N  N620  1  0.42900000  0.26309000  0.27646000  1
  N  N621  1  0.07100000  0.26309000  0.77646000  1
  N  N622  1  0.46140000  0.26164000  0.67367000  1
  N  N623  1  0.03860000  0.26164000  0.17367000  1
  N  N624  1  0.96140000  0.23836000  0.67367000  1
  N  N625  1  0.53860000  0.23836000  0.17367000  1
  N  N626  1  0.92900000  0.23691000  0.27646000  1
  N  N627  1  0.57100000  0.23691000  0.77646000  1
  N  N628  1  0.42890000  0.21353000  0.63190000  1
  N  N629  1  0.07110000  0.21353000  0.13190000  1
  N  N630  1  0.92500000  0.21045000  0.34516000  1
  N  N631  1  0.57500000  0.21045000  0.84516000  1
  N  N632  1  0.46430000  0.17586000  0.67740000  1
  N  N633  1  0.03570000  0.17586000  0.17740000  1
  N  N634  1  0.32710000  0.13324000  0.91083000  1
  N  N635  1  0.17290000  0.13324000  0.41083000  1
  N  N636  1  0.47290000  0.13053000  0.93844000  1
  N  N637  1  0.02710000  0.13053000  0.43844000  1
  N  N638  1  0.89460000  0.11465000  0.59627000  1
  N  N639  1  0.60540000  0.11465000  0.09627000  1
  N  N640  1  0.32930000  0.09495000  0.95738000  1
  N  N641  1  0.17070000  0.09495000  0.45738000  1
  N  N642  1  0.92220000  0.06200000  0.53528000  1
  N  N643  1  0.57780000  0.06200000  0.03528000  1
  N  N644  1  0.99450000  0.05902000  0.91973000  1
  N  N645  1  0.50550000  0.05902000  0.41973000  1
  N  N646  1  0.40140000  0.03725000  0.60797000  1
  N  N647  1  0.09860000  0.03725000  0.10797000  1
