# generated using pymatgen
data_Cu3H16(C12N13)2
_symmetry_space_group_name_H-M   'P 1'
_cell_length_a   13.09000000
_cell_length_b   14.74400000
_cell_length_c   15.57500000
_cell_angle_alpha   90.00000000
_cell_angle_beta   91.64100000
_cell_angle_gamma   90.00000000
_symmetry_Int_Tables_number   1
_chemical_formula_structural   Cu3H16(C12N13)2
_chemical_formula_sum   'Cu6 H32 C48 N52'
_cell_volume   3004.72599458
_cell_formula_units_Z   2
loop_
 _symmetry_equiv_pos_site_id
 _symmetry_equiv_pos_as_xyz
  1  'x, y, z'
loop_
 _atom_site_type_symbol
 _atom_site_label
 _atom_site_symmetry_multiplicity
 _atom_site_fract_x
 _atom_site_fract_y
 _atom_site_fract_z
 _atom_site_occupancy
  Cu  Cu0  1  0.00000000  0.00000000  0.00000000  1
  Cu  Cu1  1  0.02147000  0.79555000  0.89894000  1
  Cu  Cu2  1  0.47853000  0.29555000  0.60106000  1
  Cu  Cu3  1  0.50000000  0.50000000  0.50000000  1
  Cu  Cu4  1  0.52147000  0.70445000  0.39894000  1
  Cu  Cu5  1  0.97853000  0.20445000  0.10106000  1
  H  H6  1  0.08390000  0.12990000  0.25440000  1
  H  H7  1  0.10200000  0.36540000  0.14930000  1
  H  H8  1  0.13290000  0.78830000  0.74210000  1
  H  H9  1  0.14740000  0.62630000  0.93790000  1
  H  H10  1  0.19520000  0.16890000  0.36290000  1
  H  H11  1  0.20990000  0.41480000  0.25560000  1
  H  H12  1  0.24020000  0.03310000  0.63040000  1
  H  H13  1  0.24120000  0.70070000  0.66770000  1
  H  H14  1  0.25880000  0.20070000  0.83230000  1
  H  H15  1  0.25980000  0.53310000  0.86960000  1
  H  H16  1  0.29010000  0.91480000  0.24440000  1
  H  H17  1  0.30480000  0.66890000  0.13710000  1
  H  H18  1  0.35260000  0.12630000  0.56210000  1
  H  H19  1  0.36710000  0.28830000  0.75790000  1
  H  H20  1  0.39800000  0.86540000  0.35070000  1
  H  H21  1  0.41610000  0.62990000  0.24560000  1
  H  H22  1  0.58390000  0.37010000  0.75440000  1
  H  H23  1  0.60200000  0.13460000  0.64930000  1
  H  H24  1  0.63290000  0.71170000  0.24210000  1
  H  H25  1  0.64740000  0.87370000  0.43790000  1
  H  H26  1  0.69520000  0.33110000  0.86290000  1
  H  H27  1  0.70990000  0.08520000  0.75560000  1
  H  H28  1  0.74020000  0.46690000  0.13040000  1
  H  H29  1  0.74120000  0.79930000  0.16770000  1
  H  H30  1  0.75880000  0.29930000  0.33230000  1
  H  H31  1  0.75980000  0.96690000  0.36960000  1
  H  H32  1  0.79010000  0.58520000  0.74440000  1
  H  H33  1  0.80480000  0.83110000  0.63710000  1
  H  H34  1  0.85260000  0.37370000  0.06210000  1
  H  H35  1  0.86710000  0.21170000  0.25790000  1
  H  H36  1  0.89800000  0.63460000  0.85070000  1
  H  H37  1  0.91610000  0.87010000  0.74560000  1
  C  C38  1  0.10910000  0.18880000  0.25540000  1
  C  C39  1  0.11930000  0.32640000  0.19440000  1
  C  C40  1  0.15890000  0.73610000  0.76820000  1
  C  C41  1  0.16660000  0.04720000  0.78750000  1
  C  C42  1  0.16740000  0.64170000  0.88300000  1
  C  C43  1  0.17700000  0.21100000  0.32070000  1
  C  C44  1  0.18560000  0.35560000  0.25660000  1
  C  C45  1  0.20810000  0.82650000  0.11200000  1
  C  C46  1  0.21760000  0.29670000  0.32250000  1
  C  C47  1  0.22410000  0.68400000  0.72300000  1
  C  C48  1  0.23480000  0.58490000  0.84220000  1
  C  C49  1  0.23520000  0.10620000  0.74050000  1
  C  C50  1  0.26480000  0.60620000  0.75950000  1
  C  C51  1  0.26520000  0.08490000  0.65780000  1
  C  C52  1  0.27590000  0.18400000  0.77700000  1
  C  C53  1  0.28240000  0.79670000  0.17750000  1
  C  C54  1  0.29190000  0.32650000  0.38800000  1
  C  C55  1  0.31440000  0.85560000  0.24340000  1
  C  C56  1  0.32300000  0.71100000  0.17930000  1
  C  C57  1  0.33260000  0.14170000  0.61700000  1
  C  C58  1  0.33340000  0.54720000  0.71250000  1
  C  C59  1  0.34110000  0.23610000  0.73180000  1
  C  C60  1  0.38070000  0.82640000  0.30560000  1
  C  C61  1  0.39090000  0.68880000  0.24460000  1
  C  C62  1  0.60910000  0.31120000  0.75540000  1
  C  C63  1  0.61930000  0.17360000  0.69440000  1
  C  C64  1  0.65890000  0.76390000  0.26820000  1
  C  C65  1  0.66666667  0.45280000  0.28750000  1
  C  C66  1  0.66740000  0.85830000  0.38300000  1
  C  C67  1  0.67700000  0.28900000  0.82070000  1
  C  C68  1  0.68560000  0.14440000  0.75660000  1
  C  C69  1  0.70810000  0.67350000  0.61200000  1
  C  C70  1  0.71760000  0.20330000  0.82250000  1
  C  C71  1  0.72410000  0.81600000  0.22300000  1
  C  C72  1  0.73480000  0.91510000  0.34220000  1
  C  C73  1  0.73520000  0.39380000  0.24050000  1
  C  C74  1  0.76480000  0.89380000  0.25950000  1
  C  C75  1  0.76520000  0.41510000  0.15780000  1
  C  C76  1  0.77590000  0.31600000  0.27700000  1
  C  C77  1  0.78240000  0.70330000  0.67750000  1
  C  C78  1  0.79190000  0.17350000  0.88800000  1
  C  C79  1  0.81440000  0.64440000  0.74340000  1
  C  C80  1  0.82300000  0.78900000  0.67930000  1
  C  C81  1  0.83260000  0.35830000  0.11700000  1
  C  C82  1  0.83340000  0.95280000  0.21250000  1
  C  C83  1  0.84110000  0.26390000  0.23180000  1
  C  C84  1  0.88070000  0.67360000  0.80560000  1
  C  C85  1  0.89090000  0.81120000  0.74460000  1
  N  N86  1  0.07150000  0.00530000  0.88620000  1
  N  N87  1  0.07730000  0.24280000  0.19540000  1
  N  N88  1  0.08210000  0.93660000  0.83300000  1
  N  N89  1  0.08370000  0.12400000  0.05260000  1
  N  N90  1  0.10130000  0.90550000  0.04210000  1
  N  N91  1  0.11200000  0.82830000  0.00190000  1
  N  N92  1  0.12440000  0.07600000  0.86090000  1
  N  N93  1  0.12990000  0.71720000  0.84730000  1
  N  N94  1  0.14180000  0.96280000  0.76890000  1
  N  N95  1  0.16190000  0.90670000  0.11250000  1
  N  N96  1  0.16960000  0.13840000  0.05610000  1
  N  N97  1  0.17950000  0.77680000  0.04360000  1
  N  N98  1  0.24430000  0.65330000  0.44070000  1
  N  N99  1  0.25570000  0.15330000  0.05930000  1
  N  N100  1  0.32050000  0.27680000  0.45640000  1
  N  N101  1  0.33040000  0.63840000  0.44390000  1
  N  N102  1  0.33810000  0.40670000  0.38750000  1
  N  N103  1  0.35820000  0.46280000  0.73110000  1
  N  N104  1  0.37010000  0.21720000  0.65270000  1
  N  N105  1  0.37560000  0.57600000  0.63910000  1
  N  N106  1  0.38800000  0.32830000  0.49810000  1
  N  N107  1  0.39870000  0.40550000  0.45790000  1
  N  N108  1  0.41630000  0.62400000  0.44740000  1
  N  N109  1  0.41790000  0.43660000  0.66700000  1
  N  N110  1  0.42270000  0.74280000  0.30460000  1
  N  N111  1  0.42850000  0.50530000  0.61380000  1
  N  N112  1  0.57150000  0.49470000  0.38620000  1
  N  N113  1  0.57730000  0.25720000  0.69540000  1
  N  N114  1  0.58210000  0.56340000  0.33300000  1
  N  N115  1  0.58370000  0.37600000  0.55260000  1
  N  N116  1  0.60130000  0.59450000  0.54210000  1
  N  N117  1  0.61200000  0.67170000  0.50190000  1
  N  N118  1  0.62440000  0.42400000  0.36090000  1
  N  N119  1  0.62990000  0.78280000  0.34730000  1
  N  N120  1  0.64180000  0.53720000  0.26890000  1
  N  N121  1  0.66190000  0.59330000  0.61250000  1
  N  N122  1  0.66960000  0.36160000  0.55610000  1
  N  N123  1  0.67950000  0.72320000  0.54360000  1
  N  N124  1  0.74430000  0.84670000  0.94070000  1
  N  N125  1  0.75570000  0.34670000  0.55930000  1
  N  N126  1  0.82050000  0.22320000  0.95640000  1
  N  N127  1  0.83040000  0.86160000  0.94390000  1
  N  N128  1  0.83810000  0.09330000  0.88750000  1
  N  N129  1  0.85820000  0.03720000  0.23110000  1
  N  N130  1  0.87010000  0.28280000  0.15270000  1
  N  N131  1  0.87560000  0.92400000  0.13910000  1
  N  N132  1  0.88800000  0.17170000  0.99810000  1
  N  N133  1  0.89870000  0.09450000  0.95790000  1
  N  N134  1  0.91630000  0.87600000  0.94740000  1
  N  N135  1  0.91790000  0.06340000  0.16700000  1
  N  N136  1  0.92270000  0.75720000  0.80460000  1
  N  N137  1  0.92850000  0.99470000  0.11380000  1
