# generated using pymatgen
data_EuH7(C5O2)3
_symmetry_space_group_name_H-M   'P 1'
_cell_length_a   12.94900000
_cell_length_b   13.86900000
_cell_length_c   27.97200000
_cell_angle_alpha   104.31500000
_cell_angle_beta   98.30100000
_cell_angle_gamma   94.34900000
_symmetry_Int_Tables_number   1
_chemical_formula_structural   EuH7(C5O2)3
_chemical_formula_sum   'Eu8 H56 C120 O48'
_cell_volume   4783.81714361
_cell_formula_units_Z   8
loop_
 _symmetry_equiv_pos_site_id
 _symmetry_equiv_pos_as_xyz
  1  'x, y, z'
loop_
 _atom_site_type_symbol
 _atom_site_label
 _atom_site_symmetry_multiplicity
 _atom_site_fract_x
 _atom_site_fract_y
 _atom_site_fract_z
 _atom_site_occupancy
  Eu  Eu0  1  0.01589000  0.10482000  0.08637000  1
  Eu  Eu1  1  0.02882000  0.45434000  0.41526000  1
  Eu  Eu2  1  0.38045000  0.92530000  0.44605000  1
  Eu  Eu3  1  0.46862000  0.43586000  0.06079000  1
  Eu  Eu4  1  0.53139000  0.56414000  0.93921000  1
  Eu  Eu5  1  0.61955000  0.07470000  0.55395000  1
  Eu  Eu6  1  0.97118000  0.54566000  0.58474000  1
  Eu  Eu7  1  0.98411000  0.89518000  0.91363000  1
  H  H8  1  0.00400000  0.82700000  0.34380000  1
  H  H9  1  0.04500000  0.12840000  0.81050000  1
  H  H10  1  0.05740000  0.46480000  0.72600000  1
  H  H11  1  0.06540000  0.13470000  0.72870000  1
  H  H12  1  0.12320000  0.42510000  0.79850000  1
  H  H13  1  0.14770000  0.86480000  0.18980000  1
  H  H14  1  0.17480000  0.89910000  0.27590000  1
  H  H15  1  0.18060000  0.90820000  0.11810000  1
  H  H16  1  0.22270000  0.23750000  0.48480000  1
  H  H17  1  0.22930000  0.44690000  0.61290000  1
  H  H18  1  0.23610000  0.20450000  0.94340000  1
  H  H19  1  0.24550000  0.75800000  0.98640000  1
  H  H20  1  0.25070000  0.78960000  0.56240000  1
  H  H21  1  0.25180000  0.47150000  0.68950000  1
  H  H22  1  0.26030000  0.36920000  0.84530000  1
  H  H23  1  0.29440000  0.07000000  0.19420000  1
  H  H24  1  0.31120000  0.53740000  0.77410000  1
  H  H25  1  0.31500000  0.70750000  0.68990000  1
  H  H26  1  0.36100000  0.68430000  0.11230000  1
  H  H27  1  0.40370000  0.35550000  0.21210000  1
  H  H28  1  0.41590000  0.22860000  0.60890000  1
  H  H29  1  0.42140000  0.05970000  0.25880000  1
  H  H30  1  0.43800000  0.78550000  0.19000000  1
  H  H31  1  0.44100000  0.61230000  0.23540000  1
  H  H32  1  0.46330000  0.81640000  0.27540000  1
  H  H33  1  0.46960000  0.65370000  0.72290000  1
  H  H34  1  0.47350000  0.10880000  0.34710000  1
  H  H35  1  0.49610000  0.67550000  0.32060000  1
  H  H36  1  0.50390000  0.32450000  0.67940000  1
  H  H37  1  0.52650000  0.89120000  0.65290000  1
  H  H38  1  0.53040000  0.34630000  0.27710000  1
  H  H39  1  0.53670000  0.18360000  0.72460000  1
  H  H40  1  0.55900000  0.38770000  0.76460000  1
  H  H41  1  0.56200000  0.21450000  0.81000000  1
  H  H42  1  0.57860000  0.94030000  0.74120000  1
  H  H43  1  0.58410000  0.77140000  0.39110000  1
  H  H44  1  0.59630000  0.64450000  0.78790000  1
  H  H45  1  0.63900000  0.31570000  0.88770000  1
  H  H46  1  0.68500000  0.29250000  0.31010000  1
  H  H47  1  0.68880000  0.46260000  0.22590000  1
  H  H48  1  0.70560000  0.93000000  0.80580000  1
  H  H49  1  0.73970000  0.63080000  0.15470000  1
  H  H50  1  0.74820000  0.52850000  0.31050000  1
  H  H51  1  0.74930000  0.21040000  0.43760000  1
  H  H52  1  0.75450000  0.24200000  0.01360000  1
  H  H53  1  0.76390000  0.79550000  0.05660000  1
  H  H54  1  0.77070000  0.55310000  0.38710000  1
  H  H55  1  0.77730000  0.76250000  0.51520000  1
  H  H56  1  0.81940000  0.09180000  0.88190000  1
  H  H57  1  0.82520000  0.10090000  0.72410000  1
  H  H58  1  0.85230000  0.13520000  0.81020000  1
  H  H59  1  0.87680000  0.57490000  0.20150000  1
  H  H60  1  0.93460000  0.86530000  0.27130000  1
  H  H61  1  0.94260000  0.53520000  0.27400000  1
  H  H62  1  0.95500000  0.87160000  0.18950000  1
  H  H63  1  0.99600000  0.17300000  0.65620000  1
  C  C64  1  0.01740000  0.65060000  0.36476000  1
  C  C65  1  0.02160000  0.32200000  0.68267000  1
  C  C66  1  0.02290000  0.22450000  0.68465000  1
  C  C67  1  0.05910000  0.39800000  0.72631000  1
  C  C68  1  0.06370000  0.20150000  0.72841000  1
  C  C69  1  0.08050000  0.06590000  0.89150000  1
  C  C70  1  0.09850000  0.37390000  0.76973000  1
  C  C71  1  0.09920000  0.17150000  0.83285000  1
  C  C72  1  0.10220000  0.27580000  0.77172000  1
  C  C73  1  0.13190000  0.89920000  0.02108000  1
  C  C74  1  0.13330000  0.15320000  0.87862000  1
  C  C75  1  0.14260000  0.40600000  0.51765000  1
  C  C76  1  0.14440000  0.25330000  0.81952000  1
  C  C77  1  0.16060000  0.68020000  0.61411000  1
  C  C78  1  0.20000000  0.84030000  0.04819000  1
  C  C79  1  0.21160000  0.85510000  0.20686000  1
  C  C80  1  0.21340000  0.85770000  0.09969000  1
  C  C81  1  0.21420000  0.21640000  0.91245000  1
  C  C82  1  0.21590000  0.35220000  0.54414000  1
  C  C83  1  0.22760000  0.31510000  0.85376000  1
  C  C84  1  0.22770000  0.87530000  0.25851000  1
  C  C85  1  0.24380000  0.22550000  0.15945000  1
  C  C86  1  0.24980000  0.26510000  0.51856000  1
  C  C87  1  0.25200000  0.76810000  0.02084000  1
  C  C88  1  0.25430000  0.39010000  0.59520000  1
  C  C89  1  0.26240000  0.29770000  0.89975000  1
  C  C90  1  0.26590000  0.74210000  0.62535000  1
  C  C91  1  0.27440000  0.80140000  0.12443000  1
  C  C92  1  0.28950000  0.82080000  0.18029000  1
  C  C93  1  0.29610000  0.79280000  0.59186000  1
  C  C94  1  0.31350000  0.45280000  0.70428000  1
  C  C95  1  0.31390000  0.71080000  0.04474000  1
  C  C96  1  0.32120000  0.86050000  0.28423000  1
  C  C97  1  0.32290000  0.72530000  0.09646000  1
  C  C98  1  0.32410000  0.21820000  0.54276000  1
  C  C99  1  0.32930000  0.34490000  0.62030000  1
  C  C100  1  0.33260000  0.21470000  0.19731000  1
  C  C101  1  0.33490000  0.74420000  0.66833000  1
  C  C102  1  0.33970000  0.88010000  0.34034000  1
  C  C103  1  0.34120000  0.12630000  0.21121000  1
  C  C104  1  0.34870000  0.49190000  0.75539000  1
  C  C105  1  0.34930000  0.36740000  0.93637000  1
  C  C106  1  0.35700000  0.12340000  0.51296000  1
  C  C107  1  0.36460000  0.25900000  0.59313000  1
  C  C108  1  0.36850000  0.38670000  0.67497000  1
  C  C109  1  0.37260000  0.63420000  0.01507000  1
  C  C110  1  0.38420000  0.80760000  0.20715000  1
  C  C111  1  0.39350000  0.84810000  0.60219000  1
  C  C112  1  0.39970000  0.82650000  0.25822000  1
  C  C113  1  0.40600000  0.29610000  0.22181000  1
  C  C114  1  0.41820000  0.11980000  0.24989000  1
  C  C115  1  0.42900000  0.89930000  0.56471000  1
  C  C116  1  0.43380000  0.80020000  0.68019000  1
  C  C117  1  0.43790000  0.46400000  0.77838000  1
  C  C118  1  0.46150000  0.85270000  0.64602000  1
  C  C119  1  0.46250000  0.36520000  0.69826000  1
  C  C120  1  0.47410000  0.50370000  0.83374000  1
  C  C121  1  0.48270000  0.29020000  0.26056000  1
  C  C122  1  0.48970000  0.20090000  0.27527000  1
  C  C123  1  0.49590000  0.40360000  0.74966000  1
  C  C124  1  0.50410000  0.59640000  0.25034000  1
  C  C125  1  0.51030000  0.79910000  0.72473000  1
  C  C126  1  0.51730000  0.70980000  0.73944000  1
  C  C127  1  0.52590000  0.49630000  0.16626000  1
  C  C128  1  0.53750000  0.63480000  0.30174000  1
  C  C129  1  0.53850000  0.14730000  0.35398000  1
  C  C130  1  0.56210000  0.53600000  0.22162000  1
  C  C131  1  0.56620000  0.19980000  0.31981000  1
  C  C132  1  0.57100000  0.10070000  0.43529000  1
  C  C133  1  0.58180000  0.88020000  0.75011000  1
  C  C134  1  0.59400000  0.70390000  0.77819000  1
  C  C135  1  0.60030000  0.17350000  0.74178000  1
  C  C136  1  0.60650000  0.15190000  0.39781000  1
  C  C137  1  0.61580000  0.19240000  0.79285000  1
  C  C138  1  0.62740000  0.36580000  0.98493000  1
  C  C139  1  0.63150000  0.61330000  0.32503000  1
  C  C140  1  0.63540000  0.74100000  0.40687000  1
  C  C141  1  0.64300000  0.87660000  0.48704000  1
  C  C142  1  0.65070000  0.63260000  0.06363000  1
  C  C143  1  0.65130000  0.50810000  0.24461000  1
  C  C144  1  0.65880000  0.87370000  0.78879000  1
  C  C145  1  0.66030000  0.11990000  0.65966000  1
  C  C146  1  0.66510000  0.25580000  0.33167000  1
  C  C147  1  0.66740000  0.78530000  0.80269000  1
  C  C148  1  0.67070000  0.65510000  0.37970000  1
  C  C149  1  0.67590000  0.78180000  0.45724000  1
  C  C150  1  0.67710000  0.27470000  0.90354000  1
  C  C151  1  0.67880000  0.13950000  0.71577000  1
  C  C152  1  0.68610000  0.28920000  0.95526000  1
  C  C153  1  0.68650000  0.54720000  0.29572000  1
  C  C154  1  0.70390000  0.20720000  0.40814000  1
  C  C155  1  0.71050000  0.17920000  0.81971000  1
  C  C156  1  0.72560000  0.19860000  0.87557000  1
  C  C157  1  0.73410000  0.25790000  0.37465000  1
  C  C158  1  0.73760000  0.70230000  0.10025000  1
  C  C159  1  0.74570000  0.60990000  0.40480000  1
  C  C160  1  0.74800000  0.23190000  0.97916000  1
  C  C161  1  0.75020000  0.73490000  0.48144000  1
  C  C162  1  0.75620000  0.77450000  0.84055000  1
  C  C163  1  0.77230000  0.12470000  0.74149000  1
  C  C164  1  0.77240000  0.68490000  0.14624000  1
  C  C165  1  0.78410000  0.64780000  0.45586000  1
  C  C166  1  0.78580000  0.78360000  0.08755000  1
  C  C167  1  0.78660000  0.14230000  0.90031000  1
  C  C168  1  0.78840000  0.14490000  0.79314000  1
  C  C169  1  0.80000000  0.15970000  0.95181000  1
  C  C170  1  0.83940000  0.31980000  0.38589000  1
  C  C171  1  0.85560000  0.74670000  0.18048000  1
  C  C172  1  0.85740000  0.59400000  0.48235000  1
  C  C173  1  0.86670000  0.84680000  0.12138000  1
  C  C174  1  0.86810000  0.10080000  0.97892000  1
  C  C175  1  0.89780000  0.72420000  0.22828000  1
  C  C176  1  0.90080000  0.82850000  0.16715000  1
  C  C177  1  0.90150000  0.62610000  0.23027000  1
  C  C178  1  0.91950000  0.93410000  0.10850000  1
  C  C179  1  0.93630000  0.79850000  0.27159000  1
  C  C180  1  0.94090000  0.60200000  0.27369000  1
  C  C181  1  0.97710000  0.77550000  0.31535000  1
  C  C182  1  0.97840000  0.67800000  0.31733000  1
  C  C183  1  0.98260000  0.34940000  0.63524000  1
  O  O184  1  0.00510000  0.01100000  0.86085000  1
  O  O185  1  0.00920000  0.55920000  0.36359000  1
  O  O186  1  0.05390000  0.71890000  0.40336000  1
  O  O187  1  0.09493000  0.68376000  0.57653000  1
  O  O188  1  0.09820000  0.97367000  0.04556000  1
  O  O189  1  0.10180000  0.47630000  0.54273000  1
  O  O190  1  0.11250000  0.04811000  0.93328000  1
  O  O191  1  0.11370000  0.86850000  0.97435000  1
  O  O192  1  0.12640000  0.38060000  0.47107000  1
  O  O193  1  0.13970000  0.62420000  0.64167000  1
  O  O194  1  0.17420000  0.14960000  0.14169000  1
  O  O195  1  0.23980000  0.30600000  0.14755000  1
  O  O196  1  0.27870000  0.93020000  0.36428000  1
  O  O197  1  0.29740000  0.07474000  0.47415000  1
  O  O198  1  0.36890000  0.88880000  0.52448000  1
  O  O199  1  0.37600000  0.35119000  0.97838000  1
  O  O200  1  0.38960000  0.43785000  0.92175000  1
  O  O201  1  0.39180000  0.64700000  0.97411000  1
  O  O202  1  0.40020000  0.56478000  0.03259000  1
  O  O203  1  0.41370000  0.84500000  0.36130000  1
  O  O204  1  0.43280000  0.57320000  0.85832000  1
  O  O205  1  0.44380000  0.09508000  0.52767000  1
  O  O206  1  0.45290000  0.53400000  0.14513000  1
  O  O207  1  0.48170000  0.05070000  0.42273000  1
  O  O208  1  0.51830000  0.94930000  0.57727000  1
  O  O209  1  0.54710000  0.46600000  0.85487000  1
  O  O210  1  0.55620000  0.90492000  0.47233000  1
  O  O211  1  0.56720000  0.42680000  0.14168000  1
  O  O212  1  0.58630000  0.15500000  0.63870000  1
  O  O213  1  0.59980000  0.43522000  0.96741000  1
  O  O214  1  0.60820000  0.35300000  0.02589000  1
  O  O215  1  0.61040000  0.56215000  0.07825000  1
  O  O216  1  0.62400000  0.64881000  0.02162000  1
  O  O217  1  0.63110000  0.11120000  0.47552000  1
  O  O218  1  0.70260000  0.92526000  0.52585000  1
  O  O219  1  0.72130000  0.06980000  0.63572000  1
  O  O220  1  0.76020000  0.69400000  0.85245000  1
  O  O221  1  0.82580000  0.85040000  0.85831000  1
  O  O222  1  0.86030000  0.37580000  0.35833000  1
  O  O223  1  0.87360000  0.61940000  0.52893000  1
  O  O224  1  0.88630000  0.13150000  0.02565000  1
  O  O225  1  0.88750000  0.95189000  0.06672000  1
  O  O226  1  0.89820000  0.52370000  0.45727000  1
  O  O227  1  0.90180000  0.02633000  0.95444000  1
  O  O228  1  0.90507000  0.31624000  0.42347000  1
  O  O229  1  0.94610000  0.28110000  0.59664000  1
  O  O230  1  0.99080000  0.44080000  0.63641000  1
  O  O231  1  0.99490000  0.98900000  0.13915000  1
