# generated using pymatgen
data_MgH2(CO2)2
_symmetry_space_group_name_H-M   'P 1'
_cell_length_a   9.98310000
_cell_length_b   11.37620000
_cell_length_c   15.03580000
_cell_angle_alpha   91.20300000
_cell_angle_beta   90.00000000
_cell_angle_gamma   90.00000000
_symmetry_Int_Tables_number   1
_chemical_formula_structural   MgH2(CO2)2
_chemical_formula_sum   'Mg12 H24 C24 O48'
_cell_volume   1707.23554775
_cell_formula_units_Z   12
loop_
 _symmetry_equiv_pos_site_id
 _symmetry_equiv_pos_as_xyz
  1  'x, y, z'
loop_
 _atom_site_type_symbol
 _atom_site_label
 _atom_site_symmetry_multiplicity
 _atom_site_fract_x
 _atom_site_fract_y
 _atom_site_fract_z
 _atom_site_occupancy
  Mg  Mg0  1  0.00000000  0.00000000  0.00000000  1
  Mg  Mg1  1  0.00000000  0.50000000  0.00000000  1
  Mg  Mg2  1  0.07062000  0.75497000  0.13552000  1
  Mg  Mg3  1  0.12626000  0.26002000  0.69824000  1
  Mg  Mg4  1  0.37374000  0.76002000  0.19824000  1
  Mg  Mg5  1  0.42938000  0.25497000  0.63552000  1
  Mg  Mg6  1  0.50000000  0.00000000  0.50000000  1
  Mg  Mg7  1  0.50000000  0.50000000  0.50000000  1
  Mg  Mg8  1  0.57062000  0.74503000  0.36448000  1
  Mg  Mg9  1  0.62626000  0.23998000  0.80176000  1
  Mg  Mg10  1  0.87374000  0.73998000  0.30176000  1
  Mg  Mg11  1  0.92938000  0.24503000  0.86448000  1
  H  H12  1  0.06080000  0.52340000  0.74550000  1
  H  H13  1  0.13110000  0.30440000  0.07990000  1
  H  H14  1  0.13150000  0.04020000  0.57380000  1
  H  H15  1  0.21480000  0.50090000  0.53240000  1
  H  H16  1  0.21850000  0.85700000  0.36800000  1
  H  H17  1  0.22910000  0.03710000  0.79410000  1
  H  H18  1  0.27090000  0.53710000  0.29410000  1
  H  H19  1  0.28150000  0.35700000  0.86800000  1
  H  H20  1  0.28520000  0.00090000  0.03240000  1
  H  H21  1  0.36850000  0.54020000  0.07380000  1
  H  H22  1  0.36890000  0.80440000  0.57990000  1
  H  H23  1  0.43920000  0.02340000  0.24550000  1
  H  H24  1  0.56080000  0.97660000  0.75450000  1
  H  H25  1  0.63110000  0.19560000  0.42010000  1
  H  H26  1  0.63150000  0.45980000  0.92620000  1
  H  H27  1  0.71480000  0.99910000  0.96760000  1
  H  H28  1  0.71850000  0.64300000  0.13200000  1
  H  H29  1  0.72910000  0.46290000  0.70590000  1
  H  H30  1  0.77090000  0.96290000  0.20590000  1
  H  H31  1  0.78150000  0.14300000  0.63200000  1
  H  H32  1  0.78520000  0.49910000  0.46760000  1
  H  H33  1  0.86850000  0.95980000  0.42620000  1
  H  H34  1  0.86890000  0.69560000  0.92010000  1
  H  H35  1  0.93920000  0.47660000  0.25450000  1
  C  C36  1  0.03762000  0.47965000  0.79644000  1
  C  C37  1  0.08370000  0.25906000  0.03637000  1
  C  C38  1  0.15159000  0.82746000  0.32851000  1
  C  C39  1  0.15545000  0.05990000  0.83054000  1
  C  C40  1  0.22210000  0.06565000  0.57170000  1
  C  C41  1  0.23460000  0.43549000  0.56837000  1
  C  C42  1  0.26540000  0.93549000  0.06837000  1
  C  C43  1  0.27790000  0.56565000  0.07170000  1
  C  C44  1  0.34455000  0.55990000  0.33054000  1
  C  C45  1  0.34841000  0.32746000  0.82851000  1
  C  C46  1  0.41630000  0.75906000  0.53637000  1
  C  C47  1  0.46238000  0.97965000  0.29644000  1
  C  C48  1  0.53762000  0.02035000  0.70356000  1
  C  C49  1  0.58370000  0.24094000  0.46363000  1
  C  C50  1  0.65159000  0.67254000  0.17149000  1
  C  C51  1  0.65545000  0.44010000  0.66946000  1
  C  C52  1  0.72210000  0.43435000  0.92830000  1
  C  C53  1  0.73460000  0.06451000  0.93163000  1
  C  C54  1  0.76540000  0.56451000  0.43163000  1
  C  C55  1  0.77790000  0.93435000  0.42830000  1
  C  C56  1  0.84455000  0.94010000  0.16946000  1
  C  C57  1  0.84841000  0.17254000  0.67149000  1
  C  C58  1  0.91630000  0.74094000  0.96363000  1
  C  C59  1  0.96238000  0.52035000  0.20356000  1
  O  O60  1  0.01961000  0.31573000  0.97720000  1
  O  O61  1  0.02049000  0.36897000  0.78517000  1
  O  O62  1  0.02671000  0.53450000  0.86755000  1
  O  O63  1  0.03813000  0.81165000  0.35972000  1
  O  O64  1  0.08976000  0.15103000  0.04223000  1
  O  O65  1  0.09392000  0.15380000  0.81000000  1
  O  O66  1  0.12833000  0.99584000  0.89330000  1
  O  O67  1  0.13998000  0.39157000  0.60937000  1
  O  O68  1  0.14359000  0.90095000  0.07005000  1
  O  O69  1  0.18590000  0.80741000  0.24807000  1
  O  O70  1  0.20201000  0.51033000  0.02170000  1
  O  O71  1  0.24609000  0.65424000  0.12116000  1
  O  O72  1  0.25391000  0.15424000  0.62116000  1
  O  O73  1  0.29799000  0.01033000  0.52170000  1
  O  O74  1  0.31410000  0.30741000  0.74807000  1
  O  O75  1  0.35641000  0.40095000  0.57005000  1
  O  O76  1  0.36002000  0.89157000  0.10937000  1
  O  O77  1  0.37167000  0.49584000  0.39330000  1
  O  O78  1  0.40608000  0.65380000  0.31000000  1
  O  O79  1  0.41024000  0.65103000  0.54223000  1
  O  O80  1  0.46187000  0.31165000  0.85972000  1
  O  O81  1  0.47329000  0.03450000  0.36755000  1
  O  O82  1  0.47951000  0.86897000  0.28517000  1
  O  O83  1  0.48039000  0.81573000  0.47720000  1
  O  O84  1  0.51961000  0.18427000  0.52280000  1
  O  O85  1  0.52049000  0.13103000  0.71483000  1
  O  O86  1  0.52671000  0.96550000  0.63245000  1
  O  O87  1  0.53813000  0.68835000  0.14028000  1
  O  O88  1  0.58976000  0.34897000  0.45777000  1
  O  O89  1  0.59392000  0.34620000  0.69000000  1
  O  O90  1  0.62833000  0.50416000  0.60670000  1
  O  O91  1  0.63998000  0.10843000  0.89063000  1
  O  O92  1  0.64359000  0.59905000  0.42995000  1
  O  O93  1  0.68590000  0.69259000  0.25193000  1
  O  O94  1  0.70201000  0.98967000  0.47830000  1
  O  O95  1  0.74609000  0.84576000  0.37884000  1
  O  O96  1  0.75391000  0.34576000  0.87884000  1
  O  O97  1  0.79799000  0.48967000  0.97830000  1
  O  O98  1  0.81410000  0.19259000  0.75193000  1
  O  O99  1  0.85641000  0.09905000  0.92995000  1
  O  O100  1  0.86002000  0.60843000  0.39063000  1
  O  O101  1  0.87167000  0.00416000  0.10670000  1
  O  O102  1  0.90608000  0.84620000  0.19000000  1
  O  O103  1  0.91024000  0.84897000  0.95777000  1
  O  O104  1  0.96187000  0.18835000  0.64028000  1
  O  O105  1  0.97329000  0.46550000  0.13245000  1
  O  O106  1  0.97951000  0.63103000  0.21483000  1
  O  O107  1  0.98039000  0.68427000  0.02280000  1
