# generated using pymatgen
data_CoH18C22(N2O3)2
_symmetry_space_group_name_H-M   'P 1'
_cell_length_a   10.11120000
_cell_length_b   15.94300000
_cell_length_c   16.76400000
_cell_angle_alpha   111.32500000
_cell_angle_beta   103.68000000
_cell_angle_gamma   102.59800000
_symmetry_Int_Tables_number   1
_chemical_formula_structural   CoH18C22(N2O3)2
_chemical_formula_sum   'Co4 H72 C88 N16 O24'
_cell_volume   2303.76297906
_cell_formula_units_Z   4
loop_
 _symmetry_equiv_pos_site_id
 _symmetry_equiv_pos_as_xyz
  1  'x, y, z'
loop_
 _atom_site_type_symbol
 _atom_site_label
 _atom_site_symmetry_multiplicity
 _atom_site_fract_x
 _atom_site_fract_y
 _atom_site_fract_z
 _atom_site_occupancy
  Co  Co0  1  0.32211000  0.79396000  0.40719000  1
  Co  Co1  1  0.42436000  0.37657000  0.59235000  1
  Co  Co2  1  0.57564000  0.62343000  0.40765000  1
  Co  Co3  1  0.67789000  0.20604000  0.59281000  1
  H  H4  1  0.02170000  0.11360000  0.82910000  1
  H  H5  1  0.03330000  0.68700000  0.62840000  1
  H  H6  1  0.03420000  0.77370000  0.01800000  1
  H  H7  1  0.03560000  0.62160000  0.39920000  1
  H  H8  1  0.05050000  0.44110000  0.90180000  1
  H  H9  1  0.05510000  0.63990000  0.25400000  1
  H  H10  1  0.05690000  0.81240000  0.17400000  1
  H  H11  1  0.06590000  0.16400000  0.98190000  1
  H  H12  1  0.07280000  0.59180000  0.00540000  1
  H  H13  1  0.07720000  0.13050000  0.27970000  1
  H  H14  1  0.08090000  0.01220000  0.37470000  1
  H  H15  1  0.11210000  0.93080000  0.63250000  1
  H  H16  1  0.13650000  0.35510000  0.09500000  1
  H  H17  1  0.14380000  0.20860000  0.59610000  1
  H  H18  1  0.16470000  0.21430000  0.43330000  1
  H  H19  1  0.18860000  0.40590000  0.38310000  1
  H  H20  1  0.20520000  0.17020000  0.19090000  1
  H  H21  1  0.21820000  0.62340000  0.62280000  1
  H  H22  1  0.23910000  0.77250000  0.56480000  1
  H  H23  1  0.24370000  0.94180000  0.29050000  1
  H  H24  1  0.31880000  0.83000000  0.71860000  1
  H  H25  1  0.31900000  0.01240000  0.62090000  1
  H  H26  1  0.32640000  0.45650000  0.23740000  1
  H  H27  1  0.32870000  0.68130000  0.81480000  1
  H  H28  1  0.34720000  0.47140000  0.00740000  1
  H  H29  1  0.35880000  0.34160000  0.74920000  1
  H  H30  1  0.39830000  0.78620000  0.23350000  1
  H  H31  1  0.41330000  0.61430000  0.83140000  1
  H  H32  1  0.41440000  0.05100000  0.42360000  1
  H  H33  1  0.41450000  0.76770000  0.09640000  1
  H  H34  1  0.44290000  0.79020000  0.96610000  1
  H  H35  1  0.44770000  0.39400000  0.90370000  1
  H  H36  1  0.45710000  0.05100000  0.19230000  1
  H  H37  1  0.47170000  0.63320000  0.70810000  1
  H  H38  1  0.47310000  0.27700000  0.01740000  1
  H  H39  1  0.49680000  0.62090000  0.57590000  1
  H  H40  1  0.50320000  0.37910000  0.42410000  1
  H  H41  1  0.52690000  0.72300000  0.98260000  1
  H  H42  1  0.52830000  0.36680000  0.29190000  1
  H  H43  1  0.54290000  0.94900000  0.80770000  1
  H  H44  1  0.55230000  0.60600000  0.09630000  1
  H  H45  1  0.55710000  0.20980000  0.03390000  1
  H  H46  1  0.58550000  0.23230000  0.90360000  1
  H  H47  1  0.58560000  0.94900000  0.57640000  1
  H  H48  1  0.58670000  0.38570000  0.16860000  1
  H  H49  1  0.60170000  0.21380000  0.76650000  1
  H  H50  1  0.64120000  0.65840000  0.25080000  1
  H  H51  1  0.65280000  0.52860000  0.99260000  1
  H  H52  1  0.67130000  0.31870000  0.18520000  1
  H  H53  1  0.67360000  0.54350000  0.76260000  1
  H  H54  1  0.68100000  0.98760000  0.37910000  1
  H  H55  1  0.68120000  0.17000000  0.28140000  1
  H  H56  1  0.75630000  0.05820000  0.70950000  1
  H  H57  1  0.76090000  0.22750000  0.43520000  1
  H  H58  1  0.78180000  0.37660000  0.37720000  1
  H  H59  1  0.79480000  0.82980000  0.80910000  1
  H  H60  1  0.81140000  0.59410000  0.61690000  1
  H  H61  1  0.83530000  0.78570000  0.56670000  1
  H  H62  1  0.85620000  0.79140000  0.40390000  1
  H  H63  1  0.86350000  0.64490000  0.90500000  1
  H  H64  1  0.88790000  0.06920000  0.36750000  1
  H  H65  1  0.91910000  0.98780000  0.62530000  1
  H  H66  1  0.92280000  0.86950000  0.72030000  1
  H  H67  1  0.92720000  0.40820000  0.99460000  1
  H  H68  1  0.93410000  0.83600000  0.01810000  1
  H  H69  1  0.94310000  0.18760000  0.82600000  1
  H  H70  1  0.94490000  0.36010000  0.74600000  1
  H  H71  1  0.94950000  0.55890000  0.09820000  1
  H  H72  1  0.96440000  0.37840000  0.60080000  1
  H  H73  1  0.96580000  0.22630000  0.98200000  1
  H  H74  1  0.96670000  0.31300000  0.37160000  1
  H  H75  1  0.97830000  0.88640000  0.17090000  1
  C  C76  1  0.00290000  0.02090000  0.62090000  1
  C  C77  1  0.01120000  0.10290000  0.61050000  1
  C  C78  1  0.01910000  0.62500000  0.62220000  1
  C  C79  1  0.02240000  0.56020000  0.39440000  1
  C  C80  1  0.03470000  0.20450000  0.95570000  1
  C  C81  1  0.04060000  0.85450000  0.14580000  1
  C  C82  1  0.04140000  0.60450000  0.12420000  1
  C  C83  1  0.10560000  0.65330000  0.21790000  1
  C  C84  1  0.10980000  0.49470000  0.61040000  1
  C  C85  1  0.11340000  0.43060000  0.38410000  1
  C  C86  1  0.11430000  0.86080000  0.39760000  1
  C  C87  1  0.11440000  0.62340000  0.06870000  1
  C  C88  1  0.11840000  0.98640000  0.62500000  1
  C  C89  1  0.12970000  0.58670000  0.61910000  1
  C  C90  1  0.13430000  0.52300000  0.39200000  1
  C  C91  1  0.13760000  0.15270000  0.60310000  1
  C  C92  1  0.16400000  0.29030000  0.98260000  1
  C  C93  1  0.16450000  0.18080000  0.30770000  1
  C  C94  1  0.18390000  0.92880000  0.16970000  1
  C  C95  1  0.21730000  0.23150000  0.39970000  1
  C  C96  1  0.22790000  0.45170000  0.60440000  1
  C  C97  1  0.24070000  0.20390000  0.25420000  1
  C  C98  1  0.24170000  0.03520000  0.61790000  1
  C  C99  1  0.25160000  0.69120000  0.11150000  1
  C  C100  1  0.25250000  0.11870000  0.60610000  1
  C  C101  1  0.27990000  0.58400000  0.40140000  1
  C  C102  1  0.30800000  0.73870000  0.20580000  1
  C  C103  1  0.31710000  0.67650000  0.97370000  1
  C  C104  1  0.31850000  0.44620000  0.11370000  1
  C  C105  1  0.32800000  0.82110000  0.59880000  1
  C  C106  1  0.37120000  0.27920000  0.29970000  1
  C  C107  1  0.37330000  0.48610000  0.20820000  1
  C  C108  1  0.37580000  0.85490000  0.69090000  1
  C  C109  1  0.38410000  0.49340000  0.07040000  1
  C  C110  1  0.38670000  0.17120000  0.59610000  1
  C  C111  1  0.40980000  0.03790000  0.29990000  1
  C  C112  1  0.41680000  0.32800000  0.39410000  1
  C  C113  1  0.41900000  0.68050000  0.85030000  1
  C  C114  1  0.43600000  0.72380000  0.94770000  1
  C  C115  1  0.44320000  0.39400000  0.78350000  1
  C  C116  1  0.45840000  0.26840000  0.17090000  1
  C  C117  1  0.46780000  0.07550000  0.39400000  1
  C  C118  1  0.49100000  0.07390000  0.25550000  1
  C  C119  1  0.49450000  0.42630000  0.87640000  1
  C  C120  1  0.50550000  0.57370000  0.12360000  1
  C  C121  1  0.50900000  0.92610000  0.74450000  1
  C  C122  1  0.53220000  0.92450000  0.60600000  1
  C  C123  1  0.54160000  0.73160000  0.82910000  1
  C  C124  1  0.55680000  0.60600000  0.21650000  1
  C  C125  1  0.56400000  0.27620000  0.05230000  1
  C  C126  1  0.58100000  0.31950000  0.14970000  1
  C  C127  1  0.58320000  0.67200000  0.60590000  1
  C  C128  1  0.59020000  0.96210000  0.70010000  1
  C  C129  1  0.61330000  0.82880000  0.40390000  1
  C  C130  1  0.61590000  0.50660000  0.92960000  1
  C  C131  1  0.62420000  0.14510000  0.30910000  1
  C  C132  1  0.62670000  0.51390000  0.79180000  1
  C  C133  1  0.62880000  0.72080000  0.70030000  1
  C  C134  1  0.67200000  0.17890000  0.40120000  1
  C  C135  1  0.68150000  0.55380000  0.88630000  1
  C  C136  1  0.68290000  0.32350000  0.02630000  1
  C  C137  1  0.69200000  0.26130000  0.79420000  1
  C  C138  1  0.72010000  0.41600000  0.59860000  1
  C  C139  1  0.74750000  0.88130000  0.39390000  1
  C  C140  1  0.74840000  0.30880000  0.88850000  1
  C  C141  1  0.75830000  0.96480000  0.38210000  1
  C  C142  1  0.75930000  0.79610000  0.74580000  1
  C  C143  1  0.77210000  0.54830000  0.39560000  1
  C  C144  1  0.78270000  0.76850000  0.60030000  1
  C  C145  1  0.81610000  0.07120000  0.83030000  1
  C  C146  1  0.83550000  0.81920000  0.69230000  1
  C  C147  1  0.83600000  0.70970000  0.01740000  1
  C  C148  1  0.86240000  0.84730000  0.39690000  1
  C  C149  1  0.86570000  0.47700000  0.60800000  1
  C  C150  1  0.87030000  0.41330000  0.38090000  1
  C  C151  1  0.88160000  0.01360000  0.37500000  1
  C  C152  1  0.88560000  0.37660000  0.93130000  1
  C  C153  1  0.88570000  0.13920000  0.60240000  1
  C  C154  1  0.88660000  0.56940000  0.61590000  1
  C  C155  1  0.89020000  0.50530000  0.38960000  1
  C  C156  1  0.89440000  0.34670000  0.78210000  1
  C  C157  1  0.95860000  0.39550000  0.87580000  1
  C  C158  1  0.95940000  0.14550000  0.85420000  1
  C  C159  1  0.96530000  0.79550000  0.04430000  1
  C  C160  1  0.97760000  0.43980000  0.60560000  1
  C  C161  1  0.98090000  0.37500000  0.37780000  1
  C  C162  1  0.98880000  0.89710000  0.38950000  1
  C  C163  1  0.99710000  0.97910000  0.37910000  1
  N  N164  1  0.19650000  0.36190000  0.06720000  1
  N  N165  1  0.23800000  0.71920000  0.25880000  1
  N  N166  1  0.27360000  0.96560000  0.25690000  1
  N  N167  1  0.33820000  0.71810000  0.06360000  1
  N  N168  1  0.34240000  0.30540000  0.44480000  1
  N  N169  1  0.40410000  0.85510000  0.55460000  1
  N  N170  1  0.46190000  0.31200000  0.25800000  1
  N  N171  1  0.48960000  0.56440000  0.25980000  1
  N  N172  1  0.51040000  0.43560000  0.74020000  1
  N  N173  1  0.53810000  0.68800000  0.74200000  1
  N  N174  1  0.59590000  0.14490000  0.44540000  1
  N  N175  1  0.65760000  0.69460000  0.55520000  1
  N  N176  1  0.66180000  0.28190000  0.93640000  1
  N  N177  1  0.72640000  0.03440000  0.74310000  1
  N  N178  1  0.76200000  0.28080000  0.74120000  1
  N  N179  1  0.80350000  0.63810000  0.93280000  1
  O  O180  1  0.10820000  0.78890000  0.41300000  1
  O  O181  1  0.20640000  0.36690000  0.59010000  1
  O  O182  1  0.21200000  0.60780000  0.91830000  1
  O  O183  1  0.21450000  0.95390000  0.11380000  1
  O  O184  1  0.22770000  0.90300000  0.38950000  1
  O  O185  1  0.23360000  0.29500000  0.93270000  1
  O  O186  1  0.29290000  0.66540000  0.40760000  1
  O  O187  1  0.34990000  0.50170000  0.61120000  1
  O  O188  1  0.36560000  0.19210000  0.11360000  1
  O  O189  1  0.38010000  0.54970000  0.40360000  1
  O  O190  1  0.39180000  0.24420000  0.58640000  1
  O  O191  1  0.48820000  0.13650000  0.59870000  1
  O  O192  1  0.51180000  0.86350000  0.40130000  1
  O  O193  1  0.60820000  0.75580000  0.41360000  1
  O  O194  1  0.61990000  0.45030000  0.59640000  1
  O  O195  1  0.63440000  0.80790000  0.88640000  1
  O  O196  1  0.65010000  0.49830000  0.38880000  1
  O  O197  1  0.70710000  0.33460000  0.59240000  1
  O  O198  1  0.76640000  0.70500000  0.06730000  1
  O  O199  1  0.77230000  0.09700000  0.61050000  1
  O  O200  1  0.78550000  0.04610000  0.88620000  1
  O  O201  1  0.78800000  0.39220000  0.08170000  1
  O  O202  1  0.79360000  0.63310000  0.40990000  1
  O  O203  1  0.89180000  0.21110000  0.58700000  1
