# generated using pymatgen
data_CdH10(C11O4)2
_symmetry_space_group_name_H-M   'P 1'
_cell_length_a   9.15490000
_cell_length_b   15.40860000
_cell_length_c   25.45190000
_cell_angle_alpha   80.77610000
_cell_angle_beta   79.63920000
_cell_angle_gamma   72.71830000
_symmetry_Int_Tables_number   1
_chemical_formula_structural   CdH10(C11O4)2
_chemical_formula_sum   'Cd4 H40 C88 O32'
_cell_volume   3350.47131733
_cell_formula_units_Z   4
loop_
 _symmetry_equiv_pos_site_id
 _symmetry_equiv_pos_as_xyz
  1  'x, y, z'
loop_
 _atom_site_type_symbol
 _atom_site_label
 _atom_site_symmetry_multiplicity
 _atom_site_fract_x
 _atom_site_fract_y
 _atom_site_fract_z
 _atom_site_occupancy
  Cd  Cd0  1  0.02481000  0.12345000  0.00497000  1
  Cd  Cd1  1  0.15323000  0.37655000  0.49503000  1
  Cd  Cd2  1  0.84677000  0.62345000  0.50497000  1
  Cd  Cd3  1  0.97519000  0.87655000  0.99503000  1
  H  H4  1  0.00670000  0.78970000  0.33810000  1
  H  H5  1  0.01280000  0.11240000  0.74040000  1
  H  H6  1  0.03010000  0.42030000  0.67830000  1
  H  H7  1  0.04470000  0.71670000  0.67210000  1
  H  H8  1  0.12800000  0.76990000  0.83410000  1
  H  H9  1  0.12870000  0.07970000  0.82170000  1
  H  H10  1  0.13440000  0.61240000  0.24040000  1
  H  H11  1  0.13450000  0.71030000  0.16190000  1
  H  H12  1  0.14600000  0.50090000  0.80950000  1
  H  H13  1  0.15320000  0.40130000  0.88710000  1
  H  H14  1  0.18060000  0.68880000  0.76060000  1
  H  H15  1  0.20550000  0.85720000  0.70360000  1
  H  H16  1  0.23370000  0.35720000  0.20360000  1
  H  H17  1  0.26800000  0.26990000  0.33410000  1
  H  H18  1  0.29360000  0.26990000  0.13210000  1
  H  H19  1  0.30440000  0.76990000  0.63210000  1
  H  H20  1  0.37000000  0.18880000  0.26060000  1
  H  H21  1  0.43350000  0.78330000  0.82790000  1
  H  H22  1  0.44160000  0.09870000  0.61290000  1
  H  H23  1  0.45640000  0.99910000  0.69050000  1
  H  H24  1  0.54360000  0.00090000  0.30950000  1
  H  H25  1  0.55840000  0.90130000  0.38710000  1
  H  H26  1  0.56650000  0.21670000  0.17210000  1
  H  H27  1  0.63000000  0.81120000  0.73940000  1
  H  H28  1  0.69560000  0.23010000  0.36790000  1
  H  H29  1  0.70640000  0.73010000  0.86790000  1
  H  H30  1  0.73200000  0.73010000  0.66590000  1
  H  H31  1  0.76630000  0.64280000  0.79640000  1
  H  H32  1  0.79450000  0.14280000  0.29640000  1
  H  H33  1  0.81940000  0.31120000  0.23940000  1
  H  H34  1  0.84680000  0.59870000  0.11290000  1
  H  H35  1  0.85400000  0.49910000  0.19050000  1
  H  H36  1  0.86550000  0.28970000  0.83810000  1
  H  H37  1  0.86560000  0.38760000  0.75960000  1
  H  H38  1  0.87130000  0.92030000  0.17830000  1
  H  H39  1  0.87200000  0.23010000  0.16590000  1
  H  H40  1  0.95530000  0.28330000  0.32790000  1
  H  H41  1  0.96990000  0.57970000  0.32170000  1
  H  H42  1  0.98720000  0.88760000  0.25960000  1
  H  H43  1  0.99330000  0.21030000  0.66190000  1
  C  C44  1  0.00520000  0.45510000  0.77630000  1
  C  C45  1  0.01130000  0.33490000  0.87110000  1
  C  C46  1  0.01160000  0.60830000  0.72250000  1
  C  C47  1  0.01230000  0.51710000  0.72450000  1
  C  C48  1  0.01770000  0.27020000  0.92180000  1
  C  C49  1  0.02070000  0.34260000  0.22900000  1
  C  C50  1  0.03190000  0.48070000  0.67690000  1
  C  C51  1  0.03950000  0.65710000  0.67310000  1
  C  C52  1  0.05390000  0.74520000  0.82660000  1
  C  C53  1  0.05420000  0.53040000  0.62680000  1
  C  C54  1  0.06050000  0.62070000  0.62470000  1
  C  C55  1  0.07500000  0.48540000  0.57680000  1
  C  C56  1  0.07650000  0.66840000  0.16760000  1
  C  C57  1  0.07720000  0.60900000  0.21440000  1
  C  C58  1  0.08590000  0.69570000  0.78250000  1
  C  C59  1  0.08630000  0.67910000  0.57290000  1
  C  C60  1  0.08720000  0.24240000  0.14060000  1
  C  C61  1  0.08750000  0.16840000  0.66760000  1
  C  C62  1  0.09000000  0.45810000  0.81490000  1
  C  C63  1  0.09400000  0.39830000  0.86170000  1
  C  C64  1  0.09940000  0.10900000  0.71440000  1
  C  C65  1  0.11710000  0.19170000  0.09310000  1
  C  C66  1  0.13720000  0.01460000  0.92320000  1
  C  C67  1  0.16140000  0.33070000  0.19650000  1
  C  C68  1  0.18950000  0.01930000  0.82310000  1
  C  C69  1  0.19680000  0.27940000  0.15280000  1
  C  C70  1  0.20970000  0.22980000  0.57820000  1
  C  C71  1  0.21140000  0.96960000  0.87320000  1
  C  C72  1  0.21730000  0.16510000  0.62890000  1
  C  C73  1  0.23660000  0.04490000  0.72370000  1
  C  C74  1  0.25390000  0.98290000  0.77550000  1
  C  C75  1  0.30590000  0.87930000  0.87530000  1
  C  C76  1  0.31140000  0.83070000  0.69650000  1
  C  C77  1  0.33830000  0.82090000  0.92710000  1
  C  C78  1  0.34240000  0.89170000  0.77750000  1
  C  C79  1  0.35400000  0.10170000  0.63830000  1
  C  C80  1  0.36300000  0.04190000  0.68510000  1
  C  C81  1  0.36970000  0.84290000  0.82690000  1
  C  C82  1  0.37100000  0.77940000  0.65280000  1
  C  C83  1  0.37430000  0.24520000  0.32660000  1
  C  C84  1  0.40190000  0.30830000  0.40690000  1
  C  C85  1  0.40770000  0.84260000  0.72900000  1
  C  C86  1  0.43590000  0.19570000  0.28250000  1
  C  C87  1  0.47020000  0.25760000  0.35940000  1
  C  C88  1  0.52980000  0.74240000  0.64060000  1
  C  C89  1  0.56410000  0.80430000  0.71750000  1
  C  C90  1  0.59230000  0.15740000  0.27100000  1
  C  C91  1  0.59810000  0.69170000  0.59310000  1
  C  C92  1  0.62570000  0.75480000  0.67340000  1
  C  C93  1  0.62900000  0.22060000  0.34720000  1
  C  C94  1  0.63030000  0.15710000  0.17310000  1
  C  C95  1  0.63700000  0.95810000  0.31490000  1
  C  C96  1  0.64600000  0.89830000  0.36170000  1
  C  C97  1  0.65760000  0.10830000  0.22250000  1
  C  C98  1  0.66170000  0.17910000  0.07290000  1
  C  C99  1  0.68860000  0.16930000  0.30350000  1
  C  C100  1  0.69410000  0.12070000  0.12470000  1
  C  C101  1  0.74610000  0.01710000  0.22450000  1
  C  C102  1  0.76340000  0.95510000  0.27630000  1
  C  C103  1  0.78270000  0.83490000  0.37110000  1
  C  C104  1  0.78860000  0.03040000  0.12680000  1
  C  C105  1  0.79030000  0.77020000  0.42180000  1
  C  C106  1  0.80320000  0.72060000  0.84720000  1
  C  C107  1  0.81050000  0.98070000  0.17690000  1
  C  C108  1  0.83860000  0.66930000  0.80350000  1
  C  C109  1  0.86280000  0.98540000  0.07680000  1
  C  C110  1  0.88290000  0.80830000  0.90690000  1
  C  C111  1  0.90060000  0.89100000  0.28560000  1
  C  C112  1  0.90600000  0.60170000  0.13830000  1
  C  C113  1  0.91000000  0.54190000  0.18510000  1
  C  C114  1  0.91250000  0.83160000  0.33240000  1
  C  C115  1  0.91280000  0.75760000  0.85940000  1
  C  C116  1  0.91370000  0.32090000  0.42710000  1
  C  C117  1  0.91410000  0.30430000  0.21750000  1
  C  C118  1  0.92280000  0.39100000  0.78560000  1
  C  C119  1  0.92350000  0.33160000  0.83240000  1
  C  C120  1  0.92500000  0.51460000  0.42320000  1
  C  C121  1  0.93950000  0.37930000  0.37530000  1
  C  C122  1  0.94580000  0.46960000  0.37320000  1
  C  C123  1  0.94610000  0.25480000  0.17340000  1
  C  C124  1  0.96050000  0.34290000  0.32690000  1
  C  C125  1  0.96810000  0.51930000  0.32310000  1
  C  C126  1  0.97930000  0.65740000  0.77100000  1
  C  C127  1  0.98230000  0.72980000  0.07820000  1
  C  C128  1  0.98770000  0.48290000  0.27550000  1
  C  C129  1  0.98840000  0.39170000  0.27750000  1
  C  C130  1  0.98870000  0.66510000  0.12890000  1
  C  C131  1  0.99480000  0.54490000  0.22370000  1
  O  O132  1  0.00172000  0.81548000  0.92248000  1
  O  O133  1  0.00289000  0.98228000  0.05874000  1
  O  O134  1  0.04391000  0.51772000  0.44126000  1
  O  O135  1  0.07093000  0.65163000  0.52951000  1
  O  O136  1  0.07727000  0.27719000  0.56687000  1
  O  O137  1  0.07867000  0.77719000  0.06687000  1
  O  O138  1  0.11620000  0.26310000  0.95150000  1
  O  O139  1  0.11990000  0.75133000  0.57247000  1
  O  O140  1  0.21098000  0.44707000  0.55677000  1
  O  O141  1  0.21482000  0.05293000  0.94323000  1
  O  O142  1  0.25200000  0.15960000  0.07100000  1
  O  O143  1  0.25207000  0.84837000  0.97049000  1
  O  O144  1  0.26032000  0.31548000  0.42248000  1
  O  O145  1  0.33080000  0.23690000  0.54850000  1
  O  O146  1  0.44370000  0.74867000  0.92753000  1
  O  O147  1  0.48260000  0.34040000  0.42900000  1
  O  O148  1  0.51740000  0.65960000  0.57100000  1
  O  O149  1  0.55630000  0.25133000  0.07247000  1
  O  O150  1  0.66920000  0.76310000  0.45150000  1
  O  O151  1  0.73968000  0.68452000  0.57752000  1
  O  O152  1  0.74793000  0.15163000  0.02951000  1
  O  O153  1  0.74800000  0.84040000  0.92900000  1
  O  O154  1  0.78518000  0.94707000  0.05677000  1
  O  O155  1  0.78902000  0.55293000  0.44323000  1
  O  O156  1  0.88010000  0.24867000  0.42753000  1
  O  O157  1  0.88380000  0.73690000  0.04850000  1
  O  O158  1  0.92133000  0.22281000  0.93313000  1
  O  O159  1  0.92273000  0.72281000  0.43313000  1
  O  O160  1  0.92907000  0.34837000  0.47049000  1
  O  O161  1  0.95609000  0.48228000  0.55874000  1
  O  O162  1  0.99711000  0.01772000  0.94126000  1
  O  O163  1  0.99828000  0.18452000  0.07752000  1
