# generated using pymatgen
data_CdH18C28(NO)4
_symmetry_space_group_name_H-M   'P 1'
_cell_length_a   8.94500000
_cell_length_b   14.85600000
_cell_length_c   19.86100000
_cell_angle_alpha   91.64400000
_cell_angle_beta   101.97400000
_cell_angle_gamma   93.75500000
_symmetry_Int_Tables_number   1
_chemical_formula_structural   CdH18C28(NO)4
_chemical_formula_sum   'Cd3 H54 C84 N12 O12'
_cell_volume   2573.88152239
_cell_formula_units_Z   3
loop_
 _symmetry_equiv_pos_site_id
 _symmetry_equiv_pos_as_xyz
  1  'x, y, z'
loop_
 _atom_site_type_symbol
 _atom_site_label
 _atom_site_symmetry_multiplicity
 _atom_site_fract_x
 _atom_site_fract_y
 _atom_site_fract_z
 _atom_site_occupancy
  Cd  Cd0  1  0.00000000  0.50000000  0.00000000  1
  Cd  Cd1  1  0.04019000  0.97948000  0.72817000  1
  Cd  Cd2  1  0.95981000  0.02052000  0.27183000  1
  H  H3  1  0.01170000  0.27000000  0.43830000  1
  H  H4  1  0.05010000  0.60340000  0.50710000  1
  H  H5  1  0.07590000  0.10220000  0.12200000  1
  H  H6  1  0.11100000  0.07680000  0.89320000  1
  H  H7  1  0.13550000  0.27230000  0.22420000  1
  H  H8  1  0.19260000  0.27910000  0.34250000  1
  H  H9  1  0.20360000  0.53940000  0.44120000  1
  H  H10  1  0.23460000  0.84300000  0.43220000  1
  H  H11  1  0.23920000  0.67520000  0.99360000  1
  H  H12  1  0.25720000  0.06510000  0.03300000  1
  H  H13  1  0.26110000  0.53660000  0.22340000  1
  H  H14  1  0.28520000  0.44020000  0.91220000  1
  H  H15  1  0.31250000  0.54360000  0.34170000  1
  H  H16  1  0.32250000  0.09490000  0.30860000  1
  H  H17  1  0.36710000  0.71910000  0.70830000  1
  H  H18  1  0.38520000  0.43990000  0.62270000  1
  H  H19  1  0.39010000  0.74410000  0.49380000  1
  H  H20  1  0.39200000  0.30160000  0.44720000  1
  H  H21  1  0.40290000  0.78690000  0.26620000  1
  H  H22  1  0.41280000  0.01460000  0.78590000  1
  H  H23  1  0.43390000  0.59640000  0.65170000  1
  H  H24  1  0.43450000  0.30870000  0.67100000  1
  H  H25  1  0.44450000  0.91030000  0.10690000  1
  H  H26  1  0.46700000  0.28460000  0.14680000  1
  H  H27  1  0.49400000  0.15320000  0.23700000  1
  H  H28  1  0.49880000  0.54120000  0.89470000  1
  H  H29  1  0.49980000  0.25310000  0.94860000  1
  H  H30  1  0.50020000  0.74690000  0.05140000  1
  H  H31  1  0.50120000  0.45880000  0.10530000  1
  H  H32  1  0.50600000  0.84680000  0.76300000  1
  H  H33  1  0.53300000  0.71540000  0.85320000  1
  H  H34  1  0.55550000  0.08970000  0.89310000  1
  H  H35  1  0.56550000  0.69130000  0.32900000  1
  H  H36  1  0.56610000  0.40360000  0.34830000  1
  H  H37  1  0.58720000  0.98540000  0.21410000  1
  H  H38  1  0.59710000  0.21310000  0.73380000  1
  H  H39  1  0.60800000  0.69840000  0.55280000  1
  H  H40  1  0.60990000  0.25590000  0.50620000  1
  H  H41  1  0.61480000  0.56010000  0.37730000  1
  H  H42  1  0.63290000  0.28090000  0.29170000  1
  H  H43  1  0.67750000  0.90510000  0.69140000  1
  H  H44  1  0.68750000  0.45640000  0.65830000  1
  H  H45  1  0.71480000  0.55980000  0.08780000  1
  H  H46  1  0.73890000  0.46340000  0.77660000  1
  H  H47  1  0.74280000  0.93490000  0.96700000  1
  H  H48  1  0.76080000  0.32480000  0.00640000  1
  H  H49  1  0.76540000  0.15700000  0.56780000  1
  H  H50  1  0.79640000  0.46060000  0.55880000  1
  H  H51  1  0.80740000  0.72090000  0.65750000  1
  H  H52  1  0.86450000  0.72770000  0.77580000  1
  H  H53  1  0.88900000  0.92320000  0.10680000  1
  H  H54  1  0.92410000  0.89780000  0.87800000  1
  H  H55  1  0.94990000  0.39660000  0.49290000  1
  H  H56  1  0.98830000  0.73000000  0.56170000  1
  C  C57  1  0.07740000  0.70270000  0.58039000  1
  C  C58  1  0.11520000  0.62680000  0.54740000  1
  C  C59  1  0.12980000  0.82080000  0.67790000  1
  C  C60  1  0.14220000  0.39960000  0.13313000  1
  C  C61  1  0.15810000  0.10750000  0.15962000  1
  C  C62  1  0.17090000  0.32710000  0.24768000  1
  C  C63  1  0.17150000  0.73860000  0.64131000  1
  C  C64  1  0.18630000  0.88500000  0.30190000  1
  C  C65  1  0.18910000  0.40390000  0.21056000  1
  C  C66  1  0.20330000  0.07060000  0.87959000  1
  C  C67  1  0.20460000  0.33120000  0.31876000  1
  C  C68  1  0.24510000  0.48490000  0.24712000  1
  C  C69  1  0.24830000  0.58480000  0.57316000  1
  C  C70  1  0.25350000  0.49430000  0.46647000  1
  C  C71  1  0.25630000  0.41250000  0.35518000  1
  C  C72  1  0.27680000  0.48890000  0.31811000  1
  C  C73  1  0.27680000  0.62860000  0.97112000  1
  C  C74  1  0.28860000  0.50340000  0.53790000  1
  C  C75  1  0.29130000  0.41920000  0.43187000  1
  C  C76  1  0.29450000  0.10400000  0.26168000  1
  C  C77  1  0.29990000  0.81190000  0.41080000  1
  C  C78  1  0.30030000  0.82560000  0.34222000  1
  C  C79  1  0.30250000  0.50080000  0.92650000  1
  C  C80  1  0.30350000  0.69660000  0.66731000  1
  C  C81  1  0.31690000  0.11940000  0.03675000  1
  C  C82  1  0.34290000  0.62220000  0.63375000  1
  C  C83  1  0.35280000  0.17100000  0.09773000  1
  C  C84  1  0.36370000  0.43530000  0.57479000  1
  C  C85  1  0.36750000  0.35240000  0.46997000  1
  C  C86  1  0.36990000  0.03680000  0.82130000  1
  C  C87  1  0.37350000  0.15180000  0.98124000  1
  C  C88  1  0.39020000  0.13590000  0.22258000  1
  C  C89  1  0.39470000  0.75290000  0.44803000  1
  C  C90  1  0.40060000  0.77910000  0.31226000  1
  C  C91  1  0.40760000  0.36050000  0.54163000  1
  C  C92  1  0.42110000  0.55590000  0.91690000  1
  C  C93  1  0.44350000  0.25140000  0.10507000  1
  C  C94  1  0.44970000  0.07830000  0.88020000  1
  C  C95  1  0.46340000  0.23220000  0.98636000  1
  C  C96  1  0.49630000  0.70650000  0.41882000  1
  C  C97  1  0.49790000  0.72100000  0.35010000  1
  C  C98  1  0.49810000  0.28110000  0.04897000  1
  C  C99  1  0.50190000  0.71890000  0.95103000  1
  C  C100  1  0.50210000  0.27900000  0.64990000  1
  C  C101  1  0.50370000  0.29350000  0.58118000  1
  C  C102  1  0.53660000  0.76780000  0.01364000  1
  C  C103  1  0.55030000  0.92170000  0.11980000  1
  C  C104  1  0.55650000  0.74860000  0.89493000  1
  C  C105  1  0.57890000  0.44410000  0.08310000  1
  C  C106  1  0.59240000  0.63950000  0.45837000  1
  C  C107  1  0.59940000  0.22090000  0.68774000  1
  C  C108  1  0.60530000  0.24710000  0.55197000  1
  C  C109  1  0.60980000  0.86410000  0.77742000  1
  C  C110  1  0.62650000  0.84820000  0.01876000  1
  C  C111  1  0.63010000  0.96320000  0.17870000  1
  C  C112  1  0.63250000  0.64760000  0.53003000  1
  C  C113  1  0.63630000  0.56470000  0.42521000  1
  C  C114  1  0.64720000  0.82900000  0.90227000  1
  C  C115  1  0.65710000  0.37780000  0.36625000  1
  C  C116  1  0.68310000  0.88060000  0.96325000  1
  C  C117  1  0.69650000  0.30340000  0.33269000  1
  C  C118  1  0.69750000  0.49920000  0.07350000  1
  C  C119  1  0.69970000  0.17440000  0.65778000  1
  C  C120  1  0.70010000  0.18810000  0.58920000  1
  C  C121  1  0.70550000  0.89600000  0.73832000  1
  C  C122  1  0.70870000  0.58080000  0.56813000  1
  C  C123  1  0.71140000  0.49660000  0.46210000  1
  C  C124  1  0.72320000  0.37140000  0.02888000  1
  C  C125  1  0.72320000  0.51110000  0.68189000  1
  C  C126  1  0.74370000  0.58750000  0.64482000  1
  C  C127  1  0.74650000  0.50570000  0.53353000  1
  C  C128  1  0.75170000  0.41520000  0.42684000  1
  C  C129  1  0.75490000  0.51510000  0.75288000  1
  C  C130  1  0.79540000  0.66880000  0.68124000  1
  C  C131  1  0.79670000  0.92940000  0.12041000  1
  C  C132  1  0.81090000  0.59610000  0.78944000  1
  C  C133  1  0.81370000  0.11500000  0.69810000  1
  C  C134  1  0.82850000  0.26140000  0.35869000  1
  C  C135  1  0.82910000  0.67290000  0.75232000  1
  C  C136  1  0.84190000  0.89250000  0.84038000  1
  C  C137  1  0.85780000  0.60040000  0.86687000  1
  C  C138  1  0.87020000  0.17920000  0.32210000  1
  C  C139  1  0.88480000  0.37320000  0.45260000  1
  C  C140  1  0.92260000  0.29730000  0.41961000  1
  N  N141  1  0.14910000  0.08661000  0.22215000  1
  N  N142  1  0.21110000  0.54700000  0.96044000  1
  N  N143  1  0.21550000  0.03200000  0.82109000  1
  N  N144  1  0.30290000  0.13790000  0.15669000  1
  N  N145  1  0.34200000  0.10060000  0.91763000  1
  N  N146  1  0.40420000  0.63780000  0.94616000  1
  N  N147  1  0.59580000  0.36220000  0.05384000  1
  N  N148  1  0.65800000  0.89940000  0.08237000  1
  N  N149  1  0.69710000  0.86210000  0.84331000  1
  N  N150  1  0.78450000  0.96800000  0.17891000  1
  N  N151  1  0.78890000  0.45300000  0.03956000  1
  N  N152  1  0.85090000  0.91339000  0.77785000  1
  O  O153  1  0.01890000  0.86181000  0.64781000  1
  O  O154  1  0.08510000  0.32639000  0.10330000  1
  O  O155  1  0.13360000  0.94224000  0.33649000  1
  O  O156  1  0.14900000  0.87443000  0.23842000  1
  O  O157  1  0.16020000  0.47301000  0.10330000  1
  O  O158  1  0.20780000  0.84482000  0.73636000  1
  O  O159  1  0.79220000  0.15518000  0.26364000  1
  O  O160  1  0.83980000  0.52699000  0.89670000  1
  O  O161  1  0.85100000  0.12557000  0.76158000  1
  O  O162  1  0.86640000  0.05776000  0.66351000  1
  O  O163  1  0.91490000  0.67361000  0.89670000  1
  O  O164  1  0.98110000  0.13819000  0.35219000  1
