# generated using pymatgen
data_V9P17H26O57
_symmetry_space_group_name_H-M   'P 1'
_cell_length_a   13.41250000
_cell_length_b   13.41250000
_cell_length_c   27.80030000
_cell_angle_alpha   90.00000000
_cell_angle_beta   90.00000000
_cell_angle_gamma   120.00000000
_symmetry_Int_Tables_number   1
_chemical_formula_structural   V9P17H26O57
_chemical_formula_sum   'V18 P34 H52 O114'
_cell_volume   4331.11369231
_cell_formula_units_Z   2
loop_
 _symmetry_equiv_pos_site_id
 _symmetry_equiv_pos_as_xyz
  1  'x, y, z'
loop_
 _atom_site_type_symbol
 _atom_site_label
 _atom_site_symmetry_multiplicity
 _atom_site_fract_x
 _atom_site_fract_y
 _atom_site_fract_z
 _atom_site_occupancy
  V  V0  1  0.00000000  0.00000000  0.00000000  1
  V  V1  1  0.00000000  0.00000000  0.83571000  1
  V  V2  1  0.00000000  0.00000000  0.66429000  1
  V  V3  1  0.00000000  0.00000000  0.50000000  1
  V  V4  1  0.00000000  0.00000000  0.33571000  1
  V  V5  1  0.00000000  0.00000000  0.16429000  1
  V  V6  1  0.85685000  0.29251000  0.47314000  1
  V  V7  1  0.85685000  0.29251000  0.02686000  1
  V  V8  1  0.70749000  0.56434000  0.47314000  1
  V  V9  1  0.70749000  0.56434000  0.02686000  1
  V  V10  1  0.56434000  0.85685000  0.97314000  1
  V  V11  1  0.56434000  0.85685000  0.52686000  1
  V  V12  1  0.43566000  0.14315000  0.47314000  1
  V  V13  1  0.43566000  0.14315000  0.02686000  1
  V  V14  1  0.29251000  0.43566000  0.97314000  1
  V  V15  1  0.29251000  0.43566000  0.52686000  1
  V  V16  1  0.14315000  0.70749000  0.97314000  1
  V  V17  1  0.14315000  0.70749000  0.52686000  1
  P  P18  1  0.97533000  0.16281000  0.41596000  1
  P  P19  1  0.97533000  0.16281000  0.08404000  1
  P  P20  1  0.93406000  0.80879000  0.75000000  1
  P  P21  1  0.87473000  0.06594000  0.75000000  1
  P  P22  1  0.87310000  0.50334000  0.96386000  1
  P  P23  1  0.87310000  0.50334000  0.53614000  1
  P  P24  1  0.83719000  0.81252000  0.41596000  1
  P  P25  1  0.83719000  0.81252000  0.08404000  1
  P  P26  1  0.81252000  0.97533000  0.91596000  1
  P  P27  1  0.81252000  0.97533000  0.58404000  1
  P  P28  1  0.80879000  0.87473000  0.25000000  1
  P  P29  1  0.66666667  0.33333333  0.41038000  1
  P  P30  1  0.66666667  0.33333333  0.08962000  1
  P  P31  1  0.63024000  0.12690000  0.96386000  1
  P  P32  1  0.63024000  0.12690000  0.53614000  1
  P  P33  1  0.50334000  0.63024000  0.46386000  1
  P  P34  1  0.50334000  0.63024000  0.03614000  1
  P  P35  1  0.49666000  0.36976000  0.96386000  1
  P  P36  1  0.49666000  0.36976000  0.53614000  1
  P  P37  1  0.36976000  0.87310000  0.46386000  1
  P  P38  1  0.36976000  0.87310000  0.03614000  1
  P  P39  1  0.33333333  0.66666667  0.91038000  1
  P  P40  1  0.33333333  0.66666667  0.58962000  1
  P  P41  1  0.19121000  0.12527000  0.75000000  1
  P  P42  1  0.18748000  0.02467000  0.41596000  1
  P  P43  1  0.18748000  0.02467000  0.08404000  1
  P  P44  1  0.16281000  0.18748000  0.91596000  1
  P  P45  1  0.16281000  0.18748000  0.58404000  1
  P  P46  1  0.12690000  0.49666000  0.46386000  1
  P  P47  1  0.12690000  0.49666000  0.03614000  1
  P  P48  1  0.12527000  0.93406000  0.25000000  1
  P  P49  1  0.06594000  0.19121000  0.25000000  1
  P  P50  1  0.02467000  0.83719000  0.91596000  1
  P  P51  1  0.02467000  0.83719000  0.58404000  1
  H  H52  1  0.96400000  0.19400000  0.25000000  1
  H  H53  1  0.94000000  0.74100000  0.89610000  1
  H  H54  1  0.94000000  0.74100000  0.60390000  1
  H  H55  1  0.93500000  0.19000000  0.97300000  1
  H  H56  1  0.93500000  0.19000000  0.52700000  1
  H  H57  1  0.88530000  0.64440000  0.75000000  1
  H  H58  1  0.83500000  0.50900000  0.91980000  1
  H  H59  1  0.83500000  0.50900000  0.58020000  1
  H  H60  1  0.81000000  0.74500000  0.97300000  1
  H  H61  1  0.81000000  0.74500000  0.52700000  1
  H  H62  1  0.80600000  0.77000000  0.25000000  1
  H  H63  1  0.80100000  0.06000000  0.89610000  1
  H  H64  1  0.80100000  0.06000000  0.60390000  1
  H  H65  1  0.77000000  0.96400000  0.75000000  1
  H  H66  1  0.75910000  0.11470000  0.75000000  1
  H  H67  1  0.74500000  0.93500000  0.47300000  1
  H  H68  1  0.74500000  0.93500000  0.02700000  1
  H  H69  1  0.74100000  0.80100000  0.39610000  1
  H  H70  1  0.74100000  0.80100000  0.10390000  1
  H  H71  1  0.67400000  0.16500000  0.91980000  1
  H  H72  1  0.67400000  0.16500000  0.58020000  1
  H  H73  1  0.66666667  0.33333333  0.36160000  1
  H  H74  1  0.66666667  0.33333333  0.13840000  1
  H  H75  1  0.64440000  0.75910000  0.25000000  1
  H  H76  1  0.50900000  0.67400000  0.41980000  1
  H  H77  1  0.50900000  0.67400000  0.08020000  1
  H  H78  1  0.49100000  0.32600000  0.91980000  1
  H  H79  1  0.49100000  0.32600000  0.58020000  1
  H  H80  1  0.35560000  0.24090000  0.75000000  1
  H  H81  1  0.33333333  0.66666667  0.86160000  1
  H  H82  1  0.33333333  0.66666667  0.63840000  1
  H  H83  1  0.32600000  0.83500000  0.41980000  1
  H  H84  1  0.32600000  0.83500000  0.08020000  1
  H  H85  1  0.25900000  0.19900000  0.89610000  1
  H  H86  1  0.25900000  0.19900000  0.60390000  1
  H  H87  1  0.25500000  0.06500000  0.97300000  1
  H  H88  1  0.25500000  0.06500000  0.52700000  1
  H  H89  1  0.24090000  0.88530000  0.25000000  1
  H  H90  1  0.23000000  0.03600000  0.25000000  1
  H  H91  1  0.19900000  0.94000000  0.39610000  1
  H  H92  1  0.19900000  0.94000000  0.10390000  1
  H  H93  1  0.19400000  0.23000000  0.75000000  1
  H  H94  1  0.19000000  0.25500000  0.47300000  1
  H  H95  1  0.19000000  0.25500000  0.02700000  1
  H  H96  1  0.16500000  0.49100000  0.41980000  1
  H  H97  1  0.16500000  0.49100000  0.08020000  1
  H  H98  1  0.11470000  0.35560000  0.25000000  1
  H  H99  1  0.06500000  0.81000000  0.47300000  1
  H  H100  1  0.06500000  0.81000000  0.02700000  1
  H  H101  1  0.06000000  0.25900000  0.39610000  1
  H  H102  1  0.06000000  0.25900000  0.10390000  1
  H  H103  1  0.03600000  0.80600000  0.75000000  1
  O  O104  1  0.99950000  0.56920000  0.95009000  1
  O  O105  1  0.99950000  0.56920000  0.54991000  1
  O  O106  1  0.97140000  0.86360000  0.95950000  1
  O  O107  1  0.97140000  0.86360000  0.54050000  1
  O  O108  1  0.94740000  0.25800000  0.97394000  1
  O  O109  1  0.94740000  0.25800000  0.52606000  1
  O  O110  1  0.93950000  0.08070000  0.79553000  1
  O  O111  1  0.93950000  0.08070000  0.70447000  1
  O  O112  1  0.92960000  0.07130000  0.37751000  1
  O  O113  1  0.92960000  0.07130000  0.12249000  1
  O  O114  1  0.92870000  0.85830000  0.37751000  1
  O  O115  1  0.92870000  0.85830000  0.12249000  1
  O  O116  1  0.91930000  0.85880000  0.79553000  1
  O  O117  1  0.91930000  0.85880000  0.70447000  1
  O  O118  1  0.89220000  0.02860000  0.95950000  1
  O  O119  1  0.89220000  0.02860000  0.54050000  1
  O  O120  1  0.87960000  0.18660000  0.43020000  1
  O  O121  1  0.87960000  0.18660000  0.06980000  1
  O  O122  1  0.86360000  0.89220000  0.45950000  1
  O  O123  1  0.86360000  0.89220000  0.04050000  1
  O  O124  1  0.85880000  0.93950000  0.29553000  1
  O  O125  1  0.85880000  0.93950000  0.20447000  1
  O  O126  1  0.85830000  0.92960000  0.87751000  1
  O  O127  1  0.85830000  0.92960000  0.62249000  1
  O  O128  1  0.84980000  0.56680000  0.49623000  1
  O  O129  1  0.84980000  0.56680000  0.00377000  1
  O  O130  1  0.84940000  0.67910000  0.75000000  1
  O  O131  1  0.83180000  0.37890000  0.97567000  1
  O  O132  1  0.83180000  0.37890000  0.52433000  1
  O  O133  1  0.82970000  0.15060000  0.75000000  1
  O  O134  1  0.81340000  0.69300000  0.43020000  1
  O  O135  1  0.81340000  0.69300000  0.06980000  1
  O  O136  1  0.77260000  0.32600000  0.42408000  1
  O  O137  1  0.77260000  0.32600000  0.07592000  1
  O  O138  1  0.74200000  0.68940000  0.97394000  1
  O  O139  1  0.74200000  0.68940000  0.52606000  1
  O  O140  1  0.71700000  0.15020000  0.49623000  1
  O  O141  1  0.71700000  0.15020000  0.00377000  1
  O  O142  1  0.69300000  0.87960000  0.93020000  1
  O  O143  1  0.69300000  0.87960000  0.56980000  1
  O  O144  1  0.68940000  0.94740000  0.47394000  1
  O  O145  1  0.68940000  0.94740000  0.02606000  1
  O  O146  1  0.67910000  0.82970000  0.25000000  1
  O  O147  1  0.67400000  0.44660000  0.42408000  1
  O  O148  1  0.67400000  0.44660000  0.07592000  1
  O  O149  1  0.62110000  0.45290000  0.97567000  1
  O  O150  1  0.62110000  0.45290000  0.52433000  1
  O  O151  1  0.56970000  0.00050000  0.95009000  1
  O  O152  1  0.56970000  0.00050000  0.54991000  1
  O  O153  1  0.56920000  0.56970000  0.45009000  1
  O  O154  1  0.56920000  0.56970000  0.04991000  1
  O  O155  1  0.56680000  0.71700000  0.99623000  1
  O  O156  1  0.56680000  0.71700000  0.50377000  1
  O  O157  1  0.55340000  0.22740000  0.42408000  1
  O  O158  1  0.55340000  0.22740000  0.07592000  1
  O  O159  1  0.54710000  0.16820000  0.97567000  1
  O  O160  1  0.54710000  0.16820000  0.52433000  1
  O  O161  1  0.45290000  0.83180000  0.47567000  1
  O  O162  1  0.45290000  0.83180000  0.02433000  1
  O  O163  1  0.44660000  0.77260000  0.92408000  1
  O  O164  1  0.44660000  0.77260000  0.57592000  1
  O  O165  1  0.43320000  0.28300000  0.49623000  1
  O  O166  1  0.43320000  0.28300000  0.00377000  1
  O  O167  1  0.43080000  0.43030000  0.95009000  1
  O  O168  1  0.43080000  0.43030000  0.54991000  1
  O  O169  1  0.43030000  0.99950000  0.45009000  1
  O  O170  1  0.43030000  0.99950000  0.04991000  1
  O  O171  1  0.37890000  0.54710000  0.47567000  1
  O  O172  1  0.37890000  0.54710000  0.02433000  1
  O  O173  1  0.32600000  0.55340000  0.92408000  1
  O  O174  1  0.32600000  0.55340000  0.57592000  1
  O  O175  1  0.32090000  0.17030000  0.75000000  1
  O  O176  1  0.31060000  0.05260000  0.97394000  1
  O  O177  1  0.31060000  0.05260000  0.52606000  1
  O  O178  1  0.30700000  0.12040000  0.43020000  1
  O  O179  1  0.30700000  0.12040000  0.06980000  1
  O  O180  1  0.28300000  0.84980000  0.99623000  1
  O  O181  1  0.28300000  0.84980000  0.50377000  1
  O  O182  1  0.25800000  0.31060000  0.47394000  1
  O  O183  1  0.25800000  0.31060000  0.02606000  1
  O  O184  1  0.22740000  0.67400000  0.92408000  1
  O  O185  1  0.22740000  0.67400000  0.57592000  1
  O  O186  1  0.18660000  0.30700000  0.93020000  1
  O  O187  1  0.18660000  0.30700000  0.56980000  1
  O  O188  1  0.17030000  0.84940000  0.25000000  1
  O  O189  1  0.16820000  0.62110000  0.47567000  1
  O  O190  1  0.16820000  0.62110000  0.02433000  1
  O  O191  1  0.15060000  0.32090000  0.25000000  1
  O  O192  1  0.15020000  0.43320000  0.99623000  1
  O  O193  1  0.15020000  0.43320000  0.50377000  1
  O  O194  1  0.14170000  0.07040000  0.37751000  1
  O  O195  1  0.14170000  0.07040000  0.12249000  1
  O  O196  1  0.14120000  0.06050000  0.79553000  1
  O  O197  1  0.14120000  0.06050000  0.70447000  1
  O  O198  1  0.13640000  0.10780000  0.95950000  1
  O  O199  1  0.13640000  0.10780000  0.54050000  1
  O  O200  1  0.12040000  0.81340000  0.93020000  1
  O  O201  1  0.12040000  0.81340000  0.56980000  1
  O  O202  1  0.10780000  0.97140000  0.45950000  1
  O  O203  1  0.10780000  0.97140000  0.04050000  1
  O  O204  1  0.08070000  0.14120000  0.29553000  1
  O  O205  1  0.08070000  0.14120000  0.20447000  1
  O  O206  1  0.07130000  0.14170000  0.87751000  1
  O  O207  1  0.07130000  0.14170000  0.62249000  1
  O  O208  1  0.07040000  0.92870000  0.87751000  1
  O  O209  1  0.07040000  0.92870000  0.62249000  1
  O  O210  1  0.06050000  0.91930000  0.29553000  1
  O  O211  1  0.06050000  0.91930000  0.20447000  1
  O  O212  1  0.05260000  0.74200000  0.47394000  1
  O  O213  1  0.05260000  0.74200000  0.02606000  1
  O  O214  1  0.02860000  0.13640000  0.45950000  1
  O  O215  1  0.02860000  0.13640000  0.04050000  1
  O  O216  1  0.00050000  0.43080000  0.45009000  1
  O  O217  1  0.00050000  0.43080000  0.04991000  1
