# generated using pymatgen
data_Zn2H25C39NO7
_symmetry_space_group_name_H-M   'P 1'
_cell_length_a   11.98000000
_cell_length_b   17.98200000
_cell_length_c   18.62500000
_cell_angle_alpha   90.00000000
_cell_angle_beta   90.00000000
_cell_angle_gamma   90.00000000
_symmetry_Int_Tables_number   1
_chemical_formula_structural   Zn2H25C39NO7
_chemical_formula_sum   'Zn8 H100 C156 N4 O28'
_cell_volume   4012.27870500
_cell_formula_units_Z   4
loop_
 _symmetry_equiv_pos_site_id
 _symmetry_equiv_pos_as_xyz
  1  'x, y, z'
loop_
 _atom_site_type_symbol
 _atom_site_label
 _atom_site_symmetry_multiplicity
 _atom_site_fract_x
 _atom_site_fract_y
 _atom_site_fract_z
 _atom_site_occupancy
  Zn  Zn0  1  0.11010000  0.30265000  0.50913000  1
  Zn  Zn1  1  0.11010000  0.80265000  0.49087000  1
  Zn  Zn2  1  0.38990000  0.30265000  0.49087000  1
  Zn  Zn3  1  0.38990000  0.80265000  0.50913000  1
  Zn  Zn4  1  0.61010000  0.19735000  0.49087000  1
  Zn  Zn5  1  0.61010000  0.69735000  0.50913000  1
  Zn  Zn6  1  0.88990000  0.19735000  0.50913000  1
  Zn  Zn7  1  0.88990000  0.69735000  0.49087000  1
  H  H8  1  0.01090000  0.10570000  0.16220000  1
  H  H9  1  0.01090000  0.60570000  0.83780000  1
  H  H10  1  0.05130000  0.01030000  0.42260000  1
  H  H11  1  0.05130000  0.51030000  0.57740000  1
  H  H12  1  0.07170000  0.48850000  0.22770000  1
  H  H13  1  0.07170000  0.98850000  0.77230000  1
  H  H14  1  0.10310000  0.06580000  0.67380000  1
  H  H15  1  0.10310000  0.56580000  0.32620000  1
  H  H16  1  0.11310000  0.33150000  0.85880000  1
  H  H17  1  0.11310000  0.83150000  0.14120000  1
  H  H18  1  0.11570000  0.32990000  0.73580000  1
  H  H19  1  0.11570000  0.82990000  0.26420000  1
  H  H20  1  0.12550000  0.24370000  0.29280000  1
  H  H21  1  0.12550000  0.74370000  0.70720000  1
  H  H22  1  0.14260000  0.30690000  0.96820000  1
  H  H23  1  0.14260000  0.80690000  0.03180000  1
  H  H24  1  0.14470000  0.30510000  0.09100000  1
  H  H25  1  0.14470000  0.80510000  0.90900000  1
  H  H26  1  0.15120000  0.41970000  0.63720000  1
  H  H27  1  0.15120000  0.91970000  0.36280000  1
  H  H28  1  0.20280000  0.15580000  0.61380000  1
  H  H29  1  0.20280000  0.65580000  0.38620000  1
  H  H30  1  0.20910000  0.33740000  0.35730000  1
  H  H31  1  0.20910000  0.83740000  0.64270000  1
  H  H32  1  0.25000000  0.40430000  0.50000000  1
  H  H33  1  0.25000000  0.90430000  0.50000000  1
  H  H34  1  0.29090000  0.33740000  0.64270000  1
  H  H35  1  0.29090000  0.83740000  0.35730000  1
  H  H36  1  0.29720000  0.15580000  0.38620000  1
  H  H37  1  0.29720000  0.65580000  0.61380000  1
  H  H38  1  0.34880000  0.41970000  0.36280000  1
  H  H39  1  0.34880000  0.91970000  0.63720000  1
  H  H40  1  0.35530000  0.30510000  0.90900000  1
  H  H41  1  0.35530000  0.80510000  0.09100000  1
  H  H42  1  0.35740000  0.30690000  0.03180000  1
  H  H43  1  0.35740000  0.80690000  0.96820000  1
  H  H44  1  0.37450000  0.24370000  0.70720000  1
  H  H45  1  0.37450000  0.74370000  0.29280000  1
  H  H46  1  0.38430000  0.32990000  0.26420000  1
  H  H47  1  0.38430000  0.82990000  0.73580000  1
  H  H48  1  0.38690000  0.33150000  0.14120000  1
  H  H49  1  0.38690000  0.83150000  0.85880000  1
  H  H50  1  0.39690000  0.06580000  0.32620000  1
  H  H51  1  0.39690000  0.56580000  0.67380000  1
  H  H52  1  0.42830000  0.48850000  0.77230000  1
  H  H53  1  0.42830000  0.98850000  0.22770000  1
  H  H54  1  0.44870000  0.01030000  0.57740000  1
  H  H55  1  0.44870000  0.51030000  0.42260000  1
  H  H56  1  0.48910000  0.10570000  0.83780000  1
  H  H57  1  0.48910000  0.60570000  0.16220000  1
  H  H58  1  0.51090000  0.39430000  0.83780000  1
  H  H59  1  0.51090000  0.89430000  0.16220000  1
  H  H60  1  0.55130000  0.48970000  0.57740000  1
  H  H61  1  0.55130000  0.98970000  0.42260000  1
  H  H62  1  0.57170000  0.01150000  0.77230000  1
  H  H63  1  0.57170000  0.51150000  0.22770000  1
  H  H64  1  0.60310000  0.43420000  0.32620000  1
  H  H65  1  0.60310000  0.93420000  0.67380000  1
  H  H66  1  0.61310000  0.16850000  0.14120000  1
  H  H67  1  0.61310000  0.66850000  0.85880000  1
  H  H68  1  0.61570000  0.17010000  0.26420000  1
  H  H69  1  0.61570000  0.67010000  0.73580000  1
  H  H70  1  0.62550000  0.25630000  0.70720000  1
  H  H71  1  0.62550000  0.75630000  0.29280000  1
  H  H72  1  0.64260000  0.19310000  0.03180000  1
  H  H73  1  0.64260000  0.69310000  0.96820000  1
  H  H74  1  0.64470000  0.19490000  0.90900000  1
  H  H75  1  0.64470000  0.69490000  0.09100000  1
  H  H76  1  0.65120000  0.08030000  0.36280000  1
  H  H77  1  0.65120000  0.58030000  0.63720000  1
  H  H78  1  0.70280000  0.34420000  0.38620000  1
  H  H79  1  0.70280000  0.84420000  0.61380000  1
  H  H80  1  0.70910000  0.16260000  0.64270000  1
  H  H81  1  0.70910000  0.66260000  0.35730000  1
  H  H82  1  0.75000000  0.09570000  0.50000000  1
  H  H83  1  0.75000000  0.59570000  0.50000000  1
  H  H84  1  0.79090000  0.16260000  0.35730000  1
  H  H85  1  0.79090000  0.66260000  0.64270000  1
  H  H86  1  0.79720000  0.34420000  0.61380000  1
  H  H87  1  0.79720000  0.84420000  0.38620000  1
  H  H88  1  0.84880000  0.08030000  0.63720000  1
  H  H89  1  0.84880000  0.58030000  0.36280000  1
  H  H90  1  0.85530000  0.19490000  0.09100000  1
  H  H91  1  0.85530000  0.69490000  0.90900000  1
  H  H92  1  0.85740000  0.19310000  0.96820000  1
  H  H93  1  0.85740000  0.69310000  0.03180000  1
  H  H94  1  0.87450000  0.25630000  0.29280000  1
  H  H95  1  0.87450000  0.75630000  0.70720000  1
  H  H96  1  0.88430000  0.17010000  0.73580000  1
  H  H97  1  0.88430000  0.67010000  0.26420000  1
  H  H98  1  0.88690000  0.16850000  0.85880000  1
  H  H99  1  0.88690000  0.66850000  0.14120000  1
  H  H100  1  0.89690000  0.43420000  0.67380000  1
  H  H101  1  0.89690000  0.93420000  0.32620000  1
  H  H102  1  0.92830000  0.01150000  0.22770000  1
  H  H103  1  0.92830000  0.51150000  0.77230000  1
  H  H104  1  0.94870000  0.48970000  0.42260000  1
  H  H105  1  0.94870000  0.98970000  0.57740000  1
  H  H106  1  0.98910000  0.39430000  0.16220000  1
  H  H107  1  0.98910000  0.89430000  0.83780000  1
  C  C108  1  0.00000000  0.25000000  0.10500000  1
  C  C109  1  0.00000000  0.25000000  0.64155000  1
  C  C110  1  0.00000000  0.25000000  0.72215000  1
  C  C111  1  0.00000000  0.25000000  0.87350000  1
  C  C112  1  0.00000000  0.25000000  0.95310000  1
  C  C113  1  0.00000000  0.75000000  0.04690000  1
  C  C114  1  0.00000000  0.75000000  0.12650000  1
  C  C115  1  0.00000000  0.75000000  0.27785000  1
  C  C116  1  0.00000000  0.75000000  0.35845000  1
  C  C117  1  0.00000000  0.75000000  0.89500000  1
  C  C118  1  0.03420000  0.38256000  0.20126000  1
  C  C119  1  0.03420000  0.88256000  0.79874000  1
  C  C120  1  0.05090000  0.30884000  0.21982000  1
  C  C121  1  0.05090000  0.80884000  0.78018000  1
  C  C122  1  0.06750000  0.29817000  0.83443000  1
  C  C123  1  0.06750000  0.79817000  0.16557000  1
  C  C124  1  0.06840000  0.29769000  0.76041000  1
  C  C125  1  0.06840000  0.79769000  0.23959000  1
  C  C126  1  0.08440000  0.43921000  0.24050000  1
  C  C127  1  0.08440000  0.93921000  0.75950000  1
  C  C128  1  0.08470000  0.28340000  0.99253000  1
  C  C129  1  0.08470000  0.78340000  0.00747000  1
  C  C130  1  0.08570000  0.28300000  0.06660000  1
  C  C131  1  0.08570000  0.78300000  0.93340000  1
  C  C132  1  0.09800000  0.15069000  0.44770000  1
  C  C133  1  0.09800000  0.65069000  0.55230000  1
  C  C134  1  0.11550000  0.29292000  0.27880000  1
  C  C135  1  0.11550000  0.79292000  0.72120000  1
  C  C136  1  0.12070000  0.02173000  0.40304000  1
  C  C137  1  0.12070000  0.52173000  0.59696000  1
  C  C138  1  0.15310000  0.42307000  0.29836000  1
  C  C139  1  0.15310000  0.92307000  0.70164000  1
  C  C140  1  0.16310000  0.09275000  0.40982000  1
  C  C141  1  0.16310000  0.59275000  0.59018000  1
  C  C142  1  0.16580000  0.34932000  0.31753000  1
  C  C143  1  0.16580000  0.84932000  0.68247000  1
  C  C144  1  0.17260000  0.05418000  0.65460000  1
  C  C145  1  0.17260000  0.55418000  0.34540000  1
  C  C146  1  0.18110000  0.46718000  0.63278000  1
  C  C147  1  0.18110000  0.96718000  0.36722000  1
  C  C148  1  0.21460000  0.48228000  0.33776000  1
  C  C149  1  0.21460000  0.98228000  0.66224000  1
  C  C150  1  0.23260000  0.10836000  0.61880000  1
  C  C151  1  0.23260000  0.60836000  0.38120000  1
  C  C152  1  0.26740000  0.10836000  0.38120000  1
  C  C153  1  0.26740000  0.60836000  0.61880000  1
  C  C154  1  0.28540000  0.48228000  0.66224000  1
  C  C155  1  0.28540000  0.98228000  0.33776000  1
  C  C156  1  0.31890000  0.46718000  0.36722000  1
  C  C157  1  0.31890000  0.96718000  0.63278000  1
  C  C158  1  0.32740000  0.05418000  0.34540000  1
  C  C159  1  0.32740000  0.55418000  0.65460000  1
  C  C160  1  0.33420000  0.34932000  0.68247000  1
  C  C161  1  0.33420000  0.84932000  0.31753000  1
  C  C162  1  0.33690000  0.09275000  0.59018000  1
  C  C163  1  0.33690000  0.59275000  0.40982000  1
  C  C164  1  0.34690000  0.42307000  0.70164000  1
  C  C165  1  0.34690000  0.92307000  0.29836000  1
  C  C166  1  0.37930000  0.02173000  0.59696000  1
  C  C167  1  0.37930000  0.52173000  0.40304000  1
  C  C168  1  0.38450000  0.29292000  0.72120000  1
  C  C169  1  0.38450000  0.79292000  0.27880000  1
  C  C170  1  0.40200000  0.15069000  0.55230000  1
  C  C171  1  0.40200000  0.65069000  0.44770000  1
  C  C172  1  0.41430000  0.28300000  0.93340000  1
  C  C173  1  0.41430000  0.78300000  0.06660000  1
  C  C174  1  0.41530000  0.28340000  0.00747000  1
  C  C175  1  0.41530000  0.78340000  0.99253000  1
  C  C176  1  0.41560000  0.43921000  0.75950000  1
  C  C177  1  0.41560000  0.93921000  0.24050000  1
  C  C178  1  0.43160000  0.29769000  0.23959000  1
  C  C179  1  0.43160000  0.79769000  0.76041000  1
  C  C180  1  0.43250000  0.29817000  0.16557000  1
  C  C181  1  0.43250000  0.79817000  0.83443000  1
  C  C182  1  0.44910000  0.30884000  0.78018000  1
  C  C183  1  0.44910000  0.80884000  0.21982000  1
  C  C184  1  0.46580000  0.38256000  0.79874000  1
  C  C185  1  0.46580000  0.88256000  0.20126000  1
  C  C186  1  0.50000000  0.25000000  0.04690000  1
  C  C187  1  0.50000000  0.25000000  0.12650000  1
  C  C188  1  0.50000000  0.25000000  0.27785000  1
  C  C189  1  0.50000000  0.25000000  0.35845000  1
  C  C190  1  0.50000000  0.25000000  0.89500000  1
  C  C191  1  0.50000000  0.75000000  0.10500000  1
  C  C192  1  0.50000000  0.75000000  0.64155000  1
  C  C193  1  0.50000000  0.75000000  0.72215000  1
  C  C194  1  0.50000000  0.75000000  0.87350000  1
  C  C195  1  0.50000000  0.75000000  0.95310000  1
  C  C196  1  0.53420000  0.11744000  0.79874000  1
  C  C197  1  0.53420000  0.61744000  0.20126000  1
  C  C198  1  0.55090000  0.19116000  0.78018000  1
  C  C199  1  0.55090000  0.69116000  0.21982000  1
  C  C200  1  0.56750000  0.20183000  0.16557000  1
  C  C201  1  0.56750000  0.70183000  0.83443000  1
  C  C202  1  0.56840000  0.20231000  0.23959000  1
  C  C203  1  0.56840000  0.70231000  0.76041000  1
  C  C204  1  0.58440000  0.06079000  0.75950000  1
  C  C205  1  0.58440000  0.56079000  0.24050000  1
  C  C206  1  0.58470000  0.21660000  0.00747000  1
  C  C207  1  0.58470000  0.71660000  0.99253000  1
  C  C208  1  0.58570000  0.21700000  0.93340000  1
  C  C209  1  0.58570000  0.71700000  0.06660000  1
  C  C210  1  0.59800000  0.34931000  0.55230000  1
  C  C211  1  0.59800000  0.84931000  0.44770000  1
  C  C212  1  0.61550000  0.20708000  0.72120000  1
  C  C213  1  0.61550000  0.70708000  0.27880000  1
  C  C214  1  0.62070000  0.47827000  0.59696000  1
  C  C215  1  0.62070000  0.97827000  0.40304000  1
  C  C216  1  0.65310000  0.07693000  0.70164000  1
  C  C217  1  0.65310000  0.57693000  0.29836000  1
  C  C218  1  0.66310000  0.40725000  0.59018000  1
  C  C219  1  0.66310000  0.90725000  0.40982000  1
  C  C220  1  0.66580000  0.15068000  0.68247000  1
  C  C221  1  0.66580000  0.65068000  0.31753000  1
  C  C222  1  0.67260000  0.44582000  0.34540000  1
  C  C223  1  0.67260000  0.94582000  0.65460000  1
  C  C224  1  0.68110000  0.03282000  0.36722000  1
  C  C225  1  0.68110000  0.53282000  0.63278000  1
  C  C226  1  0.71460000  0.01772000  0.66224000  1
  C  C227  1  0.71460000  0.51772000  0.33776000  1
  C  C228  1  0.73260000  0.39164000  0.38120000  1
  C  C229  1  0.73260000  0.89164000  0.61880000  1
  C  C230  1  0.76740000  0.39164000  0.61880000  1
  C  C231  1  0.76740000  0.89164000  0.38120000  1
  C  C232  1  0.78540000  0.01772000  0.33776000  1
  C  C233  1  0.78540000  0.51772000  0.66224000  1
  C  C234  1  0.81890000  0.03282000  0.63278000  1
  C  C235  1  0.81890000  0.53282000  0.36722000  1
  C  C236  1  0.82740000  0.44582000  0.65460000  1
  C  C237  1  0.82740000  0.94582000  0.34540000  1
  C  C238  1  0.83420000  0.15068000  0.31753000  1
  C  C239  1  0.83420000  0.65068000  0.68247000  1
  C  C240  1  0.83690000  0.40725000  0.40982000  1
  C  C241  1  0.83690000  0.90725000  0.59018000  1
  C  C242  1  0.84690000  0.07693000  0.29836000  1
  C  C243  1  0.84690000  0.57693000  0.70164000  1
  C  C244  1  0.87930000  0.47827000  0.40304000  1
  C  C245  1  0.87930000  0.97827000  0.59696000  1
  C  C246  1  0.88450000  0.20708000  0.27880000  1
  C  C247  1  0.88450000  0.70708000  0.72120000  1
  C  C248  1  0.90200000  0.34931000  0.44770000  1
  C  C249  1  0.90200000  0.84931000  0.55230000  1
  C  C250  1  0.91430000  0.21700000  0.06660000  1
  C  C251  1  0.91430000  0.71700000  0.93340000  1
  C  C252  1  0.91530000  0.21660000  0.99253000  1
  C  C253  1  0.91530000  0.71660000  0.00747000  1
  C  C254  1  0.91560000  0.06079000  0.24050000  1
  C  C255  1  0.91560000  0.56079000  0.75950000  1
  C  C256  1  0.93160000  0.20231000  0.76041000  1
  C  C257  1  0.93160000  0.70231000  0.23959000  1
  C  C258  1  0.93250000  0.20183000  0.83443000  1
  C  C259  1  0.93250000  0.70183000  0.16557000  1
  C  C260  1  0.94910000  0.19116000  0.21982000  1
  C  C261  1  0.94910000  0.69116000  0.78018000  1
  C  C262  1  0.96580000  0.11744000  0.20126000  1
  C  C263  1  0.96580000  0.61744000  0.79874000  1
  N  N264  1  0.00000000  0.25000000  0.18067000  1
  N  N265  1  0.00000000  0.75000000  0.81933000  1
  N  N266  1  0.50000000  0.25000000  0.81933000  1
  N  N267  1  0.50000000  0.75000000  0.18067000  1
  O  O268  1  0.00559000  0.13234000  0.47355000  1
  O  O269  1  0.00559000  0.63234000  0.52645000  1
  O  O270  1  0.07694000  0.28439000  0.61068000  1
  O  O271  1  0.07694000  0.78439000  0.38932000  1
  O  O272  1  0.13960000  0.21489000  0.45150000  1
  O  O273  1  0.13960000  0.71489000  0.54850000  1
  O  O274  1  0.25000000  0.35254000  0.50000000  1
  O  O275  1  0.25000000  0.85254000  0.50000000  1
  O  O276  1  0.36040000  0.21489000  0.54850000  1
  O  O277  1  0.36040000  0.71489000  0.45150000  1
  O  O278  1  0.42306000  0.28439000  0.38932000  1
  O  O279  1  0.42306000  0.78439000  0.61068000  1
  O  O280  1  0.49441000  0.13234000  0.52645000  1
  O  O281  1  0.49441000  0.63234000  0.47355000  1
  O  O282  1  0.50559000  0.36766000  0.52645000  1
  O  O283  1  0.50559000  0.86766000  0.47355000  1
  O  O284  1  0.57694000  0.21561000  0.38932000  1
  O  O285  1  0.57694000  0.71561000  0.61068000  1
  O  O286  1  0.63960000  0.28511000  0.54850000  1
  O  O287  1  0.63960000  0.78511000  0.45150000  1
  O  O288  1  0.75000000  0.14746000  0.50000000  1
  O  O289  1  0.75000000  0.64746000  0.50000000  1
  O  O290  1  0.86040000  0.28511000  0.45150000  1
  O  O291  1  0.86040000  0.78511000  0.54850000  1
  O  O292  1  0.92306000  0.21561000  0.61068000  1
  O  O293  1  0.92306000  0.71561000  0.38932000  1
  O  O294  1  0.99441000  0.36766000  0.47355000  1
  O  O295  1  0.99441000  0.86766000  0.52645000  1
