# generated using pymatgen
data_Co2H32C48N11O10
_symmetry_space_group_name_H-M   'P 1'
_cell_length_a   10.07900000
_cell_length_b   14.81700000
_cell_length_c   20.16500000
_cell_angle_alpha   98.57700000
_cell_angle_beta   103.94100000
_cell_angle_gamma   91.75700000
_symmetry_Int_Tables_number   1
_chemical_formula_structural   Co2H32C48N11O10
_chemical_formula_sum   'Co4 H64 C96 N22 O20'
_cell_volume   2883.09478763
_cell_formula_units_Z   2
loop_
 _symmetry_equiv_pos_site_id
 _symmetry_equiv_pos_as_xyz
  1  'x, y, z'
loop_
 _atom_site_type_symbol
 _atom_site_label
 _atom_site_symmetry_multiplicity
 _atom_site_fract_x
 _atom_site_fract_y
 _atom_site_fract_z
 _atom_site_occupancy
  Co  Co0  1  0.10718000  0.62560000  0.65307000  1
  Co  Co1  1  0.13889000  0.33832000  0.20610000  1
  Co  Co2  1  0.86111000  0.66168000  0.79390000  1
  Co  Co3  1  0.89282000  0.37440000  0.34693000  1
  H  H4  1  0.00470000  0.21640000  0.42750000  1
  H  H5  1  0.00490000  0.04620000  0.39690000  1
  H  H6  1  0.01380000  0.00790000  0.85540000  1
  H  H7  1  0.01590000  0.56310000  0.43980000  1
  H  H8  1  0.01610000  0.26050000  0.58350000  1
  H  H9  1  0.01700000  0.85320000  0.86530000  1
  H  H10  1  0.02770000  0.49320000  0.12490000  1
  H  H11  1  0.03620000  0.64940000  0.13570000  1
  H  H12  1  0.09970000  0.76090000  0.11420000  1
  H  H13  1  0.11310000  0.86030000  0.11040000  1
  H  H14  1  0.18490000  0.49910000  0.75260000  1
  H  H15  1  0.21050000  0.36020000  0.77450000  1
  H  H16  1  0.24060000  0.67590000  0.95780000  1
  H  H17  1  0.24330000  0.50590000  0.31390000  1
  H  H18  1  0.25260000  0.66150000  0.33000000  1
  H  H19  1  0.27460000  0.37260000  0.50800000  1
  H  H20  1  0.29780000  0.61830000  0.06170000  1
  H  H21  1  0.30330000  0.78730000  0.72680000  1
  H  H22  1  0.30440000  0.94750000  0.76200000  1
  H  H23  1  0.31820000  0.60600000  0.46980000  1
  H  H24  1  0.31920000  0.72560000  0.08000000  1
  H  H25  1  0.32050000  0.20780000  0.27440000  1
  H  H26  1  0.33590000  0.06120000  0.29410000  1
  H  H27  1  0.34270000  0.41320000  0.62820000  1
  H  H28  1  0.34720000  0.30690000  0.60680000  1
  H  H29  1  0.35330000  0.33100000  0.01820000  1
  H  H30  1  0.39970000  0.65610000  0.79110000  1
  H  H31  1  0.41630000  0.52350000  0.14420000  1
  H  H32  1  0.42940000  0.37380000  0.34110000  1
  H  H33  1  0.45470000  0.79660000  0.19240000  1
  H  H34  1  0.45580000  0.21580000  0.69070000  1
  H  H35  1  0.48250000  0.48900000  0.74250000  1
  H  H36  1  0.51750000  0.51100000  0.25750000  1
  H  H37  1  0.54420000  0.78420000  0.30930000  1
  H  H38  1  0.54530000  0.20340000  0.80760000  1
  H  H39  1  0.57060000  0.62620000  0.65890000  1
  H  H40  1  0.58370000  0.47650000  0.85580000  1
  H  H41  1  0.60030000  0.34390000  0.20890000  1
  H  H42  1  0.64670000  0.66900000  0.98180000  1
  H  H43  1  0.65280000  0.69310000  0.39320000  1
  H  H44  1  0.65730000  0.58680000  0.37180000  1
  H  H45  1  0.66410000  0.93880000  0.70590000  1
  H  H46  1  0.67950000  0.79220000  0.72560000  1
  H  H47  1  0.68080000  0.27440000  0.92000000  1
  H  H48  1  0.68180000  0.39400000  0.53020000  1
  H  H49  1  0.69560000  0.05250000  0.23800000  1
  H  H50  1  0.69670000  0.21270000  0.27320000  1
  H  H51  1  0.70220000  0.38170000  0.93830000  1
  H  H52  1  0.72540000  0.62740000  0.49200000  1
  H  H53  1  0.74740000  0.33850000  0.67000000  1
  H  H54  1  0.75670000  0.49410000  0.68610000  1
  H  H55  1  0.75940000  0.32410000  0.04220000  1
  H  H56  1  0.78950000  0.63980000  0.22550000  1
  H  H57  1  0.81510000  0.50090000  0.24740000  1
  H  H58  1  0.88690000  0.13970000  0.88960000  1
  H  H59  1  0.90030000  0.23910000  0.88580000  1
  H  H60  1  0.96380000  0.35060000  0.86430000  1
  H  H61  1  0.97230000  0.50680000  0.87510000  1
  H  H62  1  0.98300000  0.14680000  0.13470000  1
  H  H63  1  0.98390000  0.73950000  0.41650000  1
  H  H64  1  0.98410000  0.43690000  0.56020000  1
  H  H65  1  0.98620000  0.99210000  0.14460000  1
  H  H66  1  0.99510000  0.95380000  0.60310000  1
  H  H67  1  0.99530000  0.78360000  0.57250000  1
  C  C68  1  0.03100000  0.42170000  0.60230000  1
  C  C69  1  0.04890000  0.31180000  0.61700000  1
  C  C70  1  0.05350000  0.03480000  0.17270000  1
  C  C71  1  0.05500000  0.81410000  0.61300000  1
  C  C72  1  0.05540000  0.12850000  0.16690000  1
  C  C73  1  0.05980000  0.92120000  0.62920000  1
  C  C74  1  0.07560000  0.52750000  0.16680000  1
  C  C75  1  0.07940000  0.62220000  0.17310000  1
  C  C76  1  0.11560000  0.30820000  0.68200000  1
  C  C77  1  0.13080000  0.20740000  0.69570000  1
  C  C78  1  0.14550000  0.67490000  0.23330000  1
  C  C79  1  0.14920000  0.45220000  0.71580000  1
  C  C80  1  0.15050000  0.96040000  0.67670000  1
  C  C81  1  0.15430000  0.06540000  0.69490000  1
  C  C82  1  0.15610000  0.66700000  0.82080000  1
  C  C83  1  0.15660000  0.77390000  0.25110000  1
  C  C84  1  0.16110000  0.01100000  0.22420000  1
  C  C85  1  0.16380000  0.91970000  0.24540000  1
  C  C86  1  0.16530000  0.37100000  0.73080000  1
  C  C87  1  0.18640000  0.36470000  0.37260000  1
  C  C88  1  0.20100000  0.53490000  0.27740000  1
  C  C89  1  0.20720000  0.62840000  0.28720000  1
  C  C90  1  0.23450000  0.82010000  0.70390000  1
  C  C91  1  0.24300000  0.91630000  0.72260000  1
  C  C92  1  0.25160000  0.16440000  0.24880000  1
  C  C93  1  0.26190000  0.07650000  0.26120000  1
  C  C94  1  0.29610000  0.66730000  0.86740000  1
  C  C95  1  0.30460000  0.61180000  0.59780000  1
  C  C96  1  0.31550000  0.67100000  0.93840000  1
  C  C97  1  0.32990000  0.37300000  0.41810000  1
  C  C98  1  0.33520000  0.34010000  0.14820000  1
  C  C99  1  0.34970000  0.37510000  0.48900000  1
  C  C100  1  0.36460000  0.66910000  0.08340000  1
  C  C101  1  0.40150000  0.36260000  0.63080000  1
  C  C102  1  0.40690000  0.61200000  0.49800000  1
  C  C103  1  0.41150000  0.66120000  0.83870000  1
  C  C104  1  0.42420000  0.66170000  0.15760000  1
  C  C105  1  0.42650000  0.61390000  0.56770000  1
  C  C106  1  0.44090000  0.33310000  0.04710000  1
  C  C107  1  0.44240000  0.37710000  0.38860000  1
  C  C108  1  0.44320000  0.57600000  0.17710000  1
  C  C109  1  0.44410000  0.66760000  0.98020000  1
  C  C110  1  0.45950000  0.33710000  0.11880000  1
  C  C111  1  0.46200000  0.35420000  0.70430000  1
  C  C112  1  0.46410000  0.73920000  0.20580000  1
  C  C113  1  0.48020000  0.26820000  0.72380000  1
  C  C114  1  0.48220000  0.38100000  0.53140000  1
  C  C115  1  0.49810000  0.43140000  0.75470000  1
  C  C116  1  0.50190000  0.56860000  0.24530000  1
  C  C117  1  0.51780000  0.61900000  0.46860000  1
  C  C118  1  0.51980000  0.73180000  0.27620000  1
  C  C119  1  0.53590000  0.26080000  0.79420000  1
  C  C120  1  0.53800000  0.64580000  0.29570000  1
  C  C121  1  0.54050000  0.66290000  0.88120000  1
  C  C122  1  0.55590000  0.33240000  0.01980000  1
  C  C123  1  0.55680000  0.42400000  0.82290000  1
  C  C124  1  0.55760000  0.62290000  0.61140000  1
  C  C125  1  0.55910000  0.66690000  0.95290000  1
  C  C126  1  0.57350000  0.38610000  0.43230000  1
  C  C127  1  0.57580000  0.33830000  0.84240000  1
  C  C128  1  0.58850000  0.33880000  0.16130000  1
  C  C129  1  0.59310000  0.38800000  0.50200000  1
  C  C130  1  0.59850000  0.63740000  0.36920000  1
  C  C131  1  0.63540000  0.33090000  0.91660000  1
  C  C132  1  0.65030000  0.62490000  0.51100000  1
  C  C133  1  0.66480000  0.65990000  0.85180000  1
  C  C134  1  0.67010000  0.62700000  0.58190000  1
  C  C135  1  0.68450000  0.32900000  0.06160000  1
  C  C136  1  0.69540000  0.38820000  0.40220000  1
  C  C137  1  0.70390000  0.33270000  0.13260000  1
  C  C138  1  0.73810000  0.92350000  0.73880000  1
  C  C139  1  0.74840000  0.83560000  0.75120000  1
  C  C140  1  0.75700000  0.08370000  0.27740000  1
  C  C141  1  0.76550000  0.17990000  0.29610000  1
  C  C142  1  0.79280000  0.37160000  0.71280000  1
  C  C143  1  0.79900000  0.46510000  0.72260000  1
  C  C144  1  0.81360000  0.63530000  0.62740000  1
  C  C145  1  0.83470000  0.62900000  0.26920000  1
  C  C146  1  0.83620000  0.08030000  0.75460000  1
  C  C147  1  0.83890000  0.98900000  0.77580000  1
  C  C148  1  0.84340000  0.22610000  0.74890000  1
  C  C149  1  0.84390000  0.33300000  0.17920000  1
  C  C150  1  0.84570000  0.93460000  0.30510000  1
  C  C151  1  0.84950000  0.03960000  0.32330000  1
  C  C152  1  0.85080000  0.54780000  0.28420000  1
  C  C153  1  0.85450000  0.32510000  0.76670000  1
  C  C154  1  0.86920000  0.79260000  0.30430000  1
  C  C155  1  0.88440000  0.69180000  0.31800000  1
  C  C156  1  0.92060000  0.37780000  0.82690000  1
  C  C157  1  0.92440000  0.47250000  0.83320000  1
  C  C158  1  0.94020000  0.07880000  0.37080000  1
  C  C159  1  0.94460000  0.87150000  0.83310000  1
  C  C160  1  0.94500000  0.18590000  0.38700000  1
  C  C161  1  0.94650000  0.96520000  0.82730000  1
  C  C162  1  0.95110000  0.68820000  0.38300000  1
  C  C163  1  0.96900000  0.57830000  0.39770000  1
  N  N164  1  0.08900000  0.48130000  0.65530000  1
  N  N165  1  0.11030000  0.12600000  0.64990000  1
  N  N166  1  0.11420000  0.81690000  0.13450000  1
  N  N167  1  0.12390000  0.77140000  0.65070000  1
  N  N168  1  0.13600000  0.48340000  0.21680000  1
  N  N169  1  0.13940000  0.83720000  0.20580000  1
  N  N170  1  0.14920000  0.19230000  0.20240000  1
  N  N171  1  0.16830000  0.18090000  0.74920000  1
  N  N172  1  0.18540000  0.10110000  0.75700000  1
  N  N173  1  0.18940000  0.81720000  0.31400000  1
  N  N174  1  0.19350000  0.90860000  0.31050000  1
  N  N175  1  0.80650000  0.09140000  0.68950000  1
  N  N176  1  0.81060000  0.18280000  0.68600000  1
  N  N177  1  0.81460000  0.89890000  0.24300000  1
  N  N178  1  0.83170000  0.81910000  0.25080000  1
  N  N179  1  0.85080000  0.80770000  0.79760000  1
  N  N180  1  0.86060000  0.16280000  0.79420000  1
  N  N181  1  0.86400000  0.51660000  0.78320000  1
  N  N182  1  0.87610000  0.22860000  0.34930000  1
  N  N183  1  0.88580000  0.18310000  0.86550000  1
  N  N184  1  0.88970000  0.87400000  0.35010000  1
  N  N185  1  0.91100000  0.51870000  0.34470000  1
  O  O186  1  0.05920000  0.67690000  0.85020000  1
  O  O187  1  0.09030000  0.37840000  0.40130000  1
  O  O188  1  0.14220000  0.65880000  0.75780000  1
  O  O189  1  0.17030000  0.34400000  0.30880000  1
  O  O190  1  0.18740000  0.60140000  0.56020000  1
  O  O191  1  0.21720000  0.33440000  0.10860000  1
  O  O192  1  0.32340000  0.62120000  0.66300000  1
  O  O193  1  0.35360000  0.34500000  0.21200000  1
  O  O194  1  0.47470000  0.66760000  0.04990000  1
  O  O195  1  0.48700000  0.62170000  0.40020000  1
  O  O196  1  0.51300000  0.37830000  0.59980000  1
  O  O197  1  0.52530000  0.33240000  0.95010000  1
  O  O198  1  0.64640000  0.65500000  0.78800000  1
  O  O199  1  0.67660000  0.37880000  0.33700000  1
  O  O200  1  0.78280000  0.66560000  0.89140000  1
  O  O201  1  0.81260000  0.39860000  0.43980000  1
  O  O202  1  0.82970000  0.65600000  0.69120000  1
  O  O203  1  0.85780000  0.34120000  0.24220000  1
  O  O204  1  0.90970000  0.62160000  0.59870000  1
  O  O205  1  0.94080000  0.32310000  0.14980000  1
