# generated using pymatgen
data_CdH10C13N3O4
_symmetry_space_group_name_H-M   'P 1'
_cell_length_a   9.79390000
_cell_length_b   21.68800000
_cell_length_c   27.67700000
_cell_angle_alpha   90.00000000
_cell_angle_beta   90.00000000
_cell_angle_gamma   90.00000000
_symmetry_Int_Tables_number   1
_chemical_formula_structural   CdH10C13N3O4
_chemical_formula_sum   'Cd16 H160 C208 N48 O64'
_cell_volume   5878.87442627
_cell_formula_units_Z   16
loop_
 _symmetry_equiv_pos_site_id
 _symmetry_equiv_pos_as_xyz
  1  'x, y, z'
loop_
 _atom_site_type_symbol
 _atom_site_label
 _atom_site_symmetry_multiplicity
 _atom_site_fract_x
 _atom_site_fract_y
 _atom_site_fract_z
 _atom_site_occupancy
  Cd  Cd0  1  0.17105000  0.02271000  0.35622000  1
  Cd  Cd1  1  0.17105000  0.47729000  0.85622000  1
  Cd  Cd2  1  0.20347000  0.65909000  0.54182000  1
  Cd  Cd3  1  0.20347000  0.84091000  0.04182000  1
  Cd  Cd4  1  0.29653000  0.15909000  0.54182000  1
  Cd  Cd5  1  0.29653000  0.34091000  0.04182000  1
  Cd  Cd6  1  0.32895000  0.52271000  0.35622000  1
  Cd  Cd7  1  0.32895000  0.97729000  0.85622000  1
  Cd  Cd8  1  0.67105000  0.02271000  0.14378000  1
  Cd  Cd9  1  0.67105000  0.47729000  0.64378000  1
  Cd  Cd10  1  0.70347000  0.65909000  0.95818000  1
  Cd  Cd11  1  0.70347000  0.84091000  0.45818000  1
  Cd  Cd12  1  0.79653000  0.15909000  0.95818000  1
  Cd  Cd13  1  0.79653000  0.34091000  0.45818000  1
  Cd  Cd14  1  0.82895000  0.52271000  0.14378000  1
  Cd  Cd15  1  0.82895000  0.97729000  0.64378000  1
  H  H16  1  0.00580000  0.67250000  0.43980000  1
  H  H17  1  0.00580000  0.82750000  0.93980000  1
  H  H18  1  0.02440000  0.70630000  0.89780000  1
  H  H19  1  0.02440000  0.79370000  0.39780000  1
  H  H20  1  0.03510000  0.17040000  0.82170000  1
  H  H21  1  0.03510000  0.32960000  0.32170000  1
  H  H22  1  0.03750000  0.19350000  0.16480000  1
  H  H23  1  0.03750000  0.30650000  0.66480000  1
  H  H24  1  0.04520000  0.74130000  0.71890000  1
  H  H25  1  0.04520000  0.75870000  0.21890000  1
  H  H26  1  0.06280000  0.63800000  0.96290000  1
  H  H27  1  0.06280000  0.86200000  0.46290000  1
  H  H28  1  0.07030000  0.61040000  0.36850000  1
  H  H29  1  0.07030000  0.88960000  0.86850000  1
  H  H30  1  0.09680000  0.21520000  0.69930000  1
  H  H31  1  0.09680000  0.28480000  0.19930000  1
  H  H32  1  0.11050000  0.10270000  0.01090000  1
  H  H33  1  0.11050000  0.39730000  0.51090000  1
  H  H34  1  0.12840000  0.08820000  0.86090000  1
  H  H35  1  0.12840000  0.41180000  0.36090000  1
  H  H36  1  0.13270000  0.20400000  0.07430000  1
  H  H37  1  0.13270000  0.29600000  0.57430000  1
  H  H38  1  0.13890000  0.67240000  0.86840000  1
  H  H39  1  0.13890000  0.82760000  0.36840000  1
  H  H40  1  0.16870000  0.09910000  0.06360000  1
  H  H41  1  0.16870000  0.40090000  0.56360000  1
  H  H42  1  0.17080000  0.60290000  0.93150000  1
  H  H43  1  0.17080000  0.89710000  0.43150000  1
  H  H44  1  0.17380000  0.53950000  0.74540000  1
  H  H45  1  0.17380000  0.96050000  0.24540000  1
  H  H46  1  0.17650000  0.70910000  0.91530000  1
  H  H47  1  0.17650000  0.79090000  0.41530000  1
  H  H48  1  0.17730000  0.09990000  0.26050000  1
  H  H49  1  0.17730000  0.40010000  0.76050000  1
  H  H50  1  0.21590000  0.68040000  0.22200000  1
  H  H51  1  0.21590000  0.81960000  0.72200000  1
  H  H52  1  0.23940000  0.12130000  0.70330000  1
  H  H53  1  0.23940000  0.37870000  0.20330000  1
  H  H54  1  0.24940000  0.13490000  0.02350000  1
  H  H55  1  0.24940000  0.36510000  0.52350000  1
  H  H56  1  0.25060000  0.63490000  0.02350000  1
  H  H57  1  0.25060000  0.86510000  0.52350000  1
  H  H58  1  0.26060000  0.62130000  0.70330000  1
  H  H59  1  0.26060000  0.87870000  0.20330000  1
  H  H60  1  0.28410000  0.18040000  0.22200000  1
  H  H61  1  0.28410000  0.31960000  0.72200000  1
  H  H62  1  0.32270000  0.59990000  0.26050000  1
  H  H63  1  0.32270000  0.90010000  0.76050000  1
  H  H64  1  0.32350000  0.20910000  0.91530000  1
  H  H65  1  0.32350000  0.29090000  0.41530000  1
  H  H66  1  0.32620000  0.03950000  0.74540000  1
  H  H67  1  0.32620000  0.46050000  0.24540000  1
  H  H68  1  0.32920000  0.10290000  0.93150000  1
  H  H69  1  0.32920000  0.39710000  0.43150000  1
  H  H70  1  0.33130000  0.59910000  0.06360000  1
  H  H71  1  0.33130000  0.90090000  0.56360000  1
  H  H72  1  0.36110000  0.17240000  0.86840000  1
  H  H73  1  0.36110000  0.32760000  0.36840000  1
  H  H74  1  0.36730000  0.70400000  0.07430000  1
  H  H75  1  0.36730000  0.79600000  0.57430000  1
  H  H76  1  0.37160000  0.58820000  0.86090000  1
  H  H77  1  0.37160000  0.91180000  0.36090000  1
  H  H78  1  0.38950000  0.60270000  0.01090000  1
  H  H79  1  0.38950000  0.89730000  0.51090000  1
  H  H80  1  0.40320000  0.71520000  0.69930000  1
  H  H81  1  0.40320000  0.78480000  0.19930000  1
  H  H82  1  0.42970000  0.11040000  0.36850000  1
  H  H83  1  0.42970000  0.38960000  0.86850000  1
  H  H84  1  0.43720000  0.13800000  0.96290000  1
  H  H85  1  0.43720000  0.36200000  0.46290000  1
  H  H86  1  0.45480000  0.24130000  0.71890000  1
  H  H87  1  0.45480000  0.25870000  0.21890000  1
  H  H88  1  0.46250000  0.69350000  0.16480000  1
  H  H89  1  0.46250000  0.80650000  0.66480000  1
  H  H90  1  0.46490000  0.67040000  0.82170000  1
  H  H91  1  0.46490000  0.82960000  0.32170000  1
  H  H92  1  0.47560000  0.20630000  0.89780000  1
  H  H93  1  0.47560000  0.29370000  0.39780000  1
  H  H94  1  0.49420000  0.17250000  0.43980000  1
  H  H95  1  0.49420000  0.32750000  0.93980000  1
  H  H96  1  0.50580000  0.67250000  0.06020000  1
  H  H97  1  0.50580000  0.82750000  0.56020000  1
  H  H98  1  0.52440000  0.70630000  0.60220000  1
  H  H99  1  0.52440000  0.79370000  0.10220000  1
  H  H100  1  0.53510000  0.17040000  0.67830000  1
  H  H101  1  0.53510000  0.32960000  0.17830000  1
  H  H102  1  0.53750000  0.19350000  0.33520000  1
  H  H103  1  0.53750000  0.30650000  0.83520000  1
  H  H104  1  0.54520000  0.74130000  0.78110000  1
  H  H105  1  0.54520000  0.75870000  0.28110000  1
  H  H106  1  0.56280000  0.63800000  0.53710000  1
  H  H107  1  0.56280000  0.86200000  0.03710000  1
  H  H108  1  0.57030000  0.61040000  0.13150000  1
  H  H109  1  0.57030000  0.88960000  0.63150000  1
  H  H110  1  0.59680000  0.21520000  0.80070000  1
  H  H111  1  0.59680000  0.28480000  0.30070000  1
  H  H112  1  0.61050000  0.10270000  0.48910000  1
  H  H113  1  0.61050000  0.39730000  0.98910000  1
  H  H114  1  0.62840000  0.08820000  0.63910000  1
  H  H115  1  0.62840000  0.41180000  0.13910000  1
  H  H116  1  0.63270000  0.20400000  0.42570000  1
  H  H117  1  0.63270000  0.29600000  0.92570000  1
  H  H118  1  0.63890000  0.67240000  0.63160000  1
  H  H119  1  0.63890000  0.82760000  0.13160000  1
  H  H120  1  0.66870000  0.09910000  0.43640000  1
  H  H121  1  0.66870000  0.40090000  0.93640000  1
  H  H122  1  0.67080000  0.60290000  0.56850000  1
  H  H123  1  0.67080000  0.89710000  0.06850000  1
  H  H124  1  0.67380000  0.53950000  0.75460000  1
  H  H125  1  0.67380000  0.96050000  0.25460000  1
  H  H126  1  0.67650000  0.70910000  0.58470000  1
  H  H127  1  0.67650000  0.79090000  0.08470000  1
  H  H128  1  0.67730000  0.09990000  0.23950000  1
  H  H129  1  0.67730000  0.40010000  0.73950000  1
  H  H130  1  0.71590000  0.68040000  0.27800000  1
  H  H131  1  0.71590000  0.81960000  0.77800000  1
  H  H132  1  0.73940000  0.12130000  0.79670000  1
  H  H133  1  0.73940000  0.37870000  0.29670000  1
  H  H134  1  0.74940000  0.13490000  0.47650000  1
  H  H135  1  0.74940000  0.36510000  0.97650000  1
  H  H136  1  0.75060000  0.63490000  0.47650000  1
  H  H137  1  0.75060000  0.86510000  0.97650000  1
  H  H138  1  0.76060000  0.62130000  0.79670000  1
  H  H139  1  0.76060000  0.87870000  0.29670000  1
  H  H140  1  0.78410000  0.18040000  0.27800000  1
  H  H141  1  0.78410000  0.31960000  0.77800000  1
  H  H142  1  0.82270000  0.59990000  0.23950000  1
  H  H143  1  0.82270000  0.90010000  0.73950000  1
  H  H144  1  0.82350000  0.20910000  0.58470000  1
  H  H145  1  0.82350000  0.29090000  0.08470000  1
  H  H146  1  0.82620000  0.03950000  0.75460000  1
  H  H147  1  0.82620000  0.46050000  0.25460000  1
  H  H148  1  0.82920000  0.10290000  0.56850000  1
  H  H149  1  0.82920000  0.39710000  0.06850000  1
  H  H150  1  0.83130000  0.59910000  0.43640000  1
  H  H151  1  0.83130000  0.90090000  0.93640000  1
  H  H152  1  0.86110000  0.17240000  0.63160000  1
  H  H153  1  0.86110000  0.32760000  0.13160000  1
  H  H154  1  0.86730000  0.70400000  0.42570000  1
  H  H155  1  0.86730000  0.79600000  0.92570000  1
  H  H156  1  0.87160000  0.58820000  0.63910000  1
  H  H157  1  0.87160000  0.91180000  0.13910000  1
  H  H158  1  0.88950000  0.60270000  0.48910000  1
  H  H159  1  0.88950000  0.89730000  0.98910000  1
  H  H160  1  0.90320000  0.71520000  0.80070000  1
  H  H161  1  0.90320000  0.78480000  0.30070000  1
  H  H162  1  0.92970000  0.11040000  0.13150000  1
  H  H163  1  0.92970000  0.38960000  0.63150000  1
  H  H164  1  0.93720000  0.13800000  0.53710000  1
  H  H165  1  0.93720000  0.36200000  0.03710000  1
  H  H166  1  0.95480000  0.24130000  0.78110000  1
  H  H167  1  0.95480000  0.25870000  0.28110000  1
  H  H168  1  0.96250000  0.69350000  0.33520000  1
  H  H169  1  0.96250000  0.80650000  0.83520000  1
  H  H170  1  0.96490000  0.67040000  0.67830000  1
  H  H171  1  0.96490000  0.82960000  0.17830000  1
  H  H172  1  0.97560000  0.20630000  0.60220000  1
  H  H173  1  0.97560000  0.29370000  0.10220000  1
  H  H174  1  0.99420000  0.17250000  0.06020000  1
  H  H175  1  0.99420000  0.32750000  0.56020000  1
  C  C176  1  0.00170000  0.73423000  0.05997000  1
  C  C177  1  0.00170000  0.76577000  0.55997000  1
  C  C178  1  0.01890000  0.74817000  0.75072000  1
  C  C179  1  0.01890000  0.75183000  0.25072000  1
  C  C180  1  0.02310000  0.08577000  0.58932000  1
  C  C181  1  0.02310000  0.41423000  0.08932000  1
  C  C182  1  0.03580000  0.67530000  0.31928000  1
  C  C183  1  0.03580000  0.82470000  0.81928000  1
  C  C184  1  0.06850000  0.20901000  0.73101000  1
  C  C185  1  0.06850000  0.29099000  0.23101000  1
  C  C186  1  0.06990000  0.22652000  0.00698000  1
  C  C187  1  0.06990000  0.27348000  0.50698000  1
  C  C188  1  0.08000000  0.69821000  0.27486000  1
  C  C189  1  0.08000000  0.80179000  0.77486000  1
  C  C190  1  0.08440000  0.18326000  0.04840000  1
  C  C191  1  0.08440000  0.31674000  0.54840000  1
  C  C192  1  0.08510000  0.73211000  0.10425000  1
  C  C193  1  0.08510000  0.76789000  0.60425000  1
  C  C194  1  0.08620000  0.62600000  0.93013000  1
  C  C195  1  0.08620000  0.87400000  0.43013000  1
  C  C196  1  0.09440000  0.14430000  0.80527000  1
  C  C197  1  0.09440000  0.35570000  0.30527000  1
  C  C198  1  0.09850000  0.19626000  0.45873000  1
  C  C199  1  0.09850000  0.30374000  0.95873000  1
  C  C200  1  0.10150000  0.62568000  0.33908000  1
  C  C201  1  0.10150000  0.87432000  0.83908000  1
  C  C202  1  0.10850000  0.68380000  0.90020000  1
  C  C203  1  0.10850000  0.81620000  0.40020000  1
  C  C204  1  0.12530000  0.15575000  0.75727000  1
  C  C205  1  0.12530000  0.34425000  0.25727000  1
  C  C206  1  0.12630000  0.01425000  0.62950000  1
  C  C207  1  0.12630000  0.48575000  0.12950000  1
  C  C208  1  0.12750000  0.54295000  0.60197000  1
  C  C209  1  0.12750000  0.95705000  0.10197000  1
  C  C210  1  0.13680000  0.53740000  0.16388000  1
  C  C211  1  0.13680000  0.96260000  0.66388000  1
  C  C212  1  0.15070000  0.09480000  0.82865000  1
  C  C213  1  0.15070000  0.40520000  0.32865000  1
  C  C214  1  0.15590000  0.13696000  0.44158000  1
  C  C215  1  0.15590000  0.36304000  0.94158000  1
  C  C216  1  0.16020000  0.12460000  0.03540000  1
  C  C217  1  0.16020000  0.37540000  0.53540000  1
  C  C218  1  0.18650000  0.66800000  0.25242000  1
  C  C219  1  0.18650000  0.83200000  0.75242000  1
  C  C220  1  0.21450000  0.11540000  0.73535000  1
  C  C221  1  0.21450000  0.38460000  0.23535000  1
  C  C222  1  0.22290000  0.04937000  0.60613000  1
  C  C223  1  0.22290000  0.45063000  0.10613000  1
  C  C224  1  0.23320000  0.56630000  0.76114000  1
  C  C225  1  0.23320000  0.93370000  0.26114000  1
  C  C226  1  0.24910000  0.61901000  0.27556000  1
  C  C227  1  0.24910000  0.88099000  0.77556000  1
  C  C228  1  0.25090000  0.11901000  0.27556000  1
  C  C229  1  0.25090000  0.38099000  0.77556000  1
  C  C230  1  0.26680000  0.06630000  0.76114000  1
  C  C231  1  0.26680000  0.43370000  0.26114000  1
  C  C232  1  0.27710000  0.54937000  0.60613000  1
  C  C233  1  0.27710000  0.95063000  0.10613000  1
  C  C234  1  0.28550000  0.61540000  0.73535000  1
  C  C235  1  0.28550000  0.88460000  0.23535000  1
  C  C236  1  0.31350000  0.16800000  0.25242000  1
  C  C237  1  0.31350000  0.33200000  0.75242000  1
  C  C238  1  0.33980000  0.62460000  0.03540000  1
  C  C239  1  0.33980000  0.87540000  0.53540000  1
  C  C240  1  0.34410000  0.63696000  0.44158000  1
  C  C241  1  0.34410000  0.86304000  0.94158000  1
  C  C242  1  0.34930000  0.59480000  0.82865000  1
  C  C243  1  0.34930000  0.90520000  0.32865000  1
  C  C244  1  0.36320000  0.03740000  0.16388000  1
  C  C245  1  0.36320000  0.46260000  0.66388000  1
  C  C246  1  0.37250000  0.04295000  0.60197000  1
  C  C247  1  0.37250000  0.45705000  0.10197000  1
  C  C248  1  0.37370000  0.51425000  0.62950000  1
  C  C249  1  0.37370000  0.98575000  0.12950000  1
  C  C250  1  0.37470000  0.65575000  0.75727000  1
  C  C251  1  0.37470000  0.84425000  0.25727000  1
  C  C252  1  0.39150000  0.18380000  0.90020000  1
  C  C253  1  0.39150000  0.31620000  0.40020000  1
  C  C254  1  0.39850000  0.12568000  0.33908000  1
  C  C255  1  0.39850000  0.37432000  0.83908000  1
  C  C256  1  0.40150000  0.69626000  0.45873000  1
  C  C257  1  0.40150000  0.80374000  0.95873000  1
  C  C258  1  0.40560000  0.64430000  0.80527000  1
  C  C259  1  0.40560000  0.85570000  0.30527000  1
  C  C260  1  0.41380000  0.12600000  0.93013000  1
  C  C261  1  0.41380000  0.37400000  0.43013000  1
  C  C262  1  0.41490000  0.23211000  0.10425000  1
  C  C263  1  0.41490000  0.26789000  0.60425000  1
  C  C264  1  0.41560000  0.68326000  0.04840000  1
  C  C265  1  0.41560000  0.81674000  0.54840000  1
  C  C266  1  0.42000000  0.19821000  0.27486000  1
  C  C267  1  0.42000000  0.30179000  0.77486000  1
  C  C268  1  0.43010000  0.72652000  0.00698000  1
  C  C269  1  0.43010000  0.77348000  0.50698000  1
  C  C270  1  0.43150000  0.70901000  0.73101000  1
  C  C271  1  0.43150000  0.79099000  0.23101000  1
  C  C272  1  0.46420000  0.17530000  0.31928000  1
  C  C273  1  0.46420000  0.32470000  0.81928000  1
  C  C274  1  0.47690000  0.58577000  0.58932000  1
  C  C275  1  0.47690000  0.91423000  0.08932000  1
  C  C276  1  0.48110000  0.24817000  0.75072000  1
  C  C277  1  0.48110000  0.25183000  0.25072000  1
  C  C278  1  0.49830000  0.23423000  0.05997000  1
  C  C279  1  0.49830000  0.26577000  0.55997000  1
  C  C280  1  0.50170000  0.73423000  0.44003000  1
  C  C281  1  0.50170000  0.76577000  0.94003000  1
  C  C282  1  0.51890000  0.74817000  0.74928000  1
  C  C283  1  0.51890000  0.75183000  0.24928000  1
  C  C284  1  0.52310000  0.08577000  0.91068000  1
  C  C285  1  0.52310000  0.41423000  0.41068000  1
  C  C286  1  0.53580000  0.67530000  0.18072000  1
  C  C287  1  0.53580000  0.82470000  0.68072000  1
  C  C288  1  0.56850000  0.20901000  0.76899000  1
  C  C289  1  0.56850000  0.29099000  0.26899000  1
  C  C290  1  0.56990000  0.22652000  0.49302000  1
  C  C291  1  0.56990000  0.27348000  0.99302000  1
  C  C292  1  0.58000000  0.69821000  0.22514000  1
  C  C293  1  0.58000000  0.80179000  0.72514000  1
  C  C294  1  0.58440000  0.18326000  0.45160000  1
  C  C295  1  0.58440000  0.31674000  0.95160000  1
  C  C296  1  0.58510000  0.73211000  0.39575000  1
  C  C297  1  0.58510000  0.76789000  0.89575000  1
  C  C298  1  0.58620000  0.62600000  0.56987000  1
  C  C299  1  0.58620000  0.87400000  0.06987000  1
  C  C300  1  0.59440000  0.14430000  0.69473000  1
  C  C301  1  0.59440000  0.35570000  0.19473000  1
  C  C302  1  0.59850000  0.19626000  0.04127000  1
  C  C303  1  0.59850000  0.30374000  0.54127000  1
  C  C304  1  0.60150000  0.62568000  0.16092000  1
  C  C305  1  0.60150000  0.87432000  0.66092000  1
  C  C306  1  0.60850000  0.68380000  0.59980000  1
  C  C307  1  0.60850000  0.81620000  0.09980000  1
  C  C308  1  0.62530000  0.15575000  0.74273000  1
  C  C309  1  0.62530000  0.34425000  0.24273000  1
  C  C310  1  0.62630000  0.01425000  0.87050000  1
  C  C311  1  0.62630000  0.48575000  0.37050000  1
  C  C312  1  0.62750000  0.54295000  0.89803000  1
  C  C313  1  0.62750000  0.95705000  0.39803000  1
  C  C314  1  0.63680000  0.53740000  0.33612000  1
  C  C315  1  0.63680000  0.96260000  0.83612000  1
  C  C316  1  0.65070000  0.09480000  0.67135000  1
  C  C317  1  0.65070000  0.40520000  0.17135000  1
  C  C318  1  0.65590000  0.13696000  0.05842000  1
  C  C319  1  0.65590000  0.36304000  0.55842000  1
  C  C320  1  0.66020000  0.12460000  0.46460000  1
  C  C321  1  0.66020000  0.37540000  0.96460000  1
  C  C322  1  0.68650000  0.66800000  0.24758000  1
  C  C323  1  0.68650000  0.83200000  0.74758000  1
  C  C324  1  0.71450000  0.11540000  0.76465000  1
  C  C325  1  0.71450000  0.38460000  0.26465000  1
  C  C326  1  0.72290000  0.04937000  0.89387000  1
  C  C327  1  0.72290000  0.45063000  0.39387000  1
  C  C328  1  0.73320000  0.56630000  0.73886000  1
  C  C329  1  0.73320000  0.93370000  0.23886000  1
  C  C330  1  0.74910000  0.61901000  0.22444000  1
  C  C331  1  0.74910000  0.88099000  0.72444000  1
  C  C332  1  0.75090000  0.11901000  0.22444000  1
  C  C333  1  0.75090000  0.38099000  0.72444000  1
  C  C334  1  0.76680000  0.06630000  0.73886000  1
  C  C335  1  0.76680000  0.43370000  0.23886000  1
  C  C336  1  0.77710000  0.54937000  0.89387000  1
  C  C337  1  0.77710000  0.95063000  0.39387000  1
  C  C338  1  0.78550000  0.61540000  0.76465000  1
  C  C339  1  0.78550000  0.88460000  0.26465000  1
  C  C340  1  0.81350000  0.16800000  0.24758000  1
  C  C341  1  0.81350000  0.33200000  0.74758000  1
  C  C342  1  0.83980000  0.62460000  0.46460000  1
  C  C343  1  0.83980000  0.87540000  0.96460000  1
  C  C344  1  0.84410000  0.63696000  0.05842000  1
  C  C345  1  0.84410000  0.86304000  0.55842000  1
  C  C346  1  0.84930000  0.59480000  0.67135000  1
  C  C347  1  0.84930000  0.90520000  0.17135000  1
  C  C348  1  0.86320000  0.03740000  0.33612000  1
  C  C349  1  0.86320000  0.46260000  0.83612000  1
  C  C350  1  0.87250000  0.04295000  0.89803000  1
  C  C351  1  0.87250000  0.45705000  0.39803000  1
  C  C352  1  0.87370000  0.51425000  0.87050000  1
  C  C353  1  0.87370000  0.98575000  0.37050000  1
  C  C354  1  0.87470000  0.65575000  0.74273000  1
  C  C355  1  0.87470000  0.84425000  0.24273000  1
  C  C356  1  0.89150000  0.18380000  0.59980000  1
  C  C357  1  0.89150000  0.31620000  0.09980000  1
  C  C358  1  0.89850000  0.12568000  0.16092000  1
  C  C359  1  0.89850000  0.37432000  0.66092000  1
  C  C360  1  0.90150000  0.69626000  0.04127000  1
  C  C361  1  0.90150000  0.80374000  0.54127000  1
  C  C362  1  0.90560000  0.64430000  0.69473000  1
  C  C363  1  0.90560000  0.85570000  0.19473000  1
  C  C364  1  0.91380000  0.12600000  0.56987000  1
  C  C365  1  0.91380000  0.37400000  0.06987000  1
  C  C366  1  0.91490000  0.23211000  0.39575000  1
  C  C367  1  0.91490000  0.26789000  0.89575000  1
  C  C368  1  0.91560000  0.68326000  0.45160000  1
  C  C369  1  0.91560000  0.81674000  0.95160000  1
  C  C370  1  0.92000000  0.19821000  0.22514000  1
  C  C371  1  0.92000000  0.30179000  0.72514000  1
  C  C372  1  0.93010000  0.72652000  0.49302000  1
  C  C373  1  0.93010000  0.77348000  0.99302000  1
  C  C374  1  0.93150000  0.70901000  0.76899000  1
  C  C375  1  0.93150000  0.79099000  0.26899000  1
  C  C376  1  0.96420000  0.17530000  0.18072000  1
  C  C377  1  0.96420000  0.32470000  0.68072000  1
  C  C378  1  0.97690000  0.58577000  0.91068000  1
  C  C379  1  0.97690000  0.91423000  0.41068000  1
  C  C380  1  0.98110000  0.24817000  0.74928000  1
  C  C381  1  0.98110000  0.25183000  0.24928000  1
  C  C382  1  0.99830000  0.23423000  0.44003000  1
  C  C383  1  0.99830000  0.26577000  0.94003000  1
  N  N384  1  0.00050000  0.03701000  0.61850000  1
  N  N385  1  0.00050000  0.46299000  0.11850000  1
  N  N386  1  0.01830000  0.71710000  0.52909000  1
  N  N387  1  0.01830000  0.78290000  0.02909000  1
  N  N388  1  0.14330000  0.22138000  0.50126000  1
  N  N389  1  0.14330000  0.27862000  0.00126000  1
  N  N390  1  0.15720000  0.09486000  0.58116000  1
  N  N391  1  0.15720000  0.40514000  0.08116000  1
  N  N392  1  0.20880000  0.59804000  0.31821000  1
  N  N393  1  0.20880000  0.90196000  0.81821000  1
  N  N394  1  0.23710000  0.05526000  0.80693000  1
  N  N395  1  0.23710000  0.44474000  0.30693000  1
  N  N396  1  0.26290000  0.55526000  0.80693000  1
  N  N397  1  0.26290000  0.94474000  0.30693000  1
  N  N398  1  0.29120000  0.09804000  0.31821000  1
  N  N399  1  0.29120000  0.40196000  0.81821000  1
  N  N400  1  0.34280000  0.59486000  0.58116000  1
  N  N401  1  0.34280000  0.90514000  0.08116000  1
  N  N402  1  0.35670000  0.72138000  0.50126000  1
  N  N403  1  0.35670000  0.77862000  0.00126000  1
  N  N404  1  0.48170000  0.21710000  0.52909000  1
  N  N405  1  0.48170000  0.28290000  0.02909000  1
  N  N406  1  0.49950000  0.53701000  0.61850000  1
  N  N407  1  0.49950000  0.96299000  0.11850000  1
  N  N408  1  0.50050000  0.03701000  0.88150000  1
  N  N409  1  0.50050000  0.46299000  0.38150000  1
  N  N410  1  0.51830000  0.71710000  0.97091000  1
  N  N411  1  0.51830000  0.78290000  0.47091000  1
  N  N412  1  0.64330000  0.22138000  0.99874000  1
  N  N413  1  0.64330000  0.27862000  0.49874000  1
  N  N414  1  0.65720000  0.09486000  0.91884000  1
  N  N415  1  0.65720000  0.40514000  0.41884000  1
  N  N416  1  0.70880000  0.59804000  0.18179000  1
  N  N417  1  0.70880000  0.90196000  0.68179000  1
  N  N418  1  0.73710000  0.05526000  0.69307000  1
  N  N419  1  0.73710000  0.44474000  0.19307000  1
  N  N420  1  0.76290000  0.55526000  0.69307000  1
  N  N421  1  0.76290000  0.94474000  0.19307000  1
  N  N422  1  0.79120000  0.09804000  0.18179000  1
  N  N423  1  0.79120000  0.40196000  0.68179000  1
  N  N424  1  0.84280000  0.59486000  0.91884000  1
  N  N425  1  0.84280000  0.90514000  0.41884000  1
  N  N426  1  0.85670000  0.72138000  0.99874000  1
  N  N427  1  0.85670000  0.77862000  0.49874000  1
  N  N428  1  0.98170000  0.21710000  0.97091000  1
  N  N429  1  0.98170000  0.28290000  0.47091000  1
  N  N430  1  0.99950000  0.53701000  0.88150000  1
  N  N431  1  0.99950000  0.96299000  0.38150000  1
  O  O432  1  0.03400000  0.55793000  0.18322000  1
  O  O433  1  0.03400000  0.94207000  0.68322000  1
  O  O434  1  0.06390000  0.57859000  0.57533000  1
  O  O435  1  0.06390000  0.92141000  0.07533000  1
  O  O436  1  0.06780000  0.68592000  0.13404000  1
  O  O437  1  0.06780000  0.81408000  0.63404000  1
  O  O438  1  0.07110000  0.00095000  0.12510000  1
  O  O439  1  0.07110000  0.49905000  0.62510000  1
  O  O440  1  0.10460000  0.11327000  0.40394000  1
  O  O441  1  0.10460000  0.38673000  0.90394000  1
  O  O442  1  0.16990000  0.72772000  0.61290000  1
  O  O443  1  0.16990000  0.77228000  0.11290000  1
  O  O444  1  0.24120000  0.05884000  0.17296000  1
  O  O445  1  0.24120000  0.44116000  0.67296000  1
  O  O446  1  0.24840000  0.61320000  0.46546000  1
  O  O447  1  0.24840000  0.88680000  0.96546000  1
  O  O448  1  0.25160000  0.11320000  0.46546000  1
  O  O449  1  0.25160000  0.38680000  0.96546000  1
  O  O450  1  0.25880000  0.55884000  0.17296000  1
  O  O451  1  0.25880000  0.94116000  0.67296000  1
  O  O452  1  0.33010000  0.22772000  0.61290000  1
  O  O453  1  0.33010000  0.27228000  0.11290000  1
  O  O454  1  0.39540000  0.61327000  0.40394000  1
  O  O455  1  0.39540000  0.88673000  0.90394000  1
  O  O456  1  0.42890000  0.50095000  0.12510000  1
  O  O457  1  0.42890000  0.99905000  0.62510000  1
  O  O458  1  0.43220000  0.18592000  0.13404000  1
  O  O459  1  0.43220000  0.31408000  0.63404000  1
  O  O460  1  0.43610000  0.07859000  0.57533000  1
  O  O461  1  0.43610000  0.42141000  0.07533000  1
  O  O462  1  0.46600000  0.05793000  0.18322000  1
  O  O463  1  0.46600000  0.44207000  0.68322000  1
  O  O464  1  0.53400000  0.55793000  0.31678000  1
  O  O465  1  0.53400000  0.94207000  0.81678000  1
  O  O466  1  0.56390000  0.57859000  0.92467000  1
  O  O467  1  0.56390000  0.92141000  0.42467000  1
  O  O468  1  0.56780000  0.68592000  0.36596000  1
  O  O469  1  0.56780000  0.81408000  0.86596000  1
  O  O470  1  0.57110000  0.00095000  0.37490000  1
  O  O471  1  0.57110000  0.49905000  0.87490000  1
  O  O472  1  0.60460000  0.11327000  0.09606000  1
  O  O473  1  0.60460000  0.38673000  0.59606000  1
  O  O474  1  0.66990000  0.72772000  0.88710000  1
  O  O475  1  0.66990000  0.77228000  0.38710000  1
  O  O476  1  0.74120000  0.05884000  0.32704000  1
  O  O477  1  0.74120000  0.44116000  0.82704000  1
  O  O478  1  0.74840000  0.61320000  0.03454000  1
  O  O479  1  0.74840000  0.88680000  0.53454000  1
  O  O480  1  0.75160000  0.11320000  0.03454000  1
  O  O481  1  0.75160000  0.38680000  0.53454000  1
  O  O482  1  0.75880000  0.55884000  0.32704000  1
  O  O483  1  0.75880000  0.94116000  0.82704000  1
  O  O484  1  0.83010000  0.22772000  0.88710000  1
  O  O485  1  0.83010000  0.27228000  0.38710000  1
  O  O486  1  0.89540000  0.61327000  0.09606000  1
  O  O487  1  0.89540000  0.88673000  0.59606000  1
  O  O488  1  0.92890000  0.50095000  0.37490000  1
  O  O489  1  0.92890000  0.99905000  0.87490000  1
  O  O490  1  0.93220000  0.18592000  0.36596000  1
  O  O491  1  0.93220000  0.31408000  0.86596000  1
  O  O492  1  0.93610000  0.07859000  0.92467000  1
  O  O493  1  0.93610000  0.42141000  0.42467000  1
  O  O494  1  0.96600000  0.05793000  0.31678000  1
  O  O495  1  0.96600000  0.44207000  0.81678000  1
