# generated using pymatgen
data_AgH20(C3N2)6
_symmetry_space_group_name_H-M   'P 1'
_cell_length_a   11.93080000
_cell_length_b   18.92390000
_cell_length_c   22.41890000
_cell_angle_alpha   90.00000000
_cell_angle_beta   90.00000000
_cell_angle_gamma   90.00000000
_symmetry_Int_Tables_number   1
_chemical_formula_structural   AgH20(C3N2)6
_chemical_formula_sum   'Ag8 H160 C144 N96'
_cell_volume   5061.67795142
_cell_formula_units_Z   8
loop_
 _symmetry_equiv_pos_site_id
 _symmetry_equiv_pos_as_xyz
  1  'x, y, z'
loop_
 _atom_site_type_symbol
 _atom_site_label
 _atom_site_symmetry_multiplicity
 _atom_site_fract_x
 _atom_site_fract_y
 _atom_site_fract_z
 _atom_site_occupancy
  Ag  Ag0  1  0.22022000  0.30243000  0.19825000  1
  Ag  Ag1  1  0.22022000  0.69757000  0.69825000  1
  Ag  Ag2  1  0.27978000  0.19757000  0.69825000  1
  Ag  Ag3  1  0.27978000  0.80243000  0.19825000  1
  Ag  Ag4  1  0.72022000  0.19757000  0.80175000  1
  Ag  Ag5  1  0.72022000  0.80243000  0.30175000  1
  Ag  Ag6  1  0.77978000  0.30243000  0.30175000  1
  Ag  Ag7  1  0.77978000  0.69757000  0.80175000  1
  H  H8  1  0.03220000  0.43280000  0.37250000  1
  H  H9  1  0.03220000  0.56720000  0.87250000  1
  H  H10  1  0.03470000  0.05790000  0.16910000  1
  H  H11  1  0.03470000  0.94210000  0.66910000  1
  H  H12  1  0.03580000  0.25590000  0.34260000  1
  H  H13  1  0.03580000  0.74410000  0.84260000  1
  H  H14  1  0.03600000  0.41870000  0.84640000  1
  H  H15  1  0.03600000  0.58130000  0.34640000  1
  H  H16  1  0.06150000  0.35170000  0.94390000  1
  H  H17  1  0.06150000  0.64830000  0.44390000  1
  H  H18  1  0.07880000  0.32980000  0.68010000  1
  H  H19  1  0.07880000  0.67020000  0.18010000  1
  H  H20  1  0.10960000  0.08880000  0.44740000  1
  H  H21  1  0.10960000  0.91120000  0.94740000  1
  H  H22  1  0.11280000  0.48120000  0.93570000  1
  H  H23  1  0.11280000  0.51880000  0.43570000  1
  H  H24  1  0.11360000  0.40210000  0.79150000  1
  H  H25  1  0.11360000  0.59790000  0.29150000  1
  H  H26  1  0.13490000  0.02280000  0.35030000  1
  H  H27  1  0.13490000  0.97720000  0.85030000  1
  H  H28  1  0.14010000  0.18650000  0.86050000  1
  H  H29  1  0.14010000  0.81350000  0.36050000  1
  H  H30  1  0.14270000  0.16910000  0.45170000  1
  H  H31  1  0.14270000  0.83090000  0.95170000  1
  H  H32  1  0.15700000  0.29480000  0.94980000  1
  H  H33  1  0.15700000  0.70520000  0.44980000  1
  H  H34  1  0.16450000  0.49650000  0.53510000  1
  H  H35  1  0.16450000  0.50350000  0.03510000  1
  H  H36  1  0.18210000  0.06220000  0.29390000  1
  H  H37  1  0.18210000  0.93780000  0.79390000  1
  H  H38  1  0.21410000  0.04870000  0.76710000  1
  H  H39  1  0.21410000  0.95130000  0.26710000  1
  H  H40  1  0.21930000  0.23260000  0.36070000  1
  H  H41  1  0.21930000  0.76740000  0.86070000  1
  H  H42  1  0.23550000  0.19110000  0.30050000  1
  H  H43  1  0.23550000  0.80890000  0.80050000  1
  H  H44  1  0.23970000  0.49640000  0.43710000  1
  H  H45  1  0.23970000  0.50360000  0.93710000  1
  H  H46  1  0.24680000  0.30430000  0.04720000  1
  H  H47  1  0.24680000  0.69570000  0.54720000  1
  H  H48  1  0.25320000  0.19570000  0.54720000  1
  H  H49  1  0.25320000  0.80430000  0.04720000  1
  H  H50  1  0.26030000  0.00360000  0.93710000  1
  H  H51  1  0.26030000  0.99640000  0.43710000  1
  H  H52  1  0.26450000  0.30890000  0.80050000  1
  H  H53  1  0.26450000  0.69110000  0.30050000  1
  H  H54  1  0.28070000  0.26740000  0.86070000  1
  H  H55  1  0.28070000  0.73260000  0.36070000  1
  H  H56  1  0.28590000  0.45130000  0.26710000  1
  H  H57  1  0.28590000  0.54870000  0.76710000  1
  H  H58  1  0.31790000  0.43780000  0.79390000  1
  H  H59  1  0.31790000  0.56220000  0.29390000  1
  H  H60  1  0.33550000  0.00350000  0.03510000  1
  H  H61  1  0.33550000  0.99650000  0.53510000  1
  H  H62  1  0.34300000  0.20520000  0.44980000  1
  H  H63  1  0.34300000  0.79480000  0.94980000  1
  H  H64  1  0.35730000  0.33090000  0.95170000  1
  H  H65  1  0.35730000  0.66910000  0.45170000  1
  H  H66  1  0.35990000  0.31350000  0.36050000  1
  H  H67  1  0.35990000  0.68650000  0.86050000  1
  H  H68  1  0.36510000  0.47720000  0.85030000  1
  H  H69  1  0.36510000  0.52280000  0.35030000  1
  H  H70  1  0.38640000  0.09790000  0.29150000  1
  H  H71  1  0.38640000  0.90210000  0.79150000  1
  H  H72  1  0.38720000  0.01880000  0.43570000  1
  H  H73  1  0.38720000  0.98120000  0.93570000  1
  H  H74  1  0.39040000  0.41120000  0.94740000  1
  H  H75  1  0.39040000  0.58880000  0.44740000  1
  H  H76  1  0.42120000  0.17020000  0.18010000  1
  H  H77  1  0.42120000  0.82980000  0.68010000  1
  H  H78  1  0.43850000  0.14830000  0.44390000  1
  H  H79  1  0.43850000  0.85170000  0.94390000  1
  H  H80  1  0.46400000  0.08130000  0.34640000  1
  H  H81  1  0.46400000  0.91870000  0.84640000  1
  H  H82  1  0.46420000  0.24410000  0.84260000  1
  H  H83  1  0.46420000  0.75590000  0.34260000  1
  H  H84  1  0.46530000  0.44210000  0.66910000  1
  H  H85  1  0.46530000  0.55790000  0.16910000  1
  H  H86  1  0.46780000  0.06720000  0.87250000  1
  H  H87  1  0.46780000  0.93280000  0.37250000  1
  H  H88  1  0.53220000  0.06720000  0.62750000  1
  H  H89  1  0.53220000  0.93280000  0.12750000  1
  H  H90  1  0.53470000  0.44210000  0.83090000  1
  H  H91  1  0.53470000  0.55790000  0.33090000  1
  H  H92  1  0.53580000  0.24410000  0.65740000  1
  H  H93  1  0.53580000  0.75590000  0.15740000  1
  H  H94  1  0.53600000  0.08130000  0.15360000  1
  H  H95  1  0.53600000  0.91870000  0.65360000  1
  H  H96  1  0.56150000  0.14830000  0.05610000  1
  H  H97  1  0.56150000  0.85170000  0.55610000  1
  H  H98  1  0.57880000  0.17020000  0.31990000  1
  H  H99  1  0.57880000  0.82980000  0.81990000  1
  H  H100  1  0.60960000  0.41120000  0.55260000  1
  H  H101  1  0.60960000  0.58880000  0.05260000  1
  H  H102  1  0.61280000  0.01880000  0.06430000  1
  H  H103  1  0.61280000  0.98120000  0.56430000  1
  H  H104  1  0.61360000  0.09790000  0.20850000  1
  H  H105  1  0.61360000  0.90210000  0.70850000  1
  H  H106  1  0.63490000  0.47720000  0.64970000  1
  H  H107  1  0.63490000  0.52280000  0.14970000  1
  H  H108  1  0.64010000  0.31350000  0.13950000  1
  H  H109  1  0.64010000  0.68650000  0.63950000  1
  H  H110  1  0.64270000  0.33090000  0.54830000  1
  H  H111  1  0.64270000  0.66910000  0.04830000  1
  H  H112  1  0.65700000  0.20520000  0.05020000  1
  H  H113  1  0.65700000  0.79480000  0.55020000  1
  H  H114  1  0.66450000  0.00350000  0.46490000  1
  H  H115  1  0.66450000  0.99650000  0.96490000  1
  H  H116  1  0.68210000  0.43780000  0.70610000  1
  H  H117  1  0.68210000  0.56220000  0.20610000  1
  H  H118  1  0.71410000  0.45130000  0.23290000  1
  H  H119  1  0.71410000  0.54870000  0.73290000  1
  H  H120  1  0.71930000  0.26740000  0.63930000  1
  H  H121  1  0.71930000  0.73260000  0.13930000  1
  H  H122  1  0.73550000  0.30890000  0.69950000  1
  H  H123  1  0.73550000  0.69110000  0.19950000  1
  H  H124  1  0.73970000  0.00360000  0.56290000  1
  H  H125  1  0.73970000  0.99640000  0.06290000  1
  H  H126  1  0.74680000  0.19570000  0.95280000  1
  H  H127  1  0.74680000  0.80430000  0.45280000  1
  H  H128  1  0.75320000  0.30430000  0.45280000  1
  H  H129  1  0.75320000  0.69570000  0.95280000  1
  H  H130  1  0.76030000  0.49640000  0.06290000  1
  H  H131  1  0.76030000  0.50360000  0.56290000  1
  H  H132  1  0.76450000  0.19110000  0.19950000  1
  H  H133  1  0.76450000  0.80890000  0.69950000  1
  H  H134  1  0.78070000  0.23260000  0.13930000  1
  H  H135  1  0.78070000  0.76740000  0.63930000  1
  H  H136  1  0.78590000  0.04870000  0.73290000  1
  H  H137  1  0.78590000  0.95130000  0.23290000  1
  H  H138  1  0.81790000  0.06220000  0.20610000  1
  H  H139  1  0.81790000  0.93780000  0.70610000  1
  H  H140  1  0.83550000  0.49650000  0.96490000  1
  H  H141  1  0.83550000  0.50350000  0.46490000  1
  H  H142  1  0.84300000  0.29480000  0.55020000  1
  H  H143  1  0.84300000  0.70520000  0.05020000  1
  H  H144  1  0.85730000  0.16910000  0.04830000  1
  H  H145  1  0.85730000  0.83090000  0.54830000  1
  H  H146  1  0.85990000  0.18650000  0.63950000  1
  H  H147  1  0.85990000  0.81350000  0.13950000  1
  H  H148  1  0.86510000  0.02280000  0.14970000  1
  H  H149  1  0.86510000  0.97720000  0.64970000  1
  H  H150  1  0.88640000  0.40210000  0.70850000  1
  H  H151  1  0.88640000  0.59790000  0.20850000  1
  H  H152  1  0.88720000  0.48120000  0.56430000  1
  H  H153  1  0.88720000  0.51880000  0.06430000  1
  H  H154  1  0.89040000  0.08880000  0.05260000  1
  H  H155  1  0.89040000  0.91120000  0.55260000  1
  H  H156  1  0.92120000  0.32980000  0.81990000  1
  H  H157  1  0.92120000  0.67020000  0.31990000  1
  H  H158  1  0.93850000  0.35170000  0.55610000  1
  H  H159  1  0.93850000  0.64830000  0.05610000  1
  H  H160  1  0.96400000  0.41870000  0.65360000  1
  H  H161  1  0.96400000  0.58130000  0.15360000  1
  H  H162  1  0.96420000  0.25590000  0.15740000  1
  H  H163  1  0.96420000  0.74410000  0.65740000  1
  H  H164  1  0.96530000  0.05790000  0.33090000  1
  H  H165  1  0.96530000  0.94210000  0.83090000  1
  H  H166  1  0.96780000  0.43280000  0.12750000  1
  H  H167  1  0.96780000  0.56720000  0.62750000  1
  C  C168  1  0.00250000  0.21350000  0.16240000  1
  C  C169  1  0.00250000  0.78650000  0.66240000  1
  C  C170  1  0.04060000  0.10690000  0.16890000  1
  C  C171  1  0.04060000  0.89310000  0.66890000  1
  C  C172  1  0.04380000  0.28640000  0.67440000  1
  C  C173  1  0.04380000  0.71360000  0.17440000  1
  C  C174  1  0.07470000  0.20850000  0.84770000  1
  C  C175  1  0.07470000  0.79150000  0.34770000  1
  C  C176  1  0.08630000  0.42400000  0.34360000  1
  C  C177  1  0.08630000  0.57600000  0.84360000  1
  C  C178  1  0.11150000  0.40570000  0.83460000  1
  C  C179  1  0.11150000  0.59430000  0.33460000  1
  C  C180  1  0.13710000  0.33960000  0.93170000  1
  C  C181  1  0.13710000  0.66040000  0.43170000  1
  C  C182  1  0.14360000  0.33390000  0.86290000  1
  C  C183  1  0.14360000  0.66610000  0.36290000  1
  C  C184  1  0.15720000  0.13020000  0.36540000  1
  C  C185  1  0.15720000  0.86980000  0.86540000  1
  C  C186  1  0.16230000  0.12420000  0.43360000  1
  C  C187  1  0.16230000  0.87580000  0.93360000  1
  C  C188  1  0.18210000  0.45920000  0.05050000  1
  C  C189  1  0.18210000  0.54080000  0.55050000  1
  C  C190  1  0.18700000  0.05880000  0.33700000  1
  C  C191  1  0.18700000  0.94120000  0.83700000  1
  C  C192  1  0.18780000  0.46750000  0.92360000  1
  C  C193  1  0.18780000  0.53250000  0.42360000  1
  C  C194  1  0.19340000  0.46090000  0.85550000  1
  C  C195  1  0.19340000  0.53910000  0.35550000  1
  C  C196  1  0.21830000  0.39670000  0.95130000  1
  C  C197  1  0.21830000  0.60330000  0.45130000  1
  C  C198  1  0.22270000  0.43420000  0.28660000  1
  C  C199  1  0.22270000  0.56580000  0.78660000  1
  C  C200  1  0.22690000  0.35040000  0.05700000  1
  C  C201  1  0.22690000  0.64960000  0.55700000  1
  C  C202  1  0.23900000  0.18720000  0.34360000  1
  C  C203  1  0.23900000  0.81280000  0.84360000  1
  C  C204  1  0.26100000  0.31280000  0.84360000  1
  C  C205  1  0.26100000  0.68720000  0.34360000  1
  C  C206  1  0.27310000  0.14960000  0.55700000  1
  C  C207  1  0.27310000  0.85040000  0.05700000  1
  C  C208  1  0.27730000  0.06580000  0.78660000  1
  C  C209  1  0.27730000  0.93420000  0.28660000  1
  C  C210  1  0.28170000  0.10330000  0.45130000  1
  C  C211  1  0.28170000  0.89670000  0.95130000  1
  C  C212  1  0.30660000  0.03910000  0.35550000  1
  C  C213  1  0.30660000  0.96090000  0.85550000  1
  C  C214  1  0.31220000  0.03250000  0.42360000  1
  C  C215  1  0.31220000  0.96750000  0.92360000  1
  C  C216  1  0.31300000  0.44120000  0.83700000  1
  C  C217  1  0.31300000  0.55880000  0.33700000  1
  C  C218  1  0.31790000  0.04080000  0.55050000  1
  C  C219  1  0.31790000  0.95920000  0.05050000  1
  C  C220  1  0.33770000  0.37580000  0.93360000  1
  C  C221  1  0.33770000  0.62420000  0.43360000  1
  C  C222  1  0.34280000  0.36980000  0.86540000  1
  C  C223  1  0.34280000  0.63020000  0.36540000  1
  C  C224  1  0.35640000  0.16610000  0.36290000  1
  C  C225  1  0.35640000  0.83390000  0.86290000  1
  C  C226  1  0.36290000  0.16040000  0.43170000  1
  C  C227  1  0.36290000  0.83960000  0.93170000  1
  C  C228  1  0.38850000  0.09430000  0.33460000  1
  C  C229  1  0.38850000  0.90570000  0.83460000  1
  C  C230  1  0.41370000  0.07600000  0.84360000  1
  C  C231  1  0.41370000  0.92400000  0.34360000  1
  C  C232  1  0.42530000  0.29150000  0.34770000  1
  C  C233  1  0.42530000  0.70850000  0.84770000  1
  C  C234  1  0.45620000  0.21360000  0.17440000  1
  C  C235  1  0.45620000  0.78640000  0.67440000  1
  C  C236  1  0.45940000  0.39310000  0.66890000  1
  C  C237  1  0.45940000  0.60690000  0.16890000  1
  C  C238  1  0.49750000  0.28650000  0.66240000  1
  C  C239  1  0.49750000  0.71350000  0.16240000  1
  C  C240  1  0.50250000  0.28650000  0.83760000  1
  C  C241  1  0.50250000  0.71350000  0.33760000  1
  C  C242  1  0.54060000  0.39310000  0.83110000  1
  C  C243  1  0.54060000  0.60690000  0.33110000  1
  C  C244  1  0.54380000  0.21360000  0.32560000  1
  C  C245  1  0.54380000  0.78640000  0.82560000  1
  C  C246  1  0.57470000  0.29150000  0.15230000  1
  C  C247  1  0.57470000  0.70850000  0.65230000  1
  C  C248  1  0.58630000  0.07600000  0.65640000  1
  C  C249  1  0.58630000  0.92400000  0.15640000  1
  C  C250  1  0.61150000  0.09430000  0.16540000  1
  C  C251  1  0.61150000  0.90570000  0.66540000  1
  C  C252  1  0.63710000  0.16040000  0.06830000  1
  C  C253  1  0.63710000  0.83960000  0.56830000  1
  C  C254  1  0.64360000  0.16610000  0.13710000  1
  C  C255  1  0.64360000  0.83390000  0.63710000  1
  C  C256  1  0.65720000  0.36980000  0.63460000  1
  C  C257  1  0.65720000  0.63020000  0.13460000  1
  C  C258  1  0.66230000  0.37580000  0.56640000  1
  C  C259  1  0.66230000  0.62420000  0.06640000  1
  C  C260  1  0.68210000  0.04080000  0.94950000  1
  C  C261  1  0.68210000  0.95920000  0.44950000  1
  C  C262  1  0.68700000  0.44120000  0.66300000  1
  C  C263  1  0.68700000  0.55880000  0.16300000  1
  C  C264  1  0.68780000  0.03250000  0.07640000  1
  C  C265  1  0.68780000  0.96750000  0.57640000  1
  C  C266  1  0.69340000  0.03910000  0.14450000  1
  C  C267  1  0.69340000  0.96090000  0.64450000  1
  C  C268  1  0.71830000  0.10330000  0.04870000  1
  C  C269  1  0.71830000  0.89670000  0.54870000  1
  C  C270  1  0.72270000  0.06580000  0.71340000  1
  C  C271  1  0.72270000  0.93420000  0.21340000  1
  C  C272  1  0.72690000  0.14960000  0.94300000  1
  C  C273  1  0.72690000  0.85040000  0.44300000  1
  C  C274  1  0.73900000  0.31280000  0.65640000  1
  C  C275  1  0.73900000  0.68720000  0.15640000  1
  C  C276  1  0.76100000  0.18720000  0.15640000  1
  C  C277  1  0.76100000  0.81280000  0.65640000  1
  C  C278  1  0.77310000  0.35040000  0.44300000  1
  C  C279  1  0.77310000  0.64960000  0.94300000  1
  C  C280  1  0.77730000  0.43420000  0.21340000  1
  C  C281  1  0.77730000  0.56580000  0.71340000  1
  C  C282  1  0.78170000  0.39670000  0.54870000  1
  C  C283  1  0.78170000  0.60330000  0.04870000  1
  C  C284  1  0.80660000  0.46090000  0.64450000  1
  C  C285  1  0.80660000  0.53910000  0.14450000  1
  C  C286  1  0.81220000  0.46750000  0.57640000  1
  C  C287  1  0.81220000  0.53250000  0.07640000  1
  C  C288  1  0.81300000  0.05880000  0.16300000  1
  C  C289  1  0.81300000  0.94120000  0.66300000  1
  C  C290  1  0.81790000  0.45920000  0.44950000  1
  C  C291  1  0.81790000  0.54080000  0.94950000  1
  C  C292  1  0.83770000  0.12420000  0.06640000  1
  C  C293  1  0.83770000  0.87580000  0.56640000  1
  C  C294  1  0.84280000  0.13020000  0.13460000  1
  C  C295  1  0.84280000  0.86980000  0.63460000  1
  C  C296  1  0.85640000  0.33390000  0.63710000  1
  C  C297  1  0.85640000  0.66610000  0.13710000  1
  C  C298  1  0.86290000  0.33960000  0.56830000  1
  C  C299  1  0.86290000  0.66040000  0.06830000  1
  C  C300  1  0.88850000  0.40570000  0.66540000  1
  C  C301  1  0.88850000  0.59430000  0.16540000  1
  C  C302  1  0.91370000  0.42400000  0.15640000  1
  C  C303  1  0.91370000  0.57600000  0.65640000  1
  C  C304  1  0.92530000  0.20850000  0.65230000  1
  C  C305  1  0.92530000  0.79150000  0.15230000  1
  C  C306  1  0.95620000  0.28640000  0.82560000  1
  C  C307  1  0.95620000  0.71360000  0.32560000  1
  C  C308  1  0.95940000  0.10690000  0.33110000  1
  C  C309  1  0.95940000  0.89310000  0.83110000  1
  C  C310  1  0.99750000  0.21350000  0.33760000  1
  C  C311  1  0.99750000  0.78650000  0.83760000  1
  N  N312  1  0.01480000  0.17460000  0.66810000  1
  N  N313  1  0.01480000  0.82540000  0.16810000  1
  N  N314  1  0.04290000  0.14930000  0.34622000  1
  N  N315  1  0.04290000  0.85070000  0.84622000  1
  N  N316  1  0.06260000  0.27910000  0.84370000  1
  N  N317  1  0.06260000  0.72090000  0.34370000  1
  N  N318  1  0.09120000  0.36650000  0.31290000  1
  N  N319  1  0.09120000  0.63350000  0.81290000  1
  N  N320  1  0.09170000  0.22670000  0.68300000  1
  N  N321  1  0.09170000  0.77330000  0.18300000  1
  N  N322  1  0.10660000  0.20860000  0.17840000  1
  N  N323  1  0.10660000  0.79140000  0.67840000  1
  N  N324  1  0.13060000  0.13990000  0.18340000  1
  N  N325  1  0.13060000  0.86010000  0.68340000  1
  N  N326  1  0.16750000  0.46950000  0.32933000  1
  N  N327  1  0.16750000  0.53050000  0.82933000  1
  N  N328  1  0.17760000  0.37360000  0.27570000  1
  N  N329  1  0.17760000  0.62640000  0.77570000  1
  N  N330  1  0.18200000  0.44330000  0.10740000  1
  N  N331  1  0.18200000  0.55670000  0.60740000  1
  N  N332  1  0.21050000  0.37300000  0.11130000  1
  N  N333  1  0.21050000  0.62700000  0.61130000  1
  N  N334  1  0.21130000  0.40250000  0.01726000  1
  N  N335  1  0.21130000  0.59750000  0.51726000  1
  N  N336  1  0.28870000  0.09750000  0.51726000  1
  N  N337  1  0.28870000  0.90250000  0.01726000  1
  N  N338  1  0.28950000  0.12700000  0.61130000  1
  N  N339  1  0.28950000  0.87300000  0.11130000  1
  N  N340  1  0.31800000  0.05670000  0.60740000  1
  N  N341  1  0.31800000  0.94330000  0.10740000  1
  N  N342  1  0.32240000  0.12640000  0.77570000  1
  N  N343  1  0.32240000  0.87360000  0.27570000  1
  N  N344  1  0.33250000  0.03050000  0.82933000  1
  N  N345  1  0.33250000  0.96950000  0.32933000  1
  N  N346  1  0.36940000  0.36010000  0.68340000  1
  N  N347  1  0.36940000  0.63990000  0.18340000  1
  N  N348  1  0.39340000  0.29140000  0.67840000  1
  N  N349  1  0.39340000  0.70860000  0.17840000  1
  N  N350  1  0.40830000  0.27330000  0.18300000  1
  N  N351  1  0.40830000  0.72670000  0.68300000  1
  N  N352  1  0.40880000  0.13350000  0.81290000  1
  N  N353  1  0.40880000  0.86650000  0.31290000  1
  N  N354  1  0.43740000  0.22090000  0.34370000  1
  N  N355  1  0.43740000  0.77910000  0.84370000  1
  N  N356  1  0.45710000  0.35070000  0.84622000  1
  N  N357  1  0.45710000  0.64930000  0.34622000  1
  N  N358  1  0.48520000  0.32540000  0.16810000  1
  N  N359  1  0.48520000  0.67460000  0.66810000  1
  N  N360  1  0.51480000  0.32540000  0.33190000  1
  N  N361  1  0.51480000  0.67460000  0.83190000  1
  N  N362  1  0.54290000  0.35070000  0.65378000  1
  N  N363  1  0.54290000  0.64930000  0.15378000  1
  N  N364  1  0.56260000  0.22090000  0.15630000  1
  N  N365  1  0.56260000  0.77910000  0.65630000  1
  N  N366  1  0.59120000  0.13350000  0.68710000  1
  N  N367  1  0.59120000  0.86650000  0.18710000  1
  N  N368  1  0.59170000  0.27330000  0.31700000  1
  N  N369  1  0.59170000  0.72670000  0.81700000  1
  N  N370  1  0.60660000  0.29140000  0.82160000  1
  N  N371  1  0.60660000  0.70860000  0.32160000  1
  N  N372  1  0.63060000  0.36010000  0.81660000  1
  N  N373  1  0.63060000  0.63990000  0.31660000  1
  N  N374  1  0.66750000  0.03050000  0.67067000  1
  N  N375  1  0.66750000  0.96950000  0.17067000  1
  N  N376  1  0.67760000  0.12640000  0.72430000  1
  N  N377  1  0.67760000  0.87360000  0.22430000  1
  N  N378  1  0.68200000  0.05670000  0.89260000  1
  N  N379  1  0.68200000  0.94330000  0.39260000  1
  N  N380  1  0.71050000  0.12700000  0.88870000  1
  N  N381  1  0.71050000  0.87300000  0.38870000  1
  N  N382  1  0.71130000  0.09750000  0.98274000  1
  N  N383  1  0.71130000  0.90250000  0.48274000  1
  N  N384  1  0.78870000  0.40250000  0.48274000  1
  N  N385  1  0.78870000  0.59750000  0.98274000  1
  N  N386  1  0.78950000  0.37300000  0.38870000  1
  N  N387  1  0.78950000  0.62700000  0.88870000  1
  N  N388  1  0.81800000  0.44330000  0.39260000  1
  N  N389  1  0.81800000  0.55670000  0.89260000  1
  N  N390  1  0.82240000  0.37360000  0.22430000  1
  N  N391  1  0.82240000  0.62640000  0.72430000  1
  N  N392  1  0.83250000  0.46950000  0.17067000  1
  N  N393  1  0.83250000  0.53050000  0.67067000  1
  N  N394  1  0.86940000  0.13990000  0.31660000  1
  N  N395  1  0.86940000  0.86010000  0.81660000  1
  N  N396  1  0.89340000  0.20860000  0.32160000  1
  N  N397  1  0.89340000  0.79140000  0.82160000  1
  N  N398  1  0.90830000  0.22670000  0.81700000  1
  N  N399  1  0.90830000  0.77330000  0.31700000  1
  N  N400  1  0.90880000  0.36650000  0.18710000  1
  N  N401  1  0.90880000  0.63350000  0.68710000  1
  N  N402  1  0.93740000  0.27910000  0.65630000  1
  N  N403  1  0.93740000  0.72090000  0.15630000  1
  N  N404  1  0.95710000  0.14930000  0.15378000  1
  N  N405  1  0.95710000  0.85070000  0.65378000  1
  N  N406  1  0.98520000  0.17460000  0.83190000  1
  N  N407  1  0.98520000  0.82540000  0.33190000  1
