# generated using pymatgen
data_MnH7C13NO4
_symmetry_space_group_name_H-M   'P 1'
_cell_length_a   13.28800000
_cell_length_b   13.91900000
_cell_length_c   18.47700000
_cell_angle_alpha   90.00000000
_cell_angle_beta   96.31800000
_cell_angle_gamma   90.00000000
_symmetry_Int_Tables_number   1
_chemical_formula_structural   MnH7C13NO4
_chemical_formula_sum   'Mn8 H56 C104 N8 O32'
_cell_volume   3396.66998386
_cell_formula_units_Z   8
loop_
 _symmetry_equiv_pos_site_id
 _symmetry_equiv_pos_as_xyz
  1  'x, y, z'
loop_
 _atom_site_type_symbol
 _atom_site_label
 _atom_site_symmetry_multiplicity
 _atom_site_fract_x
 _atom_site_fract_y
 _atom_site_fract_z
 _atom_site_occupancy
  Mn  Mn0  1  0.01295000  0.94586000  0.77741000  1
  Mn  Mn1  1  0.06664000  0.20730000  0.36906000  1
  Mn  Mn2  1  0.43336000  0.70730000  0.13094000  1
  Mn  Mn3  1  0.48705000  0.44586000  0.72259000  1
  Mn  Mn4  1  0.51295000  0.55414000  0.27741000  1
  Mn  Mn5  1  0.56664000  0.29270000  0.86906000  1
  Mn  Mn6  1  0.93336000  0.79270000  0.63094000  1
  Mn  Mn7  1  0.98705000  0.05414000  0.22259000  1
  H  H8  1  0.01100000  0.79090000  0.32420000  1
  H  H9  1  0.04640000  0.60460000  0.71020000  1
  H  H10  1  0.05810000  0.07440000  0.62740000  1
  H  H11  1  0.06690000  0.66160000  0.39890000  1
  H  H12  1  0.07700000  0.07150000  0.50640000  1
  H  H13  1  0.11080000  0.18780000  0.95350000  1
  H  H14  1  0.11570000  0.22140000  0.06060000  1
  H  H15  1  0.12820000  0.55980000  0.48220000  1
  H  H16  1  0.14310000  0.47510000  0.68660000  1
  H  H17  1  0.17870000  0.44960000  0.57020000  1
  H  H18  1  0.18200000  0.88830000  0.57250000  1
  H  H19  1  0.20550000  0.94490000  0.47120000  1
  H  H20  1  0.21650000  0.22080000  0.75970000  1
  H  H21  1  0.21860000  0.38930000  0.22820000  1
  H  H22  1  0.28140000  0.88930000  0.27180000  1
  H  H23  1  0.28350000  0.72080000  0.74030000  1
  H  H24  1  0.29450000  0.44490000  0.02880000  1
  H  H25  1  0.31800000  0.38830000  0.92750000  1
  H  H26  1  0.32130000  0.94960000  0.92980000  1
  H  H27  1  0.35690000  0.97510000  0.81340000  1
  H  H28  1  0.37180000  0.05980000  0.01780000  1
  H  H29  1  0.38430000  0.72140000  0.43940000  1
  H  H30  1  0.38920000  0.68780000  0.54650000  1
  H  H31  1  0.42300000  0.57150000  0.99360000  1
  H  H32  1  0.43310000  0.16160000  0.10110000  1
  H  H33  1  0.44190000  0.57440000  0.87260000  1
  H  H34  1  0.45360000  0.10460000  0.78980000  1
  H  H35  1  0.48900000  0.29090000  0.17580000  1
  H  H36  1  0.51100000  0.70910000  0.82420000  1
  H  H37  1  0.54640000  0.89540000  0.21020000  1
  H  H38  1  0.55810000  0.42560000  0.12740000  1
  H  H39  1  0.56690000  0.83840000  0.89890000  1
  H  H40  1  0.57700000  0.42850000  0.00640000  1
  H  H41  1  0.61080000  0.31220000  0.45350000  1
  H  H42  1  0.61570000  0.27860000  0.56060000  1
  H  H43  1  0.62820000  0.94020000  0.98220000  1
  H  H44  1  0.64310000  0.02490000  0.18660000  1
  H  H45  1  0.67870000  0.05040000  0.07020000  1
  H  H46  1  0.68200000  0.61170000  0.07250000  1
  H  H47  1  0.70550000  0.55510000  0.97120000  1
  H  H48  1  0.71650000  0.27920000  0.25970000  1
  H  H49  1  0.71860000  0.11070000  0.72820000  1
  H  H50  1  0.78140000  0.61070000  0.77180000  1
  H  H51  1  0.78350000  0.77920000  0.24030000  1
  H  H52  1  0.79450000  0.05510000  0.52880000  1
  H  H53  1  0.81800000  0.11170000  0.42750000  1
  H  H54  1  0.82130000  0.55040000  0.42980000  1
  H  H55  1  0.85690000  0.52490000  0.31340000  1
  H  H56  1  0.87180000  0.44020000  0.51780000  1
  H  H57  1  0.88430000  0.77860000  0.93940000  1
  H  H58  1  0.88920000  0.81220000  0.04650000  1
  H  H59  1  0.92300000  0.92850000  0.49360000  1
  H  H60  1  0.93310000  0.33840000  0.60110000  1
  H  H61  1  0.94190000  0.92560000  0.37260000  1
  H  H62  1  0.95360000  0.39540000  0.28980000  1
  H  H63  1  0.98900000  0.20910000  0.67580000  1
  C  C64  1  0.00450000  0.79320000  0.37380000  1
  C  C65  1  0.02390000  0.72240000  0.49280000  1
  C  C66  1  0.03750000  0.71540000  0.41780000  1
  C  C67  1  0.03760000  0.12650000  0.59790000  1
  C  C68  1  0.04820000  0.12550000  0.52550000  1
  C  C69  1  0.05650000  0.64720000  0.54600000  1
  C  C70  1  0.06300000  0.59650000  0.66300000  1
  C  C71  1  0.09680000  0.23750000  0.19980000  1
  C  C72  1  0.09850000  0.10190000  0.82500000  1
  C  C73  1  0.11180000  0.56850000  0.52940000  1
  C  C74  1  0.12040000  0.51750000  0.64950000  1
  C  C75  1  0.14240000  0.50370000  0.58160000  1
  C  C76  1  0.14920000  0.85610000  0.70860000  1
  C  C77  1  0.15220000  0.22000000  0.92410000  1
  C  C78  1  0.15400000  0.18940000  0.85250000  1
  C  C79  1  0.15410000  0.27380000  0.07840000  1
  C  C80  1  0.15650000  0.29790000  0.15170000  1
  C  C81  1  0.16550000  0.01030000  0.33820000  1
  C  C82  1  0.20780000  0.32660000  0.03090000  1
  C  C83  1  0.20900000  0.29610000  0.95270000  1
  C  C84  1  0.21460000  0.37430000  0.17890000  1
  C  C85  1  0.21640000  0.23820000  0.80830000  1
  C  C86  1  0.22310000  0.81120000  0.66330000  1
  C  C87  1  0.22500000  0.83970000  0.59150000  1
  C  C88  1  0.23280000  0.92890000  0.36710000  1
  C  C89  1  0.23850000  0.90600000  0.44030000  1
  C  C90  1  0.26150000  0.40600000  0.05970000  1
  C  C91  1  0.26720000  0.42890000  0.13290000  1
  C  C92  1  0.27500000  0.33970000  0.90850000  1
  C  C93  1  0.27690000  0.31120000  0.83670000  1
  C  C94  1  0.28360000  0.73820000  0.69170000  1
  C  C95  1  0.28540000  0.87430000  0.32110000  1
  C  C96  1  0.29100000  0.79610000  0.54730000  1
  C  C97  1  0.29220000  0.82660000  0.46910000  1
  C  C98  1  0.33450000  0.51030000  0.16180000  1
  C  C99  1  0.34350000  0.79790000  0.34830000  1
  C  C100  1  0.34590000  0.77380000  0.42160000  1
  C  C101  1  0.34600000  0.68940000  0.64750000  1
  C  C102  1  0.34780000  0.72000000  0.57590000  1
  C  C103  1  0.35080000  0.35610000  0.79140000  1
  C  C104  1  0.35760000  0.00370000  0.91840000  1
  C  C105  1  0.37960000  0.01750000  0.85050000  1
  C  C106  1  0.38820000  0.06850000  0.97060000  1
  C  C107  1  0.40150000  0.60190000  0.67500000  1
  C  C108  1  0.40320000  0.73750000  0.30020000  1
  C  C109  1  0.43700000  0.09650000  0.83700000  1
  C  C110  1  0.44350000  0.14720000  0.95400000  1
  C  C111  1  0.45180000  0.62550000  0.97450000  1
  C  C112  1  0.46240000  0.62650000  0.90210000  1
  C  C113  1  0.46250000  0.21540000  0.08220000  1
  C  C114  1  0.47610000  0.22240000  0.00720000  1
  C  C115  1  0.49550000  0.29320000  0.12620000  1
  C  C116  1  0.50450000  0.70680000  0.87380000  1
  C  C117  1  0.52390000  0.77760000  0.99280000  1
  C  C118  1  0.53750000  0.78460000  0.91780000  1
  C  C119  1  0.53760000  0.37350000  0.09790000  1
  C  C120  1  0.54820000  0.37450000  0.02550000  1
  C  C121  1  0.55650000  0.85280000  0.04600000  1
  C  C122  1  0.56300000  0.90350000  0.16300000  1
  C  C123  1  0.59680000  0.26250000  0.69980000  1
  C  C124  1  0.59850000  0.39810000  0.32500000  1
  C  C125  1  0.61180000  0.93150000  0.02940000  1
  C  C126  1  0.62040000  0.98250000  0.14950000  1
  C  C127  1  0.64240000  0.99630000  0.08160000  1
  C  C128  1  0.64920000  0.64390000  0.20860000  1
  C  C129  1  0.65220000  0.28000000  0.42410000  1
  C  C130  1  0.65400000  0.31060000  0.35250000  1
  C  C131  1  0.65410000  0.22620000  0.57840000  1
  C  C132  1  0.65650000  0.20210000  0.65170000  1
  C  C133  1  0.66550000  0.48970000  0.83820000  1
  C  C134  1  0.70780000  0.17340000  0.53090000  1
  C  C135  1  0.70900000  0.20390000  0.45270000  1
  C  C136  1  0.71460000  0.12570000  0.67890000  1
  C  C137  1  0.71640000  0.26180000  0.30830000  1
  C  C138  1  0.72310000  0.68880000  0.16330000  1
  C  C139  1  0.72500000  0.66030000  0.09150000  1
  C  C140  1  0.73280000  0.57110000  0.86710000  1
  C  C141  1  0.73850000  0.59400000  0.94030000  1
  C  C142  1  0.76150000  0.09400000  0.55970000  1
  C  C143  1  0.76720000  0.07110000  0.63290000  1
  C  C144  1  0.77500000  0.16030000  0.40850000  1
  C  C145  1  0.77690000  0.18880000  0.33670000  1
  C  C146  1  0.78360000  0.76180000  0.19170000  1
  C  C147  1  0.78540000  0.62570000  0.82110000  1
  C  C148  1  0.79100000  0.70390000  0.04730000  1
  C  C149  1  0.79220000  0.67340000  0.96910000  1
  C  C150  1  0.83450000  0.98970000  0.66180000  1
  C  C151  1  0.84350000  0.70210000  0.84830000  1
  C  C152  1  0.84590000  0.72620000  0.92160000  1
  C  C153  1  0.84600000  0.81060000  0.14750000  1
  C  C154  1  0.84780000  0.78000000  0.07590000  1
  C  C155  1  0.85080000  0.14390000  0.29140000  1
  C  C156  1  0.85760000  0.49630000  0.41840000  1
  C  C157  1  0.87960000  0.48250000  0.35050000  1
  C  C158  1  0.88820000  0.43150000  0.47060000  1
  C  C159  1  0.90150000  0.89810000  0.17500000  1
  C  C160  1  0.90320000  0.76250000  0.80020000  1
  C  C161  1  0.93700000  0.40350000  0.33700000  1
  C  C162  1  0.94350000  0.35280000  0.45400000  1
  C  C163  1  0.95180000  0.87450000  0.47450000  1
  C  C164  1  0.96240000  0.87350000  0.40210000  1
  C  C165  1  0.96250000  0.28460000  0.58220000  1
  C  C166  1  0.97610000  0.27760000  0.50720000  1
  C  C167  1  0.99550000  0.20680000  0.62620000  1
  N  N168  1  0.02050000  0.19570000  0.48160000  1
  N  N169  1  0.02980000  0.66180000  0.61430000  1
  N  N170  1  0.47020000  0.16180000  0.88570000  1
  N  N171  1  0.47950000  0.69570000  0.01840000  1
  N  N172  1  0.52050000  0.30430000  0.98160000  1
  N  N173  1  0.52980000  0.83820000  0.11430000  1
  N  N174  1  0.97020000  0.33820000  0.38570000  1
  N  N175  1  0.97950000  0.80430000  0.51840000  1
  O  O176  1  0.04810000  0.16860000  0.16993000  1
  O  O177  1  0.05500000  0.04980000  0.86761000  1
  O  O178  1  0.06210000  0.88240000  0.67677000  1
  O  O179  1  0.09670000  0.08040000  0.75871000  1
  O  O180  1  0.10030000  0.25970000  0.26534000  1
  O  O181  1  0.12800000  0.00530000  0.27203000  1
  O  O182  1  0.15010000  0.07650000  0.38142000  1
  O  O183  1  0.17060000  0.86680000  0.77530000  1
  O  O184  1  0.32940000  0.36680000  0.72470000  1
  O  O185  1  0.34990000  0.57650000  0.11858000  1
  O  O186  1  0.37200000  0.50530000  0.22797000  1
  O  O187  1  0.39970000  0.75970000  0.23466000  1
  O  O188  1  0.40330000  0.58040000  0.74129000  1
  O  O189  1  0.43790000  0.38240000  0.82323000  1
  O  O190  1  0.44500000  0.54980000  0.63239000  1
  O  O191  1  0.45190000  0.66860000  0.33007000  1
  O  O192  1  0.54810000  0.33140000  0.66993000  1
  O  O193  1  0.55500000  0.45020000  0.36761000  1
  O  O194  1  0.56210000  0.61760000  0.17677000  1
  O  O195  1  0.59670000  0.41960000  0.25871000  1
  O  O196  1  0.60030000  0.24030000  0.76534000  1
  O  O197  1  0.62800000  0.49470000  0.77203000  1
  O  O198  1  0.65010000  0.42350000  0.88142000  1
  O  O199  1  0.67060000  0.63320000  0.27530000  1
  O  O200  1  0.82940000  0.13320000  0.22470000  1
  O  O201  1  0.84990000  0.92350000  0.61858000  1
  O  O202  1  0.87200000  0.99470000  0.72797000  1
  O  O203  1  0.89970000  0.74030000  0.73466000  1
  O  O204  1  0.90330000  0.91960000  0.24129000  1
  O  O205  1  0.93790000  0.11760000  0.32323000  1
  O  O206  1  0.94500000  0.95020000  0.13239000  1
  O  O207  1  0.95190000  0.83140000  0.83007000  1
