# generated using pymatgen
data_Eu2H9C24(NO4)3
_symmetry_space_group_name_H-M   'P 1'
_cell_length_a   10.94400000
_cell_length_b   11.12900000
_cell_length_c   15.99800000
_cell_angle_alpha   75.57000000
_cell_angle_beta   82.96000000
_cell_angle_gamma   75.56000000
_symmetry_Int_Tables_number   1
_chemical_formula_structural   Eu2H9C24(NO4)3
_chemical_formula_sum   'Eu4 H18 C48 N6 O24'
_cell_volume   1823.61096081
_cell_formula_units_Z   2
loop_
 _symmetry_equiv_pos_site_id
 _symmetry_equiv_pos_as_xyz
  1  'x, y, z'
loop_
 _atom_site_type_symbol
 _atom_site_label
 _atom_site_symmetry_multiplicity
 _atom_site_fract_x
 _atom_site_fract_y
 _atom_site_fract_z
 _atom_site_occupancy
  Eu  Eu0  1  0.20768000  0.99481000  0.86643000  1
  Eu  Eu1  1  0.41255000  0.16000000  0.62672000  1
  Eu  Eu2  1  0.58745000  0.84000000  0.37328000  1
  Eu  Eu3  1  0.79232000  0.00519000  0.13357000  1
  H  H4  1  0.02620000  0.12220000  0.21760000  1
  H  H5  1  0.12590000  0.34440000  0.91770000  1
  H  H6  1  0.13020000  0.71230000  0.89360000  1
  H  H7  1  0.14450000  0.15830000  0.50640000  1
  H  H8  1  0.15010000  0.84030000  0.31870000  1
  H  H9  1  0.20290000  0.83310000  0.56190000  1
  H  H10  1  0.33270000  0.51840000  0.72340000  1
  H  H11  1  0.34080000  0.04260000  0.06700000  1
  H  H12  1  0.36250000  0.10070000  0.30260000  1
  H  H13  1  0.63750000  0.89930000  0.69740000  1
  H  H14  1  0.65920000  0.95740000  0.93300000  1
  H  H15  1  0.66730000  0.48160000  0.27660000  1
  H  H16  1  0.79710000  0.16690000  0.43810000  1
  H  H17  1  0.84990000  0.15970000  0.68130000  1
  H  H18  1  0.85550000  0.84170000  0.49360000  1
  H  H19  1  0.86980000  0.28770000  0.10640000  1
  H  H20  1  0.87410000  0.65560000  0.08230000  1
  H  H21  1  0.97380000  0.87780000  0.78240000  1
  C  C22  1  0.01030000  0.15530000  0.60380000  1
  C  C23  1  0.02240000  0.83970000  0.54240000  1
  C  C24  1  0.05960000  0.15800000  0.52110000  1
  C  C25  1  0.09350000  0.07460000  0.06520000  1
  C  C26  1  0.10020000  0.13890000  0.67270000  1
  C  C27  1  0.11350000  0.11070000  0.20840000  1
  C  C28  1  0.11350000  0.52930000  0.91510000  1
  C  C29  1  0.11750000  0.84060000  0.37520000  1
  C  C30  1  0.14930000  0.83610000  0.52020000  1
  C  C31  1  0.15370000  0.41680000  0.88790000  1
  C  C32  1  0.15630000  0.63780000  0.87340000  1
  C  C33  1  0.17040000  0.08360000  0.13440000  1
  C  C34  1  0.18280000  0.12190000  0.27130000  1
  C  C35  1  0.19590000  0.83710000  0.43630000  1
  C  C36  1  0.23510000  0.41410000  0.81650000  1
  C  C37  1  0.24040000  0.63200000  0.79980000  1
  C  C38  1  0.27720000  0.29090000  0.78740000  1
  C  C39  1  0.27770000  0.52190000  0.77240000  1
  C  C40  1  0.28530000  0.74760000  0.75530000  1
  C  C41  1  0.30260000  0.05980000  0.11920000  1
  C  C42  1  0.31450000  0.09600000  0.25990000  1
  C  C43  1  0.32930000  0.84290000  0.41040000  1
  C  C44  1  0.37400000  0.06250000  0.18310000  1
  C  C45  1  0.48560000  0.97670000  0.82520000  1
  C  C46  1  0.51440000  0.02330000  0.17480000  1
  C  C47  1  0.62600000  0.93750000  0.81690000  1
  C  C48  1  0.67070000  0.15710000  0.58960000  1
  C  C49  1  0.68550000  0.90400000  0.74010000  1
  C  C50  1  0.69740000  0.94020000  0.88080000  1
  C  C51  1  0.71470000  0.25240000  0.24470000  1
  C  C52  1  0.72230000  0.47810000  0.22760000  1
  C  C53  1  0.72280000  0.70910000  0.21260000  1
  C  C54  1  0.75960000  0.36800000  0.20020000  1
  C  C55  1  0.76490000  0.58590000  0.18350000  1
  C  C56  1  0.80410000  0.16290000  0.56370000  1
  C  C57  1  0.81720000  0.87810000  0.72870000  1
  C  C58  1  0.82960000  0.91640000  0.86560000  1
  C  C59  1  0.84370000  0.36220000  0.12660000  1
  C  C60  1  0.84630000  0.58320000  0.11210000  1
  C  C61  1  0.85070000  0.16390000  0.47980000  1
  C  C62  1  0.88250000  0.15940000  0.62480000  1
  C  C63  1  0.88650000  0.47070000  0.08490000  1
  C  C64  1  0.88650000  0.88930000  0.79160000  1
  C  C65  1  0.89980000  0.86110000  0.32730000  1
  C  C66  1  0.90650000  0.92540000  0.93480000  1
  C  C67  1  0.94040000  0.84200000  0.47890000  1
  C  C68  1  0.97760000  0.16030000  0.45760000  1
  C  C69  1  0.98970000  0.84470000  0.39620000  1
  N  N70  1  0.01980000  0.15440000  0.36980000  1
  N  N71  1  0.02680000  0.54540000  0.98550000  1
  N  N72  1  0.13640000  0.13900000  0.35580000  1
  N  N73  1  0.86360000  0.86100000  0.64420000  1
  N  N74  1  0.97320000  0.45460000  0.01450000  1
  N  N75  1  0.98020000  0.84560000  0.63020000  1
  O  O76  1  0.02050000  0.92630000  0.91550000  1
  O  O77  1  0.06830000  0.09520000  0.74930000  1
  O  O78  1  0.14750000  0.06970000  0.99230000  1
  O  O79  1  0.20340000  0.16610000  0.64680000  1
  O  O80  1  0.22640000  0.20200000  0.82620000  1
  O  O81  1  0.24480000  0.84720000  0.78430000  1
  O  O82  1  0.35790000  0.74600000  0.68990000  1
  O  O83  1  0.35960000  0.28660000  0.72700000  1
  O  O84  1  0.37980000  0.81680000  0.34180000  1
  O  O85  1  0.38920000  0.88260000  0.45820000  1
  O  O86  1  0.42610000  0.00400000  0.75650000  1
  O  O87  1  0.42860000  0.98000000  0.89630000  1
  O  O88  1  0.57140000  0.02000000  0.10370000  1
  O  O89  1  0.57390000  0.99600000  0.24350000  1
  O  O90  1  0.61080000  0.11740000  0.54180000  1
  O  O91  1  0.62020000  0.18320000  0.65820000  1
  O  O92  1  0.64040000  0.71340000  0.27300000  1
  O  O93  1  0.64210000  0.25400000  0.31010000  1
  O  O94  1  0.75520000  0.15280000  0.21570000  1
  O  O95  1  0.77360000  0.79800000  0.17380000  1
  O  O96  1  0.79660000  0.83390000  0.35320000  1
  O  O97  1  0.85250000  0.93030000  0.00770000  1
  O  O98  1  0.93170000  0.90480000  0.25070000  1
  O  O99  1  0.97950000  0.07370000  0.08450000  1
