# generated using pymatgen
data_Zn3P4(HO3)4
_symmetry_space_group_name_H-M   'P 1'
_cell_length_a   9.74120000
_cell_length_b   13.09550000
_cell_length_c   15.69220000
_cell_angle_alpha   90.00000000
_cell_angle_beta   95.09200000
_cell_angle_gamma   90.00000000
_symmetry_Int_Tables_number   1
_chemical_formula_structural   Zn3P4(HO3)4
_chemical_formula_sum   'Zn12 P16 H16 O48'
_cell_volume   1993.88924787
_cell_formula_units_Z   4
loop_
 _symmetry_equiv_pos_site_id
 _symmetry_equiv_pos_as_xyz
  1  'x, y, z'
loop_
 _atom_site_type_symbol
 _atom_site_label
 _atom_site_symmetry_multiplicity
 _atom_site_fract_x
 _atom_site_fract_y
 _atom_site_fract_z
 _atom_site_occupancy
  Zn  Zn0  1  0.18929000  0.52908000  0.06590000  1
  Zn  Zn1  1  0.18929000  0.97092000  0.56590000  1
  Zn  Zn2  1  0.28845000  0.13752000  0.25016000  1
  Zn  Zn3  1  0.28845000  0.36248000  0.75016000  1
  Zn  Zn4  1  0.40300000  0.13144000  0.90995000  1
  Zn  Zn5  1  0.40300000  0.36856000  0.40995000  1
  Zn  Zn6  1  0.59700000  0.63144000  0.59005000  1
  Zn  Zn7  1  0.59700000  0.86856000  0.09005000  1
  Zn  Zn8  1  0.71155000  0.63752000  0.24984000  1
  Zn  Zn9  1  0.71155000  0.86248000  0.74984000  1
  Zn  Zn10  1  0.81071000  0.02908000  0.43410000  1
  Zn  Zn11  1  0.81071000  0.47092000  0.93410000  1
  P  P12  1  0.10195000  0.11297000  0.40618000  1
  P  P13  1  0.10195000  0.38703000  0.90618000  1
  P  P14  1  0.30293000  0.12087000  0.71366000  1
  P  P15  1  0.30293000  0.37913000  0.21366000  1
  P  P16  1  0.35934000  0.03917000  0.08559000  1
  P  P17  1  0.35934000  0.46083000  0.58559000  1
  P  P18  1  0.49734000  0.12727000  0.40727000  1
  P  P19  1  0.49734000  0.37273000  0.90727000  1
  P  P20  1  0.50266000  0.62727000  0.09273000  1
  P  P21  1  0.50266000  0.87273000  0.59273000  1
  P  P22  1  0.64066000  0.53917000  0.41441000  1
  P  P23  1  0.64066000  0.96083000  0.91441000  1
  P  P24  1  0.69707000  0.62087000  0.78634000  1
  P  P25  1  0.69707000  0.87913000  0.28634000  1
  P  P26  1  0.89805000  0.61297000  0.09382000  1
  P  P27  1  0.89805000  0.88703000  0.59382000  1
  H  H28  1  0.17070000  0.19630000  0.45550000  1
  H  H29  1  0.17070000  0.30370000  0.95550000  1
  H  H30  1  0.43670000  0.06050000  0.44530000  1
  H  H31  1  0.43670000  0.43950000  0.94530000  1
  H  H32  1  0.43770000  0.09280000  0.68850000  1
  H  H33  1  0.43770000  0.40720000  0.18850000  1
  H  H34  1  0.46020000  0.11300000  0.11380000  1
  H  H35  1  0.46020000  0.38700000  0.61380000  1
  H  H36  1  0.53980000  0.61300000  0.38620000  1
  H  H37  1  0.53980000  0.88700000  0.88620000  1
  H  H38  1  0.56230000  0.59280000  0.81150000  1
  H  H39  1  0.56230000  0.90720000  0.31150000  1
  H  H40  1  0.56330000  0.56050000  0.05470000  1
  H  H41  1  0.56330000  0.93950000  0.55470000  1
  H  H42  1  0.82930000  0.69630000  0.04450000  1
  H  H43  1  0.82930000  0.80370000  0.54450000  1
  O  O44  1  0.04970000  0.63240000  0.08410000  1
  O  O45  1  0.04970000  0.86760000  0.58410000  1
  O  O46  1  0.13040000  0.11830000  0.31320000  1
  O  O47  1  0.13040000  0.38170000  0.81320000  1
  O  O48  1  0.15370000  0.01420000  0.44791000  1
  O  O49  1  0.15370000  0.48580000  0.94791000  1
  O  O50  1  0.19100000  0.06580000  0.65832000  1
  O  O51  1  0.19100000  0.43420000  0.15832000  1
  O  O52  1  0.25350000  0.05070000  0.15029000  1
  O  O53  1  0.25350000  0.44930000  0.65029000  1
  O  O54  1  0.29280000  0.09750000  0.80646000  1
  O  O55  1  0.29280000  0.40250000  0.30646000  1
  O  O56  1  0.29980000  0.07040000  0.99708000  1
  O  O57  1  0.29980000  0.42960000  0.49708000  1
  O  O58  1  0.30590000  0.23280000  0.69540000  1
  O  O59  1  0.30590000  0.26720000  0.19540000  1
  O  O60  1  0.35130000  0.61310000  0.06927000  1
  O  O61  1  0.35130000  0.88690000  0.56927000  1
  O  O62  1  0.41780000  0.56710000  0.58640000  1
  O  O63  1  0.41780000  0.93290000  0.08640000  1
  O  O64  1  0.44670000  0.22850000  0.43570000  1
  O  O65  1  0.44670000  0.27150000  0.93570000  1
  O  O66  1  0.46070000  0.10670000  0.31400000  1
  O  O67  1  0.46070000  0.39330000  0.81400000  1
  O  O68  1  0.53930000  0.60670000  0.18600000  1
  O  O69  1  0.53930000  0.89330000  0.68600000  1
  O  O70  1  0.55330000  0.72850000  0.06430000  1
  O  O71  1  0.55330000  0.77150000  0.56430000  1
  O  O72  1  0.58220000  0.06710000  0.91360000  1
  O  O73  1  0.58220000  0.43290000  0.41360000  1
  O  O74  1  0.64870000  0.11310000  0.43073000  1
  O  O75  1  0.64870000  0.38690000  0.93073000  1
  O  O76  1  0.69410000  0.73280000  0.80460000  1
  O  O77  1  0.69410000  0.76720000  0.30460000  1
  O  O78  1  0.70020000  0.57040000  0.50292000  1
  O  O79  1  0.70020000  0.92960000  0.00292000  1
  O  O80  1  0.70720000  0.59750000  0.69354000  1
  O  O81  1  0.70720000  0.90250000  0.19354000  1
  O  O82  1  0.74650000  0.55070000  0.34971000  1
  O  O83  1  0.74650000  0.94930000  0.84971000  1
  O  O84  1  0.80900000  0.56580000  0.84168000  1
  O  O85  1  0.80900000  0.93420000  0.34168000  1
  O  O86  1  0.84630000  0.51420000  0.05209000  1
  O  O87  1  0.84630000  0.98580000  0.55209000  1
  O  O88  1  0.86960000  0.61830000  0.18680000  1
  O  O89  1  0.86960000  0.88170000  0.68680000  1
  O  O90  1  0.95030000  0.13240000  0.41590000  1
  O  O91  1  0.95030000  0.36760000  0.91590000  1
