# generated using pymatgen
data_Na2CoH8(C2O)8
_symmetry_space_group_name_H-M   'P 1'
_cell_length_a   9.96600000
_cell_length_b   9.96600000
_cell_length_c   20.47200000
_cell_angle_alpha   90.00000000
_cell_angle_beta   90.00000000
_cell_angle_gamma   90.00000000
_symmetry_Int_Tables_number   1
_chemical_formula_structural   Na2CoH8(C2O)8
_chemical_formula_sum   'Na8 Co4 H32 C64 O32'
_cell_volume   2033.30270563
_cell_formula_units_Z   4
loop_
 _symmetry_equiv_pos_site_id
 _symmetry_equiv_pos_as_xyz
  1  'x, y, z'
loop_
 _atom_site_type_symbol
 _atom_site_label
 _atom_site_symmetry_multiplicity
 _atom_site_fract_x
 _atom_site_fract_y
 _atom_site_fract_z
 _atom_site_occupancy
  Na  Na0  1  0.05710000  0.14710000  0.52078000  1
  Na  Na1  1  0.14710000  0.94290000  0.77078000  1
  Na  Na2  1  0.20040000  0.27680000  0.77966000  1
  Na  Na3  1  0.27680000  0.79960000  0.02966000  1
  Na  Na4  1  0.72320000  0.20040000  0.52966000  1
  Na  Na5  1  0.79960000  0.72320000  0.27966000  1
  Na  Na6  1  0.85290000  0.05710000  0.27078000  1
  Na  Na7  1  0.94290000  0.85290000  0.02078000  1
  Co  Co8  1  0.09863000  0.78454000  0.89562000  1
  Co  Co9  1  0.21546000  0.09863000  0.64562000  1
  Co  Co10  1  0.78454000  0.90137000  0.14562000  1
  Co  Co11  1  0.90137000  0.21546000  0.39562000  1
  H  H12  1  0.07640000  0.85730000  0.30750000  1
  H  H13  1  0.10150000  0.32350000  0.90200000  1
  H  H14  1  0.11590000  0.48020000  0.08390000  1
  H  H15  1  0.13450000  0.26420000  0.12720000  1
  H  H16  1  0.14270000  0.07640000  0.05750000  1
  H  H17  1  0.19800000  0.21040000  0.22850000  1
  H  H18  1  0.21040000  0.80200000  0.47850000  1
  H  H19  1  0.21860000  0.61610000  0.65430000  1
  H  H20  1  0.23240000  0.59720000  0.42620000  1
  H  H21  1  0.24100000  0.39870000  0.48780000  1
  H  H22  1  0.26420000  0.86550000  0.37720000  1
  H  H23  1  0.32350000  0.89850000  0.15200000  1
  H  H24  1  0.38390000  0.21860000  0.40430000  1
  H  H25  1  0.39870000  0.75900000  0.73780000  1
  H  H26  1  0.40280000  0.23240000  0.17620000  1
  H  H27  1  0.48020000  0.88410000  0.33390000  1
  H  H28  1  0.51980000  0.11590000  0.83390000  1
  H  H29  1  0.59720000  0.76760000  0.67620000  1
  H  H30  1  0.60130000  0.24100000  0.23780000  1
  H  H31  1  0.61610000  0.78140000  0.90430000  1
  H  H32  1  0.67650000  0.10150000  0.65200000  1
  H  H33  1  0.73580000  0.13450000  0.87720000  1
  H  H34  1  0.75900000  0.60130000  0.98780000  1
  H  H35  1  0.76760000  0.40280000  0.92620000  1
  H  H36  1  0.78140000  0.38390000  0.15430000  1
  H  H37  1  0.78960000  0.19800000  0.97850000  1
  H  H38  1  0.80200000  0.78960000  0.72850000  1
  H  H39  1  0.85730000  0.92360000  0.55750000  1
  H  H40  1  0.86550000  0.73580000  0.62720000  1
  H  H41  1  0.88410000  0.51980000  0.58390000  1
  H  H42  1  0.89850000  0.67650000  0.40200000  1
  H  H43  1  0.92360000  0.14270000  0.80750000  1
  C  C44  1  0.06470000  0.87520000  0.17760000  1
  C  C45  1  0.09560000  0.56110000  0.96230000  1
  C  C46  1  0.10830000  0.42190000  0.98930000  1
  C  C47  1  0.10990000  0.31100000  0.94780000  1
  C  C48  1  0.11750000  0.40460000  0.05560000  1
  C  C49  1  0.12370000  0.18250000  0.97290000  1
  C  C50  1  0.12480000  0.06470000  0.92760000  1
  C  C51  1  0.12920000  0.27630000  0.08120000  1
  C  C52  1  0.13340000  0.16400000  0.03980000  1
  C  C53  1  0.13790000  0.19920000  0.35540000  1
  C  C54  1  0.16400000  0.86660000  0.28980000  1
  C  C55  1  0.18250000  0.87630000  0.22290000  1
  C  C56  1  0.19920000  0.86210000  0.60540000  1
  C  C57  1  0.21170000  0.72900000  0.57110000  1
  C  C58  1  0.21590000  0.72190000  0.50360000  1
  C  C59  1  0.21960000  0.61210000  0.60790000  1
  C  C60  1  0.22800000  0.60090000  0.47250000  1
  C  C61  1  0.22900000  0.49060000  0.57650000  1
  C  C62  1  0.22940000  0.36420000  0.61710000  1
  C  C63  1  0.23380000  0.48320000  0.50900000  1
  C  C64  1  0.27100000  0.21170000  0.32110000  1
  C  C65  1  0.27630000  0.87080000  0.33120000  1
  C  C66  1  0.27810000  0.21590000  0.25360000  1
  C  C67  1  0.31100000  0.89010000  0.19780000  1
  C  C68  1  0.36420000  0.77060000  0.86710000  1
  C  C69  1  0.38790000  0.21960000  0.35790000  1
  C  C70  1  0.39910000  0.22800000  0.22250000  1
  C  C71  1  0.40460000  0.88250000  0.30560000  1
  C  C72  1  0.42190000  0.89170000  0.23930000  1
  C  C73  1  0.43890000  0.09560000  0.71230000  1
  C  C74  1  0.48320000  0.76620000  0.75900000  1
  C  C75  1  0.49060000  0.77100000  0.82650000  1
  C  C76  1  0.50940000  0.22900000  0.32650000  1
  C  C77  1  0.51680000  0.23380000  0.25900000  1
  C  C78  1  0.56110000  0.90440000  0.21230000  1
  C  C79  1  0.57810000  0.10830000  0.73930000  1
  C  C80  1  0.59540000  0.11750000  0.80560000  1
  C  C81  1  0.60090000  0.77200000  0.72250000  1
  C  C82  1  0.61210000  0.78040000  0.85790000  1
  C  C83  1  0.63580000  0.22940000  0.36710000  1
  C  C84  1  0.68900000  0.10990000  0.69780000  1
  C  C85  1  0.72190000  0.78410000  0.75360000  1
  C  C86  1  0.72370000  0.12920000  0.83120000  1
  C  C87  1  0.72900000  0.78830000  0.82110000  1
  C  C88  1  0.76620000  0.51680000  0.00900000  1
  C  C89  1  0.77060000  0.63580000  0.11710000  1
  C  C90  1  0.77100000  0.50940000  0.07650000  1
  C  C91  1  0.77200000  0.39910000  0.97250000  1
  C  C92  1  0.78040000  0.38790000  0.10790000  1
  C  C93  1  0.78410000  0.27810000  0.00360000  1
  C  C94  1  0.78830000  0.27100000  0.07110000  1
  C  C95  1  0.80080000  0.13790000  0.10540000  1
  C  C96  1  0.81750000  0.12370000  0.72290000  1
  C  C97  1  0.83600000  0.13340000  0.78980000  1
  C  C98  1  0.86210000  0.80080000  0.85540000  1
  C  C99  1  0.86660000  0.83600000  0.53980000  1
  C  C100  1  0.87080000  0.72370000  0.58120000  1
  C  C101  1  0.87520000  0.93530000  0.42760000  1
  C  C102  1  0.87630000  0.81750000  0.47290000  1
  C  C103  1  0.88250000  0.59540000  0.55560000  1
  C  C104  1  0.89010000  0.68900000  0.44780000  1
  C  C105  1  0.89170000  0.57810000  0.48930000  1
  C  C106  1  0.90440000  0.43890000  0.46230000  1
  C  C107  1  0.93530000  0.12480000  0.67760000  1
  O  O108  1  0.03270000  0.18910000  0.31940000  1
  O  O109  1  0.05210000  0.11570000  0.70383000  1
  O  O110  1  0.08350000  0.86550000  0.11662000  1
  O  O111  1  0.08870000  0.57490000  0.90030000  1
  O  O112  1  0.09840000  0.66160000  0.99890000  1
  O  O113  1  0.11570000  0.94790000  0.95383000  1
  O  O114  1  0.12920000  0.20220000  0.41607000  1
  O  O115  1  0.13450000  0.08350000  0.86662000  1
  O  O116  1  0.18910000  0.96730000  0.56940000  1
  O  O117  1  0.20220000  0.87080000  0.66607000  1
  O  O118  1  0.21270000  0.25430000  0.58450000  1
  O  O119  1  0.24210000  0.36720000  0.67670000  1
  O  O120  1  0.25430000  0.78730000  0.83450000  1
  O  O121  1  0.33840000  0.09840000  0.74890000  1
  O  O122  1  0.36720000  0.75790000  0.92670000  1
  O  O123  1  0.42510000  0.08870000  0.65030000  1
  O  O124  1  0.57490000  0.91130000  0.15030000  1
  O  O125  1  0.63280000  0.24210000  0.42670000  1
  O  O126  1  0.66160000  0.90160000  0.24890000  1
  O  O127  1  0.74570000  0.21270000  0.33450000  1
  O  O128  1  0.75790000  0.63280000  0.17670000  1
  O  O129  1  0.78730000  0.74570000  0.08450000  1
  O  O130  1  0.79780000  0.12920000  0.16607000  1
  O  O131  1  0.81090000  0.03270000  0.06940000  1
  O  O132  1  0.86550000  0.91650000  0.36662000  1
  O  O133  1  0.87080000  0.79780000  0.91607000  1
  O  O134  1  0.88430000  0.05210000  0.45383000  1
  O  O135  1  0.90160000  0.33840000  0.49890000  1
  O  O136  1  0.91130000  0.42510000  0.40030000  1
  O  O137  1  0.91650000  0.13450000  0.61662000  1
  O  O138  1  0.94790000  0.88430000  0.20383000  1
  O  O139  1  0.96730000  0.81090000  0.81940000  1
