# generated using pymatgen
data_MgH2(CO2)2
_symmetry_space_group_name_H-M   'P 1'
_cell_length_a   9.96380000
_cell_length_b   18.08200000
_cell_length_c   18.45000000
_cell_angle_alpha   90.00000000
_cell_angle_beta   90.00000000
_cell_angle_gamma   90.00000000
_symmetry_Int_Tables_number   1
_chemical_formula_structural   MgH2(CO2)2
_chemical_formula_sum   'Mg24 H48 C48 O96'
_cell_volume   3324.05221302
_cell_formula_units_Z   24
loop_
 _symmetry_equiv_pos_site_id
 _symmetry_equiv_pos_as_xyz
  1  'x, y, z'
loop_
 _atom_site_type_symbol
 _atom_site_label
 _atom_site_symmetry_multiplicity
 _atom_site_fract_x
 _atom_site_fract_y
 _atom_site_fract_z
 _atom_site_occupancy
  Mg  Mg0  1  0.00000000  0.00000000  0.50000000  1
  Mg  Mg1  1  0.00000000  0.25000000  0.68441000  1
  Mg  Mg2  1  0.00000000  0.50000000  0.50000000  1
  Mg  Mg3  1  0.00000000  0.75000000  0.31559000  1
  Mg  Mg4  1  0.07509000  0.44144000  0.67847000  1
  Mg  Mg5  1  0.07509000  0.94144000  0.32153000  1
  Mg  Mg6  1  0.11579000  0.46482000  0.21717000  1
  Mg  Mg7  1  0.11579000  0.96482000  0.78283000  1
  Mg  Mg8  1  0.38421000  0.46482000  0.71717000  1
  Mg  Mg9  1  0.38421000  0.96482000  0.28283000  1
  Mg  Mg10  1  0.42491000  0.44144000  0.17847000  1
  Mg  Mg11  1  0.42491000  0.94144000  0.82153000  1
  Mg  Mg12  1  0.50000000  0.00000000  0.00000000  1
  Mg  Mg13  1  0.50000000  0.25000000  0.18441000  1
  Mg  Mg14  1  0.50000000  0.50000000  0.00000000  1
  Mg  Mg15  1  0.50000000  0.75000000  0.81559000  1
  Mg  Mg16  1  0.57509000  0.05856000  0.17847000  1
  Mg  Mg17  1  0.57509000  0.55856000  0.82153000  1
  Mg  Mg18  1  0.61579000  0.03518000  0.71717000  1
  Mg  Mg19  1  0.61579000  0.53518000  0.28283000  1
  Mg  Mg20  1  0.88421000  0.03518000  0.21717000  1
  Mg  Mg21  1  0.88421000  0.53518000  0.78283000  1
  Mg  Mg22  1  0.92491000  0.05856000  0.67847000  1
  Mg  Mg23  1  0.92491000  0.55856000  0.32153000  1
  H  H24  1  0.03850000  0.35600000  0.34860000  1
  H  H25  1  0.03850000  0.85600000  0.65140000  1
  H  H26  1  0.12830000  0.49300000  0.05230000  1
  H  H27  1  0.12830000  0.99300000  0.94770000  1
  H  H28  1  0.15370000  0.13480000  0.52970000  1
  H  H29  1  0.15370000  0.63480000  0.47030000  1
  H  H30  1  0.19680000  0.12580000  0.81480000  1
  H  H31  1  0.19680000  0.62580000  0.18520000  1
  H  H32  1  0.20960000  0.26460000  0.18260000  1
  H  H33  1  0.20960000  0.76460000  0.81740000  1
  H  H34  1  0.23270000  0.00440000  0.13830000  1
  H  H35  1  0.23270000  0.50440000  0.86170000  1
  H  H36  1  0.26730000  0.00440000  0.63830000  1
  H  H37  1  0.26730000  0.50440000  0.36170000  1
  H  H38  1  0.29040000  0.26460000  0.68260000  1
  H  H39  1  0.29040000  0.76460000  0.31740000  1
  H  H40  1  0.30320000  0.12580000  0.31480000  1
  H  H41  1  0.30320000  0.62580000  0.68520000  1
  H  H42  1  0.34630000  0.13480000  0.02970000  1
  H  H43  1  0.34630000  0.63480000  0.97030000  1
  H  H44  1  0.37170000  0.49300000  0.55230000  1
  H  H45  1  0.37170000  0.99300000  0.44770000  1
  H  H46  1  0.46150000  0.35600000  0.84860000  1
  H  H47  1  0.46150000  0.85600000  0.15140000  1
  H  H48  1  0.53850000  0.14400000  0.84860000  1
  H  H49  1  0.53850000  0.64400000  0.15140000  1
  H  H50  1  0.62830000  0.00700000  0.55230000  1
  H  H51  1  0.62830000  0.50700000  0.44770000  1
  H  H52  1  0.65370000  0.36520000  0.02970000  1
  H  H53  1  0.65370000  0.86520000  0.97030000  1
  H  H54  1  0.69680000  0.37420000  0.31480000  1
  H  H55  1  0.69680000  0.87420000  0.68520000  1
  H  H56  1  0.70960000  0.23540000  0.68260000  1
  H  H57  1  0.70960000  0.73540000  0.31740000  1
  H  H58  1  0.73270000  0.49560000  0.63830000  1
  H  H59  1  0.73270000  0.99560000  0.36170000  1
  H  H60  1  0.76730000  0.49560000  0.13830000  1
  H  H61  1  0.76730000  0.99560000  0.86170000  1
  H  H62  1  0.79040000  0.23540000  0.18260000  1
  H  H63  1  0.79040000  0.73540000  0.81740000  1
  H  H64  1  0.80320000  0.37420000  0.81480000  1
  H  H65  1  0.80320000  0.87420000  0.18520000  1
  H  H66  1  0.84630000  0.36520000  0.52970000  1
  H  H67  1  0.84630000  0.86520000  0.47030000  1
  H  H68  1  0.87170000  0.00700000  0.05230000  1
  H  H69  1  0.87170000  0.50700000  0.94770000  1
  H  H70  1  0.96150000  0.14400000  0.34860000  1
  H  H71  1  0.96150000  0.64400000  0.65140000  1
  C  C72  1  0.01940000  0.40410000  0.36310000  1
  C  C73  1  0.01940000  0.90410000  0.63690000  1
  C  C74  1  0.09980000  0.13610000  0.57080000  1
  C  C75  1  0.09980000  0.63610000  0.42920000  1
  C  C76  1  0.13200000  0.13300000  0.77920000  1
  C  C77  1  0.13200000  0.63300000  0.22080000  1
  C  C78  1  0.16570000  0.00110000  0.17330000  1
  C  C79  1  0.16570000  0.50110000  0.82670000  1
  C  C80  1  0.21910000  0.48830000  0.06320000  1
  C  C81  1  0.21910000  0.98830000  0.93680000  1
  C  C82  1  0.22810000  0.31470000  0.18840000  1
  C  C83  1  0.22810000  0.81470000  0.81160000  1
  C  C84  1  0.27190000  0.31470000  0.68840000  1
  C  C85  1  0.27190000  0.81470000  0.31160000  1
  C  C86  1  0.28090000  0.48830000  0.56320000  1
  C  C87  1  0.28090000  0.98830000  0.43680000  1
  C  C88  1  0.33430000  0.00110000  0.67330000  1
  C  C89  1  0.33430000  0.50110000  0.32670000  1
  C  C90  1  0.36800000  0.13300000  0.27920000  1
  C  C91  1  0.36800000  0.63300000  0.72080000  1
  C  C92  1  0.40020000  0.13610000  0.07080000  1
  C  C93  1  0.40020000  0.63610000  0.92920000  1
  C  C94  1  0.48060000  0.40410000  0.86310000  1
  C  C95  1  0.48060000  0.90410000  0.13690000  1
  C  C96  1  0.51940000  0.09590000  0.86310000  1
  C  C97  1  0.51940000  0.59590000  0.13690000  1
  C  C98  1  0.59980000  0.36390000  0.07080000  1
  C  C99  1  0.59980000  0.86390000  0.92920000  1
  C  C100  1  0.63200000  0.36700000  0.27920000  1
  C  C101  1  0.63200000  0.86700000  0.72080000  1
  C  C102  1  0.66570000  0.49890000  0.67330000  1
  C  C103  1  0.66570000  0.99890000  0.32670000  1
  C  C104  1  0.71910000  0.01170000  0.56320000  1
  C  C105  1  0.71910000  0.51170000  0.43680000  1
  C  C106  1  0.72810000  0.18530000  0.68840000  1
  C  C107  1  0.72810000  0.68530000  0.31160000  1
  C  C108  1  0.77190000  0.18530000  0.18840000  1
  C  C109  1  0.77190000  0.68530000  0.81160000  1
  C  C110  1  0.78090000  0.01170000  0.06320000  1
  C  C111  1  0.78090000  0.51170000  0.93680000  1
  C  C112  1  0.83430000  0.49890000  0.17330000  1
  C  C113  1  0.83430000  0.99890000  0.82670000  1
  C  C114  1  0.86800000  0.36700000  0.77920000  1
  C  C115  1  0.86800000  0.86700000  0.22080000  1
  C  C116  1  0.90020000  0.36390000  0.57080000  1
  C  C117  1  0.90020000  0.86390000  0.42920000  1
  C  C118  1  0.98060000  0.09590000  0.36310000  1
  C  C119  1  0.98060000  0.59590000  0.63690000  1
  O  O120  1  0.00150000  0.41490000  0.42807000  1
  O  O121  1  0.00150000  0.91490000  0.57193000  1
  O  O122  1  0.01380000  0.45312000  0.31404000  1
  O  O123  1  0.01380000  0.95312000  0.68596000  1
  O  O124  1  0.02860000  0.07916000  0.58382000  1
  O  O125  1  0.02860000  0.57916000  0.41618000  1
  O  O126  1  0.05440000  0.02720000  0.15762000  1
  O  O127  1  0.05440000  0.52720000  0.84238000  1
  O  O128  1  0.08240000  0.07585000  0.75137000  1
  O  O129  1  0.08240000  0.57585000  0.24863000  1
  O  O130  1  0.10380000  0.19270000  0.60773000  1
  O  O131  1  0.10380000  0.69270000  0.39227000  1
  O  O132  1  0.10420000  0.19730000  0.76458000  1
  O  O133  1  0.10420000  0.69730000  0.23542000  1
  O  O134  1  0.13220000  0.35510000  0.20000000  1
  O  O135  1  0.13220000  0.85510000  0.80000000  1
  O  O136  1  0.15050000  0.33369000  0.68343000  1
  O  O137  1  0.15050000  0.83369000  0.31657000  1
  O  O138  1  0.19640000  0.47043000  0.76727000  1
  O  O139  1  0.19640000  0.97043000  0.23273000  1
  O  O140  1  0.20390000  0.49110000  0.51247000  1
  O  O141  1  0.20390000  0.99110000  0.48753000  1
  O  O142  1  0.24820000  0.47962000  0.12846000  1
  O  O143  1  0.24820000  0.97962000  0.87154000  1
  O  O144  1  0.25180000  0.47962000  0.62846000  1
  O  O145  1  0.25180000  0.97962000  0.37154000  1
  O  O146  1  0.29610000  0.49110000  0.01247000  1
  O  O147  1  0.29610000  0.99110000  0.98753000  1
  O  O148  1  0.30360000  0.47043000  0.26727000  1
  O  O149  1  0.30360000  0.97043000  0.73273000  1
  O  O150  1  0.34950000  0.33369000  0.18343000  1
  O  O151  1  0.34950000  0.83369000  0.81657000  1
  O  O152  1  0.36780000  0.35510000  0.70000000  1
  O  O153  1  0.36780000  0.85510000  0.30000000  1
  O  O154  1  0.39580000  0.19730000  0.26458000  1
  O  O155  1  0.39580000  0.69730000  0.73542000  1
  O  O156  1  0.39620000  0.19270000  0.10773000  1
  O  O157  1  0.39620000  0.69270000  0.89227000  1
  O  O158  1  0.41760000  0.07585000  0.25137000  1
  O  O159  1  0.41760000  0.57585000  0.74863000  1
  O  O160  1  0.44560000  0.02720000  0.65762000  1
  O  O161  1  0.44560000  0.52720000  0.34238000  1
  O  O162  1  0.47140000  0.07916000  0.08382000  1
  O  O163  1  0.47140000  0.57916000  0.91618000  1
  O  O164  1  0.48620000  0.45312000  0.81404000  1
  O  O165  1  0.48620000  0.95312000  0.18596000  1
  O  O166  1  0.49850000  0.41490000  0.92807000  1
  O  O167  1  0.49850000  0.91490000  0.07193000  1
  O  O168  1  0.50150000  0.08510000  0.92807000  1
  O  O169  1  0.50150000  0.58510000  0.07193000  1
  O  O170  1  0.51380000  0.04688000  0.81404000  1
  O  O171  1  0.51380000  0.54688000  0.18596000  1
  O  O172  1  0.52860000  0.42084000  0.08382000  1
  O  O173  1  0.52860000  0.92084000  0.91618000  1
  O  O174  1  0.55440000  0.47280000  0.65762000  1
  O  O175  1  0.55440000  0.97280000  0.34238000  1
  O  O176  1  0.58240000  0.42415000  0.25137000  1
  O  O177  1  0.58240000  0.92415000  0.74863000  1
  O  O178  1  0.60380000  0.30730000  0.10773000  1
  O  O179  1  0.60380000  0.80730000  0.89227000  1
  O  O180  1  0.60420000  0.30270000  0.26458000  1
  O  O181  1  0.60420000  0.80270000  0.73542000  1
  O  O182  1  0.63220000  0.14490000  0.70000000  1
  O  O183  1  0.63220000  0.64490000  0.30000000  1
  O  O184  1  0.65050000  0.16631000  0.18343000  1
  O  O185  1  0.65050000  0.66631000  0.81657000  1
  O  O186  1  0.69640000  0.02957000  0.26727000  1
  O  O187  1  0.69640000  0.52957000  0.73273000  1
  O  O188  1  0.70390000  0.00890000  0.01247000  1
  O  O189  1  0.70390000  0.50890000  0.98753000  1
  O  O190  1  0.74820000  0.02038000  0.62846000  1
  O  O191  1  0.74820000  0.52038000  0.37154000  1
  O  O192  1  0.75180000  0.02038000  0.12846000  1
  O  O193  1  0.75180000  0.52038000  0.87154000  1
  O  O194  1  0.79610000  0.00890000  0.51247000  1
  O  O195  1  0.79610000  0.50890000  0.48753000  1
  O  O196  1  0.80360000  0.02957000  0.76727000  1
  O  O197  1  0.80360000  0.52957000  0.23273000  1
  O  O198  1  0.84950000  0.16631000  0.68343000  1
  O  O199  1  0.84950000  0.66631000  0.31657000  1
  O  O200  1  0.86780000  0.14490000  0.20000000  1
  O  O201  1  0.86780000  0.64490000  0.80000000  1
  O  O202  1  0.89580000  0.30270000  0.76458000  1
  O  O203  1  0.89580000  0.80270000  0.23542000  1
  O  O204  1  0.89620000  0.30730000  0.60773000  1
  O  O205  1  0.89620000  0.80730000  0.39227000  1
  O  O206  1  0.91760000  0.42415000  0.75137000  1
  O  O207  1  0.91760000  0.92415000  0.24863000  1
  O  O208  1  0.94560000  0.47280000  0.15762000  1
  O  O209  1  0.94560000  0.97280000  0.84238000  1
  O  O210  1  0.97140000  0.42084000  0.58382000  1
  O  O211  1  0.97140000  0.92084000  0.41618000  1
  O  O212  1  0.98620000  0.04688000  0.31404000  1
  O  O213  1  0.98620000  0.54688000  0.68596000  1
  O  O214  1  0.99850000  0.08510000  0.42807000  1
  O  O215  1  0.99850000  0.58510000  0.57193000  1
