# generated using pymatgen
data_Mn3H33C39N8O9
_symmetry_space_group_name_H-M   'P 1'
_cell_length_a   18.03300000
_cell_length_b   29.63006582
_cell_length_c   29.63006582
_cell_angle_alpha   84.68680206
_cell_angle_beta   72.28380073
_cell_angle_gamma   72.28380073
_symmetry_Int_Tables_number   1
_chemical_formula_structural   Mn3H33C39N8O9
_chemical_formula_sum   'Mn24 H264 C312 N64 O72'
_cell_volume   14365.87274042
_cell_formula_units_Z   8
loop_
 _symmetry_equiv_pos_site_id
 _symmetry_equiv_pos_as_xyz
  1  'x, y, z'
loop_
 _atom_site_type_symbol
 _atom_site_label
 _atom_site_symmetry_multiplicity
 _atom_site_fract_x
 _atom_site_fract_y
 _atom_site_fract_z
 _atom_site_occupancy
  C  C0  1  0.91922000  0.57624000  0.39812000  1
  C  C1  1  0.10642000  0.07624000  0.89812000  1
  C  C2  1  0.87951000  0.91850000  0.05552000  1
  C  C3  1  0.14647000  0.41850000  0.55552000  1
  C  C4  1  0.10589000  0.50547000  0.44775000  1
  C  C5  1  0.94089000  0.00547000  0.94775000  1
  C  C6  1  0.74149000  0.95376000  0.99326000  1
  C  C7  1  0.31149000  0.45376000  0.49326000  1
  C  C8  1  0.43921000  0.46449000  0.44169000  1
  C  C9  1  0.65461000  0.96449000  0.94169000  1
  C  C10  1  0.73071000  0.94316000  0.94902000  1
  C  C11  1  0.37711000  0.44316000  0.44902000  1
  C  C12  1  0.11122000  0.46416000  0.42020000  1
  C  C13  1  0.00442000  0.96416000  0.92020000  1
  C  C14  1  0.43282000  0.91598000  0.96058000  1
  C  C15  1  0.69062000  0.41598000  0.46058000  1
  C  C16  1  0.21337000  0.92484000  0.95062000  1
  C  C17  1  0.91117000  0.42484000  0.45062000  1
  C  C18  1  0.17553000  0.88987000  0.98007000  1
  C  C19  1  0.95453000  0.38987000  0.48007000  1
  C  C20  1  0.50361000  0.45649000  0.40169000  1
  C  C21  1  0.63821000  0.95649000  0.90169000  1
  C  C22  1  0.79628000  0.52497000  0.32967000  1
  C  C23  1  0.34908000  0.02497000  0.82967000  1
  C  C24  1  0.75251000  0.55095000  0.29963000  1
  C  C25  1  0.39691000  0.05095000  0.79963000  1
  C  C26  1  0.50210000  0.87820000  0.95900000  1
  C  C27  1  0.66070000  0.37820000  0.45900000  1
  C  C28  1  0.37890000  0.41503000  0.41297000  1
  C  C29  1  0.79310000  0.91503000  0.91297000  1
  C  C30  1  0.87891000  0.50080000  0.31038000  1
  C  C31  1  0.30991000  0.00080000  0.81038000  1
  C  C32  1  0.92969000  0.46999000  0.33873000  1
  C  C33  1  0.26159000  0.96999000  0.83873000  1
  C  C34  1  0.78994000  0.55347000  0.25125000  1
  C  C35  1  0.40534000  0.05347000  0.75125000  1
  C  C36  1  0.15659000  0.74875000  0.05347000  1
  C  C37  1  0.04119000  0.24875000  0.55347000  1
  C  C38  1  0.09763000  0.76778000  0.03056000  1
  C  C39  1  0.10403000  0.26778000  0.53056000  1
  C  C40  1  0.50257000  0.43133000  0.36453000  1
  C  C41  1  0.70157000  0.93133000  0.86453000  1
  C  C42  1  0.75158000  0.40842000  0.38402000  1
  C  C43  1  0.45598000  0.90842000  0.88402000  1
  C  C44  1  0.44117000  0.41043000  0.36923000  1
  C  C45  1  0.77917000  0.91043000  0.86923000  1
  C  C46  1  0.55289000  0.85821000  0.91501000  1
  C  C47  1  0.67389000  0.35821000  0.41501000  1
  C  C48  1  0.91545000  0.50423000  0.26147000  1
  C  C49  1  0.31885000  0.00423000  0.76147000  1
  C  C50  1  0.87181000  0.53056000  0.23222000  1
  C  C51  1  0.36541000  0.03056000  0.73222000  1
  C  C52  1  0.67390000  0.81840000  0.94280000  1
  C  C53  1  0.56490000  0.31840000  0.44280000  1
  C  C54  1  0.06397000  0.84403000  0.90823000  1
  C  C55  1  0.18377000  0.34403000  0.40823000  1
  C  C56  1  0.52377000  0.86983000  0.88183000  1
  C  C57  1  0.72457000  0.36983000  0.38183000  1
  C  C58  1  0.19654000  0.70037000  0.05095000  1
  C  C59  1  0.05214000  0.20037000  0.55095000  1
  C  C60  1  0.23894000  0.44151000  0.30421000  1
  C  C61  1  0.01534000  0.94151000  0.80421000  1
  C  C62  1  0.08032000  0.73853000  0.00423000  1
  C  C63  1  0.17692000  0.23853000  0.50423000  1
  C  C64  1  0.63130000  0.81890000  0.90990000  1
  C  C65  1  0.63990000  0.31890000  0.40990000  1
  C  C66  1  0.30350000  0.44870000  0.26750000  1
  C  C67  1  0.98030000  0.94870000  0.76750000  1
  C  C68  1  0.75189000  0.77723000  0.93519000  1
  C  C69  1  0.53569000  0.27723000  0.43519000  1
  C  C70  1  0.82822000  0.78334000  0.91322000  1
  C  C71  1  0.47522000  0.28334000  0.41322000  1
  C  C72  1  0.17875000  0.67033000  0.02497000  1
  C  C73  1  0.12595000  0.17033000  0.52497000  1
  C  C74  1  0.12029000  0.68962000  0.00080000  1
  C  C75  1  0.18929000  0.18962000  0.50080000  1
  C  C76  1  0.13226000  0.80577000  0.87971000  1
  C  C77  1  0.18226000  0.30577000  0.37971000  1
  C  C78  1  0.74780000  0.73250000  0.94870000  1
  C  C79  1  0.57100000  0.23250000  0.44870000  1
  C  C80  1  0.00454000  0.60188000  0.07624000  1
  C  C81  1  0.31734000  0.10188000  0.57624000  1
  C  C82  1  0.20270000  0.81470000  0.84850000  1
  C  C83  1  0.13410000  0.31470000  0.34850000  1
  C  C84  1  0.19598000  0.40793000  0.25511000  1
  C  C85  1  0.14098000  0.90793000  0.75511000  1
  C  C86  1  0.31292000  0.43519000  0.22277000  1
  C  C87  1  0.02912000  0.93519000  0.72277000  1
  C  C88  1  0.89609000  0.74489000  0.90793000  1
  C  C89  1  0.45109000  0.24489000  0.40793000  1
  C  C90  1  0.12477000  0.75991000  0.88435000  1
  C  C91  1  0.23097000  0.25991000  0.38435000  1
  C  C92  1  0.95593000  0.36034000  0.27740000  1
  C  C93  1  0.40633000  0.86034000  0.77740000  1
  C  C94  1  0.81955000  0.69579000  0.94151000  1
  C  C95  1  0.54315000  0.19579000  0.44151000  1
  C  C96  1  0.06497000  0.55552000  0.08150000  1
  C  C97  1  0.29801000  0.05552000  0.58150000  1
  C  C98  1  0.10032000  0.66127000  0.96999000  1
  C  C99  1  0.26842000  0.16127000  0.46999000  1
  C  C100  1  0.25856000  0.41322000  0.21666000  1
  C  C101  1  0.11156000  0.91322000  0.71666000  1
  C  C102  1  0.99088000  0.38435000  0.24009000  1
  C  C103  1  0.38468000  0.88435000  0.74009000  1
  C  C104  1  0.38330000  0.44280000  0.18160000  1
  C  C105  1  0.99230000  0.94280000  0.68160000  1
  C  C106  1  0.91569000  0.32941000  0.26961000  1
  C  C107  1  0.48529000  0.82941000  0.76961000  1
  C  C108  1  0.26354000  0.77548000  0.82344000  1
  C  C109  1  0.13754000  0.27548000  0.32344000  1
  C  C110  1  0.45880000  0.40990000  0.18110000  1
  C  C111  1  0.95020000  0.90990000  0.68110000  1
  C  C112  1  0.84440000  0.48007000  0.11013000  1
  C  C113  1  0.56540000  0.98007000  0.61013000  1
  C  C114  1  0.18373000  0.72260000  0.86034000  1
  C  C115  1  0.23333000  0.22260000  0.36034000  1
  C  C116  1  0.53890000  0.45900000  0.12180000  1
  C  C117  1  0.88030000  0.95900000  0.62180000  1
  C  C118  1  0.98803000  0.37971000  0.19423000  1
  C  C119  1  0.43803000  0.87971000  0.69423000  1
  C  C120  1  0.56610000  0.63547000  0.93133000  1
  C  C121  1  0.86710000  0.13547000  0.43133000  1
  C  C122  1  0.02780000  0.40823000  0.15597000  1
  C  C123  1  0.40800000  0.90823000  0.65597000  1
  C  C124  1  0.25490000  0.73039000  0.82941000  1
  C  C125  1  0.18530000  0.23039000  0.32941000  1
  C  C126  1  0.88864000  0.55225000  0.00547000  1
  C  C127  1  0.55364000  0.05225000  0.50547000  1
  C  C128  1  0.53210000  0.41501000  0.14179000  1
  C  C129  1  0.91110000  0.91501000  0.64179000  1
  C  C130  1  0.53990000  0.59831000  0.95649000  1
  C  C131  1  0.90530000  0.09831000  0.45649000  1
  C  C132  1  0.91302000  0.32344000  0.22452000  1
  C  C133  1  0.53902000  0.82344000  0.72452000  1
  C  C134  1  0.60660000  0.46058000  0.08402000  1
  C  C135  1  0.84880000  0.96058000  0.58402000  1
  C  C136  1  0.92462000  0.57980000  0.96416000  1
  C  C137  1  0.53142000  0.07980000  0.46416000  1
  C  C138  1  0.64840000  0.63077000  0.91043000  1
  C  C139  1  0.81040000  0.13077000  0.41043000  1
  C  C140  1  0.26525000  0.49326000  0.04624000  1
  C  C141  1  0.19525000  0.99326000  0.54624000  1
  C  C142  1  0.94880000  0.34850000  0.18530000  1
  C  C143  1  0.51740000  0.84850000  0.68530000  1
  C  C144  1  0.83601000  0.45062000  0.07516000  1
  C  C145  1  0.63821000  0.95062000  0.57516000  1
  C  C146  1  0.34000000  0.61598000  0.90842000  1
  C  C147  1  0.13560000  0.11598000  0.40842000  1
  C  C148  1  0.59630000  0.55831000  0.96449000  1
  C  C149  1  0.88090000  0.05831000  0.46449000  1
  C  C150  1  0.59440000  0.38183000  0.13017000  1
  C  C151  1  0.89360000  0.88183000  0.63017000  1
  C  C152  1  0.32027000  0.44902000  0.05684000  1
  C  C153  1  0.17387000  0.94902000  0.55684000  1
  C  C154  1  0.70607000  0.58703000  0.91503000  1
  C  C155  1  0.79187000  0.08703000  0.41503000  1
  C  C156  1  0.29393000  0.41297000  0.08497000  1
  C  C157  1  0.20813000  0.91297000  0.58497000  1
  C  C158  1  0.67973000  0.55098000  0.94316000  1
  C  C159  1  0.82613000  0.05098000  0.44316000  1
  C  C160  1  0.40560000  0.61817000  0.86983000  1
  C  C161  1  0.10640000  0.11817000  0.36983000  1
  C  C162  1  0.40370000  0.44169000  0.03551000  1
  C  C163  1  0.11910000  0.94169000  0.53551000  1
  C  C164  1  0.66000000  0.38402000  0.09158000  1
  C  C165  1  0.86440000  0.88402000  0.59158000  1
  C  C166  1  0.16399000  0.54938000  0.92484000  1
  C  C167  1  0.36179000  0.04938000  0.42484000  1
  C  C168  1  0.05120000  0.65150000  0.81470000  1
  C  C169  1  0.48260000  0.15150000  0.31470000  1
  C  C170  1  0.73475000  0.50674000  0.95376000  1
  C  C171  1  0.80475000  0.00674000  0.45376000  1
  C  C172  1  0.35160000  0.36923000  0.08957000  1
  C  C173  1  0.18960000  0.86923000  0.58957000  1
  C  C174  1  0.07538000  0.42020000  0.03584000  1
  C  C175  1  0.46858000  0.92020000  0.53584000  1
  C  C176  1  0.39340000  0.53942000  0.91598000  1
  C  C177  1  0.15120000  0.03942000  0.41598000  1
  C  C178  1  0.08698000  0.67656000  0.77548000  1
  C  C179  1  0.46098000  0.17656000  0.27548000  1
  C  C180  1  0.46010000  0.40169000  0.04351000  1
  C  C181  1  0.09470000  0.90169000  0.54351000  1
  C  C182  1  0.46790000  0.58499000  0.85821000  1
  C  C183  1  0.08890000  0.08499000  0.35821000  1
  C  C184  1  0.11136000  0.44775000  0.99453000  1
  C  C185  1  0.44636000  0.94775000  0.49453000  1
  C  C186  1  0.74510000  0.26961000  0.17059000  1
  C  C187  1  0.81470000  0.76961000  0.67059000  1
  C  C188  1  0.97220000  0.59177000  0.84403000  1
  C  C189  1  0.59200000  0.09177000  0.34403000  1
  C  C190  1  0.43390000  0.36453000  0.06867000  1
  C  C191  1  0.13290000  0.86453000  0.56867000  1
  C  C192  1  0.01197000  0.62029000  0.80577000  1
  C  C193  1  0.56197000  0.12029000  0.30577000  1
  C  C194  1  0.46110000  0.54100000  0.87820000  1
  C  C195  1  0.11970000  0.04100000  0.37820000  1
  C  C196  1  0.81627000  0.27740000  0.13966000  1
  C  C197  1  0.76667000  0.77740000  0.63966000  1
  C  C198  1  0.15560000  0.51993000  0.88987000  1
  C  C199  1  0.43460000  0.01993000  0.38987000  1
  C  C200  1  0.54120000  0.59010000  0.81890000  1
  C  C201  1  0.04980000  0.09010000  0.31890000  1
  C  C202  1  0.73646000  0.22452000  0.17656000  1
  C  C203  1  0.86246000  0.72452000  0.67656000  1
  C  C204  1  0.08431000  0.67059000  0.73039000  1
  C  C205  1  0.51471000  0.17059000  0.23039000  1
  C  C206  1  0.61670000  0.55720000  0.81840000  1
  C  C207  1  0.00770000  0.05720000  0.31840000  1
  C  C208  1  0.00912000  0.61565000  0.75991000  1
  C  C209  1  0.61532000  0.11565000  0.25991000  1
  C  C210  1  0.74144000  0.58678000  0.78334000  1
  C  C211  1  0.88844000  0.08678000  0.28334000  1
  C  C212  1  0.89968000  0.33873000  0.03001000  1
  C  C213  1  0.73158000  0.83873000  0.53001000  1
  C  C214  1  0.93503000  0.44448000  0.91850000  1
  C  C215  1  0.70199000  0.94448000  0.41850000  1
  C  C216  1  0.18045000  0.30421000  0.05849000  1
  C  C217  1  0.45685000  0.80421000  0.55849000  1
  C  C218  1  0.04407000  0.63966000  0.72260000  1
  C  C219  1  0.59367000  0.13966000  0.22260000  1
  C  C220  1  0.87523000  0.24009000  0.11565000  1
  C  C221  1  0.76903000  0.74009000  0.61565000  1
  C  C222  1  0.10391000  0.25511000  0.09207000  1
  C  C223  1  0.54891000  0.75511000  0.59207000  1
  C  C224  1  0.68708000  0.56481000  0.77723000  1
  C  C225  1  0.97088000  0.06481000  0.27723000  1
  C  C226  1  0.80402000  0.59207000  0.74489000  1
  C  C227  1  0.85902000  0.09207000  0.24489000  1
  C  C228  1  0.79730000  0.18530000  0.15150000  1
  C  C229  1  0.86590000  0.68530000  0.65150000  1
  C  C230  1  0.99546000  0.39812000  0.92376000  1
  C  C231  1  0.68266000  0.89812000  0.42376000  1
  C  C232  1  0.25220000  0.26750000  0.05130000  1
  C  C233  1  0.42900000  0.76750000  0.55130000  1
  C  C234  1  0.86774000  0.19423000  0.12029000  1
  C  C235  1  0.81774000  0.69423000  0.62029000  1
  C  C236  1  0.87971000  0.31038000  0.99920000  1
  C  C237  1  0.81071000  0.81038000  0.49920000  1
  C  C238  1  0.82125000  0.32967000  0.97503000  1
  C  C239  1  0.87405000  0.82967000  0.47503000  1
  C  C240  1  0.17178000  0.21666000  0.08678000  1
  C  C241  1  0.52478000  0.71666000  0.58678000  1
  C  C242  1  0.24811000  0.22277000  0.06481000  1
  C  C243  1  0.46431000  0.72277000  0.56481000  1
  C  C244  1  0.69650000  0.55130000  0.73250000  1
  C  C245  1  0.01970000  0.05130000  0.23250000  1
  C  C246  1  0.36870000  0.18110000  0.09010000  1
  C  C247  1  0.36010000  0.68110000  0.59010000  1
  C  C248  1  0.91968000  0.26147000  0.99577000  1
  C  C249  1  0.82308000  0.76147000  0.49577000  1
  C  C250  1  0.76106000  0.55849000  0.69579000  1
  C  C251  1  0.98466000  0.05849000  0.19579000  1
  C  C252  1  0.80346000  0.29963000  0.94905000  1
  C  C253  1  0.94786000  0.79963000  0.44905000  1
  C  C254  1  0.47623000  0.13017000  0.11817000  1
  C  C255  1  0.27543000  0.63017000  0.61817000  1
  C  C256  1  0.93603000  0.15597000  0.09177000  1
  C  C257  1  0.81623000  0.65597000  0.59177000  1
  C  C258  1  0.32610000  0.18160000  0.05720000  1
  C  C259  1  0.43510000  0.68160000  0.55720000  1
  C  C260  1  0.12819000  0.46944000  0.76778000  1
  C  C261  1  0.63459000  0.96944000  0.26778000  1
  C  C262  1  0.08455000  0.49577000  0.73853000  1
  C  C263  1  0.68115000  0.99577000  0.23853000  1
  C  C264  1  0.44711000  0.14179000  0.08499000  1
  C  C265  1  0.32611000  0.64179000  0.58499000  1
  C  C266  1  0.55883000  0.58957000  0.63077000  1
  C  C267  1  0.22083000  0.08957000  0.13077000  1
  C  C268  1  0.24842000  0.59158000  0.61598000  1
  C  C269  1  0.54402000  0.09158000  0.11598000  1
  C  C270  1  0.49743000  0.56867000  0.63547000  1
  C  C271  1  0.29843000  0.06867000  0.13547000  1
  C  C272  1  0.90237000  0.23222000  0.96944000  1
  C  C273  1  0.89597000  0.73222000  0.46944000  1
  C  C274  1  0.84341000  0.25125000  0.94653000  1
  C  C275  1  0.95881000  0.75125000  0.44653000  1
  C  C276  1  0.21006000  0.44653000  0.74875000  1
  C  C277  1  0.59466000  0.94653000  0.24875000  1
  C  C278  1  0.07031000  0.53001000  0.66127000  1
  C  C279  1  0.73841000  0.03001000  0.16127000  1
  C  C280  1  0.12109000  0.49920000  0.68962000  1
  C  C281  1  0.69009000  0.99920000  0.18962000  1
  C  C282  1  0.62110000  0.58497000  0.58703000  1
  C  C283  1  0.20690000  0.08497000  0.08703000  1
  C  C284  1  0.49790000  0.12180000  0.04100000  1
  C  C285  1  0.33930000  0.62180000  0.54100000  1
  C  C286  1  0.24749000  0.44905000  0.70037000  1
  C  C287  1  0.60309000  0.94905000  0.20037000  1
  C  C288  1  0.20372000  0.47503000  0.67033000  1
  C  C289  1  0.65092000  0.97503000  0.17033000  1
  C  C290  1  0.49639000  0.54351000  0.59831000  1
  C  C291  1  0.36179000  0.04351000  0.09831000  1
  C  C292  1  0.82447000  0.11013000  0.01993000  1
  C  C293  1  0.04547000  0.61013000  0.51993000  1
  C  C294  1  0.78663000  0.07516000  0.04938000  1
  C  C295  1  0.08883000  0.57516000  0.54938000  1
  C  C296  1  0.56718000  0.08402000  0.03942000  1
  C  C297  1  0.30938000  0.58402000  0.53942000  1
  C  C298  1  0.88878000  0.53584000  0.57980000  1
  C  C299  1  0.99558000  0.03584000  0.07980000  1
  C  C300  1  0.26929000  0.05684000  0.05098000  1
  C  C301  1  0.62289000  0.55684000  0.55098000  1
  C  C302  1  0.56079000  0.53551000  0.55831000  1
  C  C303  1  0.34539000  0.03551000  0.05831000  1
  C  C304  1  0.25851000  0.04624000  0.00674000  1
  C  C305  1  0.68851000  0.54624000  0.50674000  1
  C  C306  1  0.89411000  0.49453000  0.55225000  1
  C  C307  1  0.05911000  0.99453000  0.05225000  1
  C  C308  1  0.12049000  0.08150000  0.94448000  1
  C  C309  1  0.85353000  0.58150000  0.44448000  1
  C  C310  1  0.08078000  0.42376000  0.60188000  1
  C  C311  1  0.89358000  0.92376000  0.10188000  1
  H  H312  1  0.92820000  0.60710000  0.38810000  1
  H  H313  1  0.07660000  0.10710000  0.88810000  1
  H  H314  1  0.04900000  0.52470000  0.45910000  1
  H  H315  1  0.96720000  0.02470000  0.95910000  1
  H  H316  1  0.12690000  0.49390000  0.47490000  1
  H  H317  1  0.90430000  0.99390000  0.97490000  1
  H  H318  1  0.96970000  0.55380000  0.40180000  1
  H  H319  1  0.07470000  0.05380000  0.90180000  1
  H  H320  1  0.13840000  0.52470000  0.42730000  1
  H  H321  1  0.90960000  0.02470000  0.92730000  1
  H  H322  1  0.43650000  0.48510000  0.46530000  1
  H  H323  1  0.61310000  0.98510000  0.96530000  1
  H  H324  1  0.90270000  0.56430000  0.37410000  1
  H  H325  1  0.15890000  0.06430000  0.87410000  1
  H  H326  1  0.39840000  0.92960000  0.99020000  1
  H  H327  1  0.68180000  0.42960000  0.49020000  1
  H  H328  1  0.11760000  0.90520000  0.99480000  1
  H  H329  1  0.98240000  0.40520000  0.49480000  1
  H  H330  1  0.20230000  0.87760000  0.00480000  1
  H  H331  1  0.91530000  0.37760000  0.50480000  1
  H  H332  1  0.69650000  0.56710000  0.31230000  1
  H  H333  1  0.42410000  0.06710000  0.81230000  1
  H  H334  1  0.54860000  0.46790000  0.39910000  1
  H  H335  1  0.58440000  0.96790000  0.89910000  1
  H  H336  1  0.51490000  0.86600000  0.98740000  1
  H  H337  1  0.63170000  0.36600000  0.48740000  1
  H  H338  1  0.17000000  0.76880000  0.07100000  1
  H  H339  1  0.99020000  0.26880000  0.57100000  1
  H  H340  1  0.06940000  0.80060000  0.03300000  1
  H  H341  1  0.09700000  0.30060000  0.53300000  1
  H  H342  1  0.18180000  0.86360000  0.96000000  1
  H  H343  1  0.99460000  0.36360000  0.46000000  1
  H  H344  1  0.75900000  0.57100000  0.23120000  1
  H  H345  1  0.43880000  0.07100000  0.73120000  1
  H  H346  1  0.63790000  0.81650000  0.97530000  1
  H  H347  1  0.57030000  0.31650000  0.47530000  1
  H  H348  1  0.68770000  0.84870000  0.94030000  1
  H  H349  1  0.52330000  0.34870000  0.44030000  1
  H  H350  1  0.23340000  0.45080000  0.33520000  1
  H  H351  1  0.98060000  0.95080000  0.83520000  1
  H  H352  1  0.78750000  0.41650000  0.35590000  1
  H  H353  1  0.44010000  0.91650000  0.85590000  1
  H  H354  1  0.54450000  0.42850000  0.33530000  1
  H  H355  1  0.69170000  0.92850000  0.83530000  1
  H  H356  1  0.23640000  0.68770000  0.06710000  1
  H  H357  1  0.00880000  0.18770000  0.56710000  1
  H  H358  1  0.04060000  0.75160000  0.98800000  1
  H  H359  1  0.21980000  0.25160000  0.48800000  1
  H  H360  1  0.44100000  0.39330000  0.34370000  1
  H  H361  1  0.82200000  0.89330000  0.84370000  1
  H  H362  1  0.97140000  0.48800000  0.24840000  1
  H  H363  1  0.29220000  0.98800000  0.74840000  1
  H  H364  1  0.34060000  0.46270000  0.27330000  1
  H  H365  1  0.92340000  0.96270000  0.77330000  1
  H  H366  1  0.89760000  0.53300000  0.19940000  1
  H  H367  1  0.37000000  0.03300000  0.69940000  1
  H  H368  1  0.96470000  0.61190000  0.10710000  1
  H  H369  1  0.31630000  0.11190000  0.60710000  1
  H  H370  1  0.83330000  0.81360000  0.90200000  1
  H  H371  1  0.45110000  0.31360000  0.40200000  1
  H  H372  1  0.54870000  0.85170000  0.85350000  1
  H  H373  1  0.74610000  0.35170000  0.35350000  1
  H  H374  1  0.61890000  0.78830000  0.91230000  1
  H  H375  1  0.68050000  0.28830000  0.41230000  1
  H  H376  1  0.66800000  0.82070000  0.87770000  1
  H  H377  1  0.63360000  0.32070000  0.37770000  1
  H  H378  1  0.03300000  0.62590000  0.06430000  1
  H  H379  1  0.27680000  0.12590000  0.56430000  1
  H  H380  1  0.69670000  0.72670000  0.96270000  1
  H  H381  1  0.61390000  0.22670000  0.46270000  1
  H  H382  1  0.95850000  0.36440000  0.30820000  1
  H  H383  1  0.36890000  0.86440000  0.80820000  1
  H  H384  1  0.07640000  0.75470000  0.90510000  1
  H  H385  1  0.26380000  0.25470000  0.40510000  1
  H  H386  1  0.38680000  0.47530000  0.18350000  1
  H  H387  1  0.95440000  0.97530000  0.68350000  1
  H  H388  1  0.97650000  0.59820000  0.05380000  1
  H  H389  1  0.37150000  0.09820000  0.55380000  1
  H  H390  1  0.01850000  0.40510000  0.24530000  1
  H  H391  1  0.33110000  0.90510000  0.74530000  1
  H  H392  1  0.15900000  0.39310000  0.25030000  1
  H  H393  1  0.19760000  0.89310000  0.75030000  1
  H  H394  1  0.94790000  0.74970000  0.89310000  1
  H  H395  1  0.40930000  0.24970000  0.39310000  1
  H  H396  1  0.79290000  0.50480000  0.12240000  1
  H  H397  1  0.57990000  0.00480000  0.62240000  1
  H  H398  1  0.46880000  0.41230000  0.21170000  1
  H  H399  1  0.90720000  0.91230000  0.71170000  1
  H  H400  1  0.49770000  0.48740000  0.13400000  1
  H  H401  1  0.88090000  0.98740000  0.63400000  1
  H  H402  1  0.81580000  0.66480000  0.95080000  1
  H  H403  1  0.56860000  0.16480000  0.45080000  1
  H  H404  1  0.89020000  0.31250000  0.29550000  1
  H  H405  1  0.50180000  0.81250000  0.79550000  1
  H  H406  1  0.83690000  0.57270000  0.02470000  1
  H  H407  1  0.56570000  0.07270000  0.52470000  1
  H  H408  1  0.85820000  0.46000000  0.13640000  1
  H  H409  1  0.54540000  0.96000000  0.63640000  1
  H  H410  1  0.52700000  0.66470000  0.92850000  1
  H  H411  1  0.87980000  0.16470000  0.42850000  1
  H  H412  1  0.37200000  0.44030000  0.15130000  1
  H  H413  1  0.03640000  0.94030000  0.65130000  1
  H  H414  1  0.88760000  0.49480000  0.09480000  1
  H  H415  1  0.52280000  0.99480000  0.59480000  1
  H  H416  1  0.26470000  0.40200000  0.18640000  1
  H  H417  1  0.14690000  0.90200000  0.68640000  1
  H  H418  1  0.31160000  0.78030000  0.80190000  1
  H  H419  1  0.10620000  0.28030000  0.30190000  1
  H  H420  1  0.48350000  0.60090000  0.96790000  1
  H  H421  1  0.94770000  0.10090000  0.46790000  1
  H  H422  1  0.92630000  0.54090000  0.02470000  1
  H  H423  1  0.50810000  0.04090000  0.52470000  1
  H  H424  1  0.29600000  0.64410000  0.91650000  1
  H  H425  1  0.61140000  0.49020000  0.07040000  1
  H  H426  1  0.14340000  0.14410000  0.41650000  1
  H  H427  1  0.82800000  0.99020000  0.57040000  1
  H  H428  1  0.45430000  0.37770000  0.17930000  1
  H  H429  1  0.98870000  0.87770000  0.67930000  1
  H  H430  1  0.17710000  0.69180000  0.86440000  1
  H  H431  1  0.26670000  0.19180000  0.36440000  1
  H  H432  1  0.66570000  0.65630000  0.89330000  1
  H  H433  1  0.78470000  0.15630000  0.39330000  1
  H  H434  1  0.88650000  0.30190000  0.21970000  1
  H  H435  1  0.59190000  0.80190000  0.71970000  1
  H  H436  1  0.57840000  0.53470000  0.98510000  1
  H  H437  1  0.90180000  0.03470000  0.48510000  1
  H  H438  1  0.87920000  0.52510000  0.99390000  1
  H  H439  1  0.60180000  0.02510000  0.49390000  1
  H  H440  1  0.29730000  0.70450000  0.81250000  1
  H  H441  1  0.18570000  0.20450000  0.31250000  1
  H  H442  1  0.59780000  0.35350000  0.14830000  1
  H  H443  1  0.90040000  0.85350000  0.64830000  1
  H  H444  1  0.40220000  0.64650000  0.85170000  1
  H  H445  1  0.09960000  0.14650000  0.35170000  1
  H  H446  1  0.70270000  0.29550000  0.18750000  1
  H  H447  1  0.81430000  0.79550000  0.68750000  1
  H  H448  1  0.12080000  0.47490000  0.00610000  1
  H  H449  1  0.39820000  0.97490000  0.50610000  1
  H  H450  1  0.42160000  0.46530000  0.01490000  1
  H  H451  1  0.09820000  0.96530000  0.51490000  1
  H  H452  1  0.11350000  0.69810000  0.78030000  1
  H  H453  1  0.40810000  0.19810000  0.28030000  1
  H  H454  1  0.33430000  0.34370000  0.10670000  1
  H  H455  1  0.21530000  0.84370000  0.60670000  1
  H  H456  1  0.82290000  0.30820000  0.13560000  1
  H  H457  1  0.73330000  0.80820000  0.63560000  1
  H  H458  1  0.54570000  0.62230000  0.82070000  1
  H  H459  1  0.01130000  0.12230000  0.32070000  1
  H  H460  1  0.38860000  0.50980000  0.92960000  1
  H  H461  1  0.70400000  0.35590000  0.08350000  1
  H  H462  1  0.17200000  0.00980000  0.42960000  1
  H  H463  1  0.85660000  0.85590000  0.58350000  1
  H  H464  1  0.07370000  0.45910000  0.97530000  1
  H  H465  1  0.49190000  0.95910000  0.47530000  1
  H  H466  1  0.51650000  0.39910000  0.03210000  1
  H  H467  1  0.05230000  0.89910000  0.53210000  1
  H  H468  1  0.68840000  0.21970000  0.19810000  1
  H  H469  1  0.89380000  0.71970000  0.69810000  1
  H  H470  1  0.73530000  0.59800000  0.81360000  1
  H  H471  1  0.85310000  0.09800000  0.31360000  1
  H  H472  1  0.11240000  0.50520000  0.90520000  1
  H  H473  1  0.47720000  0.00520000  0.40520000  1
  H  H474  1  0.62800000  0.55970000  0.84870000  1
  H  H475  1  0.96360000  0.05970000  0.34870000  1
  H  H476  1  0.47300000  0.33530000  0.07150000  1
  H  H477  1  0.12020000  0.83530000  0.57150000  1
  H  H478  1  0.14180000  0.54000000  0.86360000  1
  H  H479  1  0.45460000  0.04000000  0.36360000  1
  H  H480  1  0.16310000  0.42730000  0.97530000  1
  H  H481  1  0.43430000  0.92730000  0.47530000  1
  H  H482  1  0.10980000  0.68750000  0.70450000  1
  H  H483  1  0.49820000  0.18750000  0.20450000  1
  H  H484  1  0.18420000  0.33520000  0.04920000  1
  H  H485  1  0.43140000  0.83520000  0.54920000  1
  H  H486  1  0.50230000  0.51260000  0.86600000  1
  H  H487  1  0.11910000  0.01260000  0.36600000  1
  H  H488  1  0.53120000  0.58770000  0.78830000  1
  H  H489  1  0.09280000  0.08770000  0.28830000  1
  H  H490  1  0.20710000  0.49520000  0.87760000  1
  H  H491  1  0.42010000  0.99520000  0.37760000  1
  H  H492  1  0.05210000  0.25030000  0.10690000  1
  H  H493  1  0.59070000  0.75030000  0.60690000  1
  H  H494  1  0.84100000  0.60690000  0.74970000  1
  H  H495  1  0.80240000  0.10690000  0.24970000  1
  H  H496  1  0.98150000  0.59490000  0.75470000  1
  H  H497  1  0.66890000  0.09490000  0.25470000  1
  H  H498  1  0.02350000  0.40180000  0.94620000  1
  H  H499  1  0.62850000  0.90180000  0.44620000  1
  H  H500  1  0.61320000  0.52470000  0.81650000  1
  H  H501  1  0.04560000  0.02470000  0.31650000  1
  H  H502  1  0.92360000  0.24530000  0.09490000  1
  H  H503  1  0.73620000  0.74530000  0.59490000  1
  H  H504  1  0.04150000  0.63560000  0.69180000  1
  H  H505  1  0.63110000  0.13560000  0.19180000  1
  H  H506  1  0.30330000  0.27330000  0.03730000  1
  H  H507  1  0.38610000  0.77330000  0.53730000  1
  H  H508  1  0.96700000  0.37410000  0.93570000  1
  H  H509  1  0.72320000  0.87410000  0.43570000  1
  H  H510  1  0.33200000  0.17930000  0.12230000  1
  H  H511  1  0.36640000  0.67930000  0.62230000  1
  H  H512  1  0.38110000  0.21170000  0.08770000  1
  H  H513  1  0.31950000  0.71170000  0.58770000  1
  H  H514  1  0.45130000  0.14830000  0.14650000  1
  H  H515  1  0.25390000  0.64830000  0.64650000  1
  H  H516  1  0.16670000  0.18640000  0.09800000  1
  H  H517  1  0.54890000  0.68640000  0.59800000  1
  H  H518  1  0.03530000  0.38810000  0.89290000  1
  H  H519  1  0.68370000  0.88810000  0.39290000  1
  H  H520  1  0.10240000  0.46700000  0.80060000  1
  H  H521  1  0.63000000  0.96700000  0.30060000  1
  H  H522  1  0.65940000  0.53730000  0.72670000  1
  H  H523  1  0.07660000  0.03730000  0.22670000  1
  H  H524  1  0.02860000  0.51200000  0.75160000  1
  H  H525  1  0.70780000  0.01200000  0.25160000  1
  H  H526  1  0.55900000  0.60670000  0.65630000  1
  H  H527  1  0.17800000  0.10670000  0.15630000  1
  H  H528  1  0.95940000  0.24840000  0.01200000  1
  H  H529  1  0.78020000  0.74840000  0.51200000  1
  H  H530  1  0.76360000  0.31230000  0.93290000  1
  H  H531  1  0.99120000  0.81230000  0.43290000  1
  H  H532  1  0.45550000  0.57150000  0.66470000  1
  H  H533  1  0.30830000  0.07150000  0.16470000  1
  H  H534  1  0.21250000  0.58350000  0.64410000  1
  H  H535  1  0.55990000  0.08350000  0.14410000  1
  H  H536  1  0.76660000  0.54920000  0.66480000  1
  H  H537  1  0.01940000  0.04920000  0.16480000  1
  H  H538  1  0.31230000  0.15130000  0.05970000  1
  H  H539  1  0.47670000  0.65130000  0.55970000  1
  H  H540  1  0.36210000  0.18350000  0.02470000  1
  H  H541  1  0.42970000  0.68350000  0.52470000  1
  H  H542  1  0.24100000  0.42900000  0.76880000  1
  H  H543  1  0.56120000  0.92900000  0.26880000  1
  H  H544  1  0.81820000  0.13640000  0.04000000  1
  H  H545  1  0.00540000  0.63640000  0.54000000  1
  H  H546  1  0.93060000  0.19940000  0.96700000  1
  H  H547  1  0.90300000  0.69940000  0.46700000  1
  H  H548  1  0.83000000  0.23120000  0.92900000  1
  H  H549  1  0.00980000  0.73120000  0.42900000  1
  H  H550  1  0.48510000  0.13400000  0.01260000  1
  H  H551  1  0.36830000  0.63400000  0.51260000  1
  H  H552  1  0.45140000  0.53210000  0.60090000  1
  H  H553  1  0.41560000  0.03210000  0.10090000  1
  H  H554  1  0.30350000  0.43290000  0.68770000  1
  H  H555  1  0.57590000  0.93290000  0.18770000  1
  H  H556  1  0.79770000  0.12240000  0.99520000  1
  H  H557  1  0.08470000  0.62240000  0.49520000  1
  H  H558  1  0.88240000  0.09480000  0.00520000  1
  H  H559  1  0.01760000  0.59480000  0.50520000  1
  H  H560  1  0.60160000  0.07040000  0.00980000  1
  H  H561  1  0.31820000  0.57040000  0.50980000  1
  H  H562  1  0.09730000  0.43570000  0.62590000  1
  H  H563  1  0.84110000  0.93570000  0.12590000  1
  H  H564  1  0.56350000  0.51490000  0.53470000  1
  H  H565  1  0.38690000  0.01490000  0.03470000  1
  H  H566  1  0.86160000  0.47530000  0.57270000  1
  H  H567  1  0.09040000  0.97530000  0.07270000  1
  H  H568  1  0.03030000  0.44620000  0.59820000  1
  H  H569  1  0.92530000  0.94620000  0.09820000  1
  H  H570  1  0.87310000  0.50610000  0.52510000  1
  H  H571  1  0.09570000  0.00610000  0.02510000  1
  H  H572  1  0.95100000  0.47530000  0.54090000  1
  H  H573  1  0.03280000  0.97530000  0.04090000  1
  H  H574  1  0.07180000  0.39290000  0.61190000  1
  H  H575  1  0.92340000  0.89290000  0.11190000  1
  Mn  Mn576  1  0.78843000  0.49108000  0.42590000  1
  Mn  Mn577  1  0.29459000  0.99108000  0.92590000  1
  Mn  Mn578  1  0.90561000  0.88352000  0.96848000  1
  Mn  Mn579  1  0.24239000  0.38352000  0.46848000  1
  Mn  Mn580  1  0.07629000  0.41599000  0.35949000  1
  Mn  Mn581  1  0.14823000  0.91599000  0.85949000  1
  Mn  Mn582  1  0.12591000  0.46848000  0.11648000  1
  Mn  Mn583  1  0.28913000  0.96848000  0.61648000  1
  Mn  Mn584  1  0.22049000  0.57410000  0.99108000  1
  Mn  Mn585  1  0.21433000  0.07410000  0.49108000  1
  Mn  Mn586  1  0.00772000  0.64051000  0.91599000  1
  Mn  Mn587  1  0.43578000  0.14051000  0.41599000  1
  Mn  Mn588  1  0.99228000  0.35949000  0.08401000  1
  Mn  Mn589  1  0.56422000  0.85949000  0.58401000  1
  Mn  Mn590  1  0.77951000  0.42590000  0.00892000  1
  Mn  Mn591  1  0.78567000  0.92590000  0.50892000  1
  Mn  Mn592  1  0.87409000  0.53152000  0.88352000  1
  Mn  Mn593  1  0.71087000  0.03152000  0.38352000  1
  Mn  Mn594  1  0.92371000  0.58401000  0.64051000  1
  Mn  Mn595  1  0.85177000  0.08401000  0.14051000  1
  Mn  Mn596  1  0.09439000  0.11648000  0.03152000  1
  Mn  Mn597  1  0.75761000  0.61648000  0.53152000  1
  Mn  Mn598  1  0.21157000  0.50892000  0.57410000  1
  Mn  Mn599  1  0.70541000  0.00892000  0.07410000  1
  N  N600  1  0.81339000  0.94520000  0.04690000  1
  N  N601  1  0.19451000  0.44520000  0.54690000  1
  N  N602  1  0.81169000  0.93293000  0.00187000  1
  N  N603  1  0.25351000  0.43293000  0.50187000  1
  N  N604  1  0.73288000  0.43362000  0.41962000  1
  N  N605  1  0.41388000  0.93362000  0.91962000  1
  N  N606  1  0.99846000  0.92180000  0.93048000  1
  N  N607  1  0.14926000  0.42180000  0.43048000  1
  N  N608  1  0.89552000  0.46133000  0.38375000  1
  N  N609  1  0.25940000  0.96133000  0.88375000  1
  N  N610  1  0.94802000  0.42843000  0.40579000  1
  N  N611  1  0.21776000  0.92843000  0.90579000  1
  N  N612  1  0.06754000  0.88836000  0.90190000  1
  N  N613  1  0.14220000  0.38836000  0.40190000  1
  N  N614  1  0.18424000  0.42235000  0.29855000  1
  N  N615  1  0.09486000  0.92235000  0.79855000  1
  N  N616  1  0.89341000  0.70145000  0.92235000  1
  N  N617  1  0.48279000  0.20145000  0.42235000  1
  N  N618  1  0.13971000  0.54690000  0.05480000  1
  N  N619  1  0.25859000  0.04690000  0.55480000  1
  N  N620  1  0.14315000  0.61625000  0.96133000  1
  N  N621  1  0.27927000  0.11625000  0.46133000  1
  N  N622  1  0.18644000  0.50187000  0.06707000  1
  N  N623  1  0.24462000  0.00187000  0.56707000  1
  N  N624  1  0.12355000  0.59421000  0.92843000  1
  N  N625  1  0.35381000  0.09421000  0.42843000  1
  N  N626  1  0.33350000  0.58038000  0.93362000  1
  N  N627  1  0.15250000  0.08038000  0.43362000  1
  N  N628  1  0.03056000  0.40190000  0.11164000  1
  N  N629  1  0.45590000  0.90190000  0.61164000  1
  N  N630  1  0.07106000  0.43048000  0.07820000  1
  N  N631  1  0.42026000  0.93048000  0.57820000  1
  N  N632  1  0.92894000  0.56952000  0.92180000  1
  N  N633  1  0.57974000  0.06952000  0.42180000  1
  N  N634  1  0.96944000  0.59810000  0.88836000  1
  N  N635  1  0.54410000  0.09810000  0.38836000  1
  N  N636  1  0.66650000  0.41962000  0.06638000  1
  N  N637  1  0.84750000  0.91962000  0.56638000  1
  N  N638  1  0.87645000  0.40579000  0.07157000  1
  N  N639  1  0.64619000  0.90579000  0.57157000  1
  N  N640  1  0.81356000  0.49813000  0.93293000  1
  N  N641  1  0.75538000  0.99813000  0.43293000  1
  N  N642  1  0.85685000  0.38375000  0.03867000  1
  N  N643  1  0.72073000  0.88375000  0.53867000  1
  N  N644  1  0.86029000  0.45310000  0.94520000  1
  N  N645  1  0.74141000  0.95310000  0.44520000  1
  N  N646  1  0.10659000  0.29855000  0.07765000  1
  N  N647  1  0.51721000  0.79855000  0.57765000  1
  N  N648  1  0.81576000  0.57765000  0.70145000  1
  N  N649  1  0.90514000  0.07765000  0.20145000  1
  N  N650  1  0.93246000  0.11164000  0.09810000  1
  N  N651  1  0.85780000  0.61164000  0.59810000  1
  N  N652  1  0.05198000  0.57157000  0.59421000  1
  N  N653  1  0.78224000  0.07157000  0.09421000  1
  N  N654  1  0.10448000  0.53867000  0.61625000  1
  N  N655  1  0.74060000  0.03867000  0.11625000  1
  N  N656  1  0.00154000  0.07820000  0.06952000  1
  N  N657  1  0.85074000  0.57820000  0.56952000  1
  N  N658  1  0.26712000  0.56638000  0.58038000  1
  N  N659  1  0.58612000  0.06638000  0.08038000  1
  N  N660  1  0.18831000  0.06707000  0.99813000  1
  N  N661  1  0.74649000  0.56707000  0.49813000  1
  N  N662  1  0.18661000  0.05480000  0.95310000  1
  N  N663  1  0.80549000  0.55480000  0.45310000  1
  O  O664  1  0.68745000  0.51745000  0.47741000  1
  O  O665  1  0.31769000  0.01745000  0.97741000  1
  O  O666  1  0.24165000  0.95047000  0.97057000  1
  O  O667  1  0.83731000  0.45047000  0.47057000  1
  O  O668  1  0.93397000  0.88625000  0.02613000  1
  O  O669  1  0.15365000  0.38625000  0.52613000  1
  O  O670  1  0.75558000  0.52446000  0.37556000  1
  O  O671  1  0.34440000  0.02446000  0.87556000  1
  O  O672  1  0.07424000  0.47291000  0.38745000  1
  O  O673  1  0.06540000  0.97291000  0.88745000  1
  O  O674  1  0.86524000  0.88980000  0.91672000  1
  O  O675  1  0.32824000  0.38980000  0.41672000  1
  O  O676  1  0.00626000  0.45173000  0.31901000  1
  O  O677  1  0.22300000  0.95173000  0.81901000  1
  O  O678  1  0.00324000  0.83292000  0.93740000  1
  O  O679  1  0.22644000  0.33292000  0.43740000  1
  O  O680  1  0.08643000  0.35654000  0.34000000  1
  O  O681  1  0.21703000  0.85654000  0.84000000  1
  O  O682  1  0.21996000  0.62444000  0.02446000  1
  O  O683  1  0.13114000  0.12444000  0.52446000  1
  O  O684  1  0.03990000  0.52613000  0.11375000  1
  O  O685  1  0.32022000  0.02613000  0.61375000  1
  O  O686  1  0.04201000  0.68099000  0.95173000  1
  O  O687  1  0.32527000  0.18099000  0.45173000  1
  O  O688  1  0.05936000  0.43740000  0.16708000  1
  O  O689  1  0.33616000  0.93740000  0.66708000  1
  O  O690  1  0.95285000  0.61255000  0.97291000  1
  O  O691  1  0.46169000  0.11255000  0.47291000  1
  O  O692  1  0.29510000  0.52259000  0.01745000  1
  O  O693  1  0.16486000  0.02259000  0.51745000  1
  O  O694  1  0.21804000  0.41672000  0.11020000  1
  O  O695  1  0.25504000  0.91672000  0.61020000  1
  O  O696  1  0.78778000  0.47057000  0.04953000  1
  O  O697  1  0.69212000  0.97057000  0.54953000  1
  O  O698  1  0.05703000  0.66000000  0.85654000  1
  O  O699  1  0.42643000  0.16000000  0.35654000  1
  O  O700  1  0.94297000  0.34000000  0.14346000  1
  O  O701  1  0.57357000  0.84000000  0.64346000  1
  O  O702  1  0.21222000  0.52943000  0.95047000  1
  O  O703  1  0.30788000  0.02943000  0.45047000  1
  O  O704  1  0.78196000  0.58328000  0.88980000  1
  O  O705  1  0.74496000  0.08328000  0.38980000  1
  O  O706  1  0.70490000  0.47741000  0.98255000  1
  O  O707  1  0.83514000  0.97741000  0.48255000  1
  O  O708  1  0.04715000  0.38745000  0.02709000  1
  O  O709  1  0.53831000  0.88745000  0.52709000  1
  O  O710  1  0.94064000  0.56260000  0.83292000  1
  O  O711  1  0.66384000  0.06260000  0.33292000  1
  O  O712  1  0.95799000  0.31901000  0.04827000  1
  O  O713  1  0.67473000  0.81901000  0.54827000  1
  O  O714  1  0.96010000  0.47387000  0.88625000  1
  O  O715  1  0.67978000  0.97387000  0.38625000  1
  O  O716  1  0.78004000  0.37556000  0.97554000  1
  O  O717  1  0.86886000  0.87556000  0.47554000  1
  O  O718  1  0.91357000  0.64346000  0.66000000  1
  O  O719  1  0.78297000  0.14346000  0.16000000  1
  O  O720  1  0.99676000  0.16708000  0.06260000  1
  O  O721  1  0.77356000  0.66708000  0.56260000  1
  O  O722  1  0.99374000  0.54827000  0.68099000  1
  O  O723  1  0.77700000  0.04827000  0.18099000  1
  O  O724  1  0.13476000  0.11020000  0.08328000  1
  O  O725  1  0.67176000  0.61020000  0.58328000  1
  O  O726  1  0.92576000  0.52709000  0.61255000  1
  O  O727  1  0.93460000  0.02709000  0.11255000  1
  O  O728  1  0.24442000  0.47554000  0.62444000  1
  O  O729  1  0.65560000  0.97554000  0.12444000  1
  O  O730  1  0.06603000  0.11375000  0.97387000  1
  O  O731  1  0.84635000  0.61375000  0.47387000  1
  O  O732  1  0.75835000  0.04953000  0.02943000  1
  O  O733  1  0.16269000  0.54953000  0.52943000  1
  O  O734  1  0.31255000  0.48255000  0.52259000  1
  O  O735  1  0.68231000  0.98255000  0.02259000  1
