# generated using pymatgen
data_Ni2H66C81(N7O)3
_symmetry_space_group_name_H-M   'P 1'
_cell_length_a   15.15900000
_cell_length_b   24.51037130
_cell_length_c   27.70400000
_cell_angle_alpha   106.82580766
_cell_angle_beta   90.00000000
_cell_angle_gamma   108.01322094
_symmetry_Int_Tables_number   1
_chemical_formula_structural   Ni2H66C81(N7O)3
_chemical_formula_sum   'Ni8 H264 C324 N84 O12'
_cell_volume   9324.47625026
_cell_formula_units_Z   4
loop_
 _symmetry_equiv_pos_site_id
 _symmetry_equiv_pos_as_xyz
  1  'x, y, z'
loop_
 _atom_site_type_symbol
 _atom_site_label
 _atom_site_symmetry_multiplicity
 _atom_site_fract_x
 _atom_site_fract_y
 _atom_site_fract_z
 _atom_site_occupancy
  C  C0  1  0.82491000  0.98222000  0.36996000  1
  C  C1  1  0.15731000  0.98222000  0.86996000  1
  C  C2  1  0.84003000  0.96626000  0.41168000  1
  C  C3  1  0.12623000  0.96626000  0.91168000  1
  C  C4  1  0.93261000  0.96562000  0.09372000  1
  C  C5  1  0.03301000  0.96562000  0.59372000  1
  C  C6  1  0.86937000  0.94274000  0.16997000  1
  C  C7  1  0.07337000  0.94274000  0.66997000  1
  C  C8  1  0.79192000  0.93664000  0.19704000  1
  C  C9  1  0.14472000  0.93664000  0.69704000  1
  C  C10  1  0.93404000  0.91688000  0.17765000  1
  C  C11  1  0.98284000  0.91688000  0.67765000  1
  C  C12  1  0.77902000  0.90344000  0.23100000  1
  C  C13  1  0.12442000  0.90344000  0.73100000  1
  C  C14  1  0.83358000  0.89096000  0.84594000  1
  C  C15  1  0.05738000  0.89096000  0.34594000  1
  C  C16  1  0.91353000  0.89086000  0.82219000  1
  C  C17  1  0.97733000  0.89086000  0.32219000  1
  C  C18  1  0.64665000  0.88510000  0.88190000  1
  C  C19  1  0.23845000  0.88510000  0.38190000  1
  C  C20  1  0.92012000  0.88264000  0.21079000  1
  C  C21  1  0.96252000  0.88264000  0.71079000  1
  C  C22  1  0.84035000  0.87770000  0.97137000  1
  C  C23  1  0.03735000  0.87770000  0.47137000  1
  C  C24  1  0.84216000  0.87512000  0.23734000  1
  C  C25  1  0.03296000  0.87512000  0.73734000  1
  C  C26  1  0.57272000  0.86724000  0.90791000  1
  C  C27  1  0.29452000  0.86724000  0.40791000  1
  C  C28  1  0.88940000  0.86360000  0.46790000  1
  C  C29  1  0.97420000  0.86360000  0.96790000  1
  C  C30  1  0.91169000  0.83718000  0.29476000  1
  C  C31  1  0.92549000  0.83718000  0.79476000  1
  C  C32  1  0.76376000  0.83672000  0.84086000  1
  C  C33  1  0.07296000  0.83672000  0.34086000  1
  C  C34  1  0.61558000  0.83556000  0.04193000  1
  C  C35  1  0.21998000  0.83556000  0.54193000  1
  C  C36  1  0.68221000  0.82982000  0.07089000  1
  C  C37  1  0.14761000  0.82982000  0.57089000  1
  C  C38  1  0.73567000  0.81694000  0.33734000  1
  C  C39  1  0.08127000  0.81694000  0.83734000  1
  C  C40  1  0.82231000  0.81682000  0.95785000  1
  C  C41  1  0.99451000  0.81682000  0.45785000  1
  C  C42  1  0.74152000  0.81544000  0.28694000  1
  C  C43  1  0.07392000  0.81544000  0.78694000  1
  C  C44  1  0.64919000  0.79418000  0.35443000  1
  C  C45  1  0.14499000  0.79418000  0.85443000  1
  C  C46  1  0.62429000  0.79238000  0.88220000  1
  C  C47  1  0.16809000  0.79238000  0.38220000  1
  C  C48  1  0.66078000  0.79076000  0.25399000  1
  C  C49  1  0.12998000  0.79076000  0.75399000  1
  C  C50  1  0.85697000  0.78314000  0.79043000  1
  C  C51  1  0.92617000  0.78314000  0.29043000  1
  C  C52  1  0.77517000  0.78254000  0.81307000  1
  C  C53  1  0.00737000  0.78254000  0.31307000  1
  C  C54  1  0.56919000  0.77018000  0.32144000  1
  C  C55  1  0.20099000  0.77018000  0.82144000  1
  C  C56  1  0.57538000  0.76896000  0.27096000  1
  C  C57  1  0.19358000  0.76896000  0.77096000  1
  C  C58  1  0.45270000  0.76760000  0.38360000  1
  C  C59  1  0.31490000  0.76760000  0.88360000  1
  C  C60  1  0.76571000  0.75842000  0.11900000  1
  C  C61  1  0.99271000  0.75842000  0.61900000  1
  C  C62  1  0.82550000  0.75140000  0.43757000  1
  C  C63  1  0.92590000  0.75140000  0.93757000  1
  C  C64  1  0.62300000  0.74680000  0.00829000  1
  C  C65  1  0.12380000  0.74680000  0.50829000  1
  C  C66  1  0.74542000  0.74624000  0.06782000  1
  C  C67  1  0.00082000  0.74624000  0.56782000  1
  C  C68  1  0.74060000  0.74560000  0.45661000  1
  C  C69  1  0.00500000  0.74560000  0.95661000  1
  C  C70  1  0.82334000  0.73228000  0.13610000  1
  C  C71  1  0.90894000  0.73228000  0.63610000  1
  C  C72  1  0.58830000  0.72440000  0.55962000  1
  C  C73  1  0.13610000  0.72440000  0.05962000  1
  C  C74  1  0.66790000  0.72040000  0.58072000  1
  C  C75  1  0.05250000  0.72040000  0.08072000  1
  C  C76  1  0.41618000  0.71296000  0.49913000  1
  C  C77  1  0.29678000  0.71296000  0.99913000  1
  C  C78  1  0.78205000  0.70710000  0.03308000  1
  C  C79  1  0.92505000  0.70710000  0.53308000  1
  C  C80  1  0.83984000  0.70528000  0.40026000  1
  C  C81  1  0.86544000  0.70528000  0.90026000  1
  C  C82  1  0.40947000  0.69414000  0.31300000  1
  C  C83  1  0.28467000  0.69414000  0.81300000  1
  C  C84  1  0.83303000  0.69366000  0.60213000  1
  C  C85  1  0.86063000  0.69366000  0.10213000  1
  C  C86  1  0.66579000  0.69338000  0.43459000  1
  C  C87  1  0.02759000  0.69338000  0.93459000  1
  C  C88  1  0.34675000  0.68890000  0.84500000  1
  C  C89  1  0.34215000  0.68890000  0.34500000  1
  C  C90  1  0.83956000  0.68072000  0.05058000  1
  C  C91  1  0.84116000  0.68072000  0.55058000  1
  C  C92  1  0.50226000  0.68052000  0.55609000  1
  C  C93  1  0.17826000  0.68052000  0.05609000  1
  C  C94  1  0.39953000  0.67526000  0.01582000  1
  C  C95  1  0.27573000  0.67526000  0.51582000  1
  C  C96  1  0.66319000  0.67178000  0.59876000  1
  C  C97  1  0.00859000  0.67178000  0.09876000  1
  C  C98  1  0.33031000  0.66002000  0.54486000  1
  C  C99  1  0.32971000  0.66002000  0.04486000  1
  C  C100  1  0.76554000  0.65268000  0.37961000  1
  C  C101  1  0.88714000  0.65268000  0.87961000  1
  C  C102  1  0.67786000  0.64792000  0.39548000  1
  C  C103  1  0.97006000  0.64792000  0.89548000  1
  C  C104  1  0.62061000  0.63982000  0.29467000  1
  C  C105  1  0.01921000  0.63982000  0.79467000  1
  C  C106  1  0.68821000  0.63922000  0.69394000  1
  C  C107  1  0.95101000  0.63922000  0.19394000  1
  C  C108  1  0.74366000  0.63472000  0.65424000  1
  C  C109  1  0.89106000  0.63472000  0.15424000  1
  C  C110  1  0.49773000  0.63326000  0.57497000  1
  C  C111  1  0.13553000  0.63326000  0.07497000  1
  C  C112  1  0.60261000  0.63302000  0.24444000  1
  C  C113  1  0.03041000  0.63302000  0.74444000  1
  C  C114  1  0.57807000  0.62894000  0.59618000  1
  C  C115  1  0.05087000  0.62894000  0.09618000  1
  C  C116  1  0.50390000  0.61800000  0.14747000  1
  C  C117  1  0.11410000  0.61800000  0.64747000  1
  C  C118  1  0.68260000  0.60520000  0.72644000  1
  C  C119  1  0.92260000  0.60520000  0.22644000  1
  C  C120  1  0.79786000  0.59772000  0.64897000  1
  C  C121  1  0.79986000  0.59772000  0.14897000  1
  C  C122  1  0.48967000  0.59714000  0.09532000  1
  C  C123  1  0.10747000  0.59714000  0.59532000  1
  C  C124  1  0.58803000  0.59066000  0.31322000  1
  C  C125  1  0.00263000  0.59066000  0.81322000  1
  C  C126  1  0.43584000  0.58508000  0.37946000  1
  C  C127  1  0.14924000  0.58508000  0.87946000  1
  C  C128  1  0.51843000  0.57826000  0.39130000  1
  C  C129  1  0.05983000  0.57826000  0.89130000  1
  C  C130  1  0.55173000  0.57806000  0.21202000  1
  C  C131  1  0.02633000  0.57806000  0.71202000  1
  C  C132  1  0.73533000  0.56766000  0.72014000  1
  C  C133  1  0.83233000  0.56766000  0.22014000  1
  C  C134  1  0.35720000  0.56600000  0.40369000  1
  C  C135  1  0.20880000  0.56600000  0.90369000  1
  C  C136  1  0.77019000  0.56418000  0.18174000  1
  C  C137  1  0.79399000  0.56418000  0.68174000  1
  C  C138  1  0.52180000  0.55220000  0.42930000  1
  C  C139  1  0.03040000  0.55220000  0.92930000  1
  C  C140  1  0.27800000  0.54400000  0.71982000  1
  C  C141  1  0.26600000  0.54400000  0.21982000  1
  C  C142  1  0.69790000  0.54240000  0.80084000  1
  C  C143  1  0.84450000  0.54240000  0.30084000  1
  C  C144  1  0.36159000  0.53998000  0.44053000  1
  C  C145  1  0.17839000  0.53998000  0.94053000  1
  C  C146  1  0.54130000  0.53400000  0.27931000  1
  C  C147  1  0.99270000  0.53400000  0.77931000  1
  C  C148  1  0.44276000  0.53312000  0.45280000  1
  C  C149  1  0.09036000  0.53312000  0.95280000  1
  C  C150  1  0.52718000  0.53016000  0.11790000  1
  C  C151  1  0.00298000  0.53016000  0.61790000  1
  C  C152  1  0.52285000  0.52770000  0.22835000  1
  C  C153  1  0.00485000  0.52770000  0.72835000  1
  C  C154  1  0.32857000  0.52694000  0.96055000  1
  C  C155  1  0.19837000  0.52694000  0.46055000  1
  C  C156  1  0.70730000  0.51760000  0.98301000  1
  C  C157  1  0.81030000  0.51760000  0.48301000  1
  C  C158  1  0.26431000  0.51742000  0.75527000  1
  C  C159  1  0.25311000  0.51742000  0.25527000  1
  C  C160  1  0.72194000  0.50888000  0.49823000  1
  C  C161  1  0.78694000  0.50888000  0.99823000  1
  C  C162  1  0.27806000  0.49112000  0.50177000  1
  C  C163  1  0.21306000  0.49112000  0.00177000  1
  C  C164  1  0.73569000  0.48258000  0.24473000  1
  C  C165  1  0.74689000  0.48258000  0.74473000  1
  C  C166  1  0.29270000  0.48240000  0.01699000  1
  C  C167  1  0.18970000  0.48240000  0.51699000  1
  C  C168  1  0.67143000  0.47306000  0.03945000  1
  C  C169  1  0.80163000  0.47306000  0.53945000  1
  C  C170  1  0.47715000  0.47230000  0.77165000  1
  C  C171  1  0.99515000  0.47230000  0.27165000  1
  C  C172  1  0.47282000  0.46984000  0.88210000  1
  C  C173  1  0.99702000  0.46984000  0.38210000  1
  C  C174  1  0.55724000  0.46688000  0.54720000  1
  C  C175  1  0.90964000  0.46688000  0.04720000  1
  C  C176  1  0.45870000  0.46600000  0.72069000  1
  C  C177  1  0.00730000  0.46600000  0.22069000  1
  C  C178  1  0.63841000  0.46002000  0.55947000  1
  C  C179  1  0.82161000  0.46002000  0.05947000  1
  C  C180  1  0.30210000  0.45760000  0.19916000  1
  C  C181  1  0.15550000  0.45760000  0.69916000  1
  C  C182  1  0.72200000  0.45600000  0.28018000  1
  C  C183  1  0.73400000  0.45600000  0.78018000  1
  C  C184  1  0.47820000  0.44780000  0.57070000  1
  C  C185  1  0.96960000  0.44780000  0.07070000  1
  C  C186  1  0.22981000  0.43582000  0.81826000  1
  C  C187  1  0.20601000  0.43582000  0.31826000  1
  C  C188  1  0.64280000  0.43400000  0.59631000  1
  C  C189  1  0.79120000  0.43400000  0.09631000  1
  C  C190  1  0.26467000  0.43234000  0.27986000  1
  C  C191  1  0.16767000  0.43234000  0.77986000  1
  C  C192  1  0.44827000  0.42194000  0.78798000  1
  C  C193  1  0.97367000  0.42194000  0.28798000  1
  C  C194  1  0.48157000  0.42174000  0.60870000  1
  C  C195  1  0.94017000  0.42174000  0.10870000  1
  C  C196  1  0.56416000  0.41492000  0.62054000  1
  C  C197  1  0.85076000  0.41492000  0.12054000  1
  C  C198  1  0.41197000  0.40934000  0.68678000  1
  C  C199  1  0.99737000  0.40934000  0.18678000  1
  C  C200  1  0.51033000  0.40286000  0.90468000  1
  C  C201  1  0.89253000  0.40286000  0.40468000  1
  C  C202  1  0.20214000  0.40228000  0.35103000  1
  C  C203  1  0.20014000  0.40228000  0.85103000  1
  C  C204  1  0.31740000  0.39480000  0.27356000  1
  C  C205  1  0.07740000  0.39480000  0.77356000  1
  C  C206  1  0.49610000  0.38200000  0.85253000  1
  C  C207  1  0.88590000  0.38200000  0.35253000  1
  C  C208  1  0.42193000  0.37106000  0.40382000  1
  C  C209  1  0.94913000  0.37106000  0.90382000  1
  C  C210  1  0.39739000  0.36698000  0.75556000  1
  C  C211  1  0.96959000  0.36698000  0.25556000  1
  C  C212  1  0.50227000  0.36674000  0.42503000  1
  C  C213  1  0.86447000  0.36674000  0.92503000  1
  C  C214  1  0.25634000  0.36528000  0.34576000  1
  C  C215  1  0.10894000  0.36528000  0.84576000  1
  C  C216  1  0.31179000  0.36078000  0.30606000  1
  C  C217  1  0.04899000  0.36078000  0.80606000  1
  C  C218  1  0.37939000  0.36018000  0.70533000  1
  C  C219  1  0.98079000  0.36018000  0.20533000  1
  C  C220  1  0.32214000  0.35208000  0.60452000  1
  C  C221  1  0.02994000  0.35208000  0.10452000  1
  C  C222  1  0.23446000  0.34732000  0.62039000  1
  C  C223  1  0.11286000  0.34732000  0.12039000  1
  C  C224  1  0.66969000  0.33998000  0.45514000  1
  C  C225  1  0.67029000  0.33998000  0.95514000  1
  C  C226  1  0.33681000  0.32822000  0.40124000  1
  C  C227  1  0.99141000  0.32822000  0.90124000  1
  C  C228  1  0.60047000  0.32474000  0.98418000  1
  C  C229  1  0.72427000  0.32474000  0.48418000  1
  C  C230  1  0.49774000  0.31948000  0.44391000  1
  C  C231  1  0.82174000  0.31948000  0.94391000  1
  C  C232  1  0.16044000  0.31928000  0.94942000  1
  C  C233  1  0.15884000  0.31928000  0.44942000  1
  C  C234  1  0.65325000  0.31110000  0.15500000  1
  C  C235  1  0.65785000  0.31110000  0.65500000  1
  C  C236  1  0.33421000  0.30662000  0.56541000  1
  C  C237  1  0.97241000  0.30662000  0.06541000  1
  C  C238  1  0.16697000  0.30634000  0.39787000  1
  C  C239  1  0.13937000  0.30634000  0.89787000  1
  C  C240  1  0.59053000  0.30586000  0.68700000  1
  C  C241  1  0.71533000  0.30586000  0.18700000  1
  C  C242  1  0.16016000  0.29472000  0.59974000  1
  C  C243  1  0.13456000  0.29472000  0.09974000  1
  C  C244  1  0.21795000  0.29290000  0.96692000  1
  C  C245  1  0.07495000  0.29290000  0.46692000  1
  C  C246  1  0.58382000  0.28704000  0.50087000  1
  C  C247  1  0.70322000  0.28704000  0.00087000  1
  C  C248  1  0.33210000  0.27960000  0.41928000  1
  C  C249  1  0.94750000  0.27960000  0.91928000  1
  C  C250  1  0.41170000  0.27560000  0.44038000  1
  C  C251  1  0.86390000  0.27560000  0.94038000  1
  C  C252  1  0.17666000  0.26772000  0.86390000  1
  C  C253  1  0.09106000  0.26772000  0.36390000  1
  C  C254  1  0.25940000  0.25440000  0.54339000  1
  C  C255  1  0.99500000  0.25440000  0.04339000  1
  C  C256  1  0.25458000  0.25376000  0.93218000  1
  C  C257  1  0.99918000  0.25376000  0.43218000  1
  C  C258  1  0.37700000  0.25320000  0.99171000  1
  C  C259  1  0.87620000  0.25320000  0.49171000  1
  C  C260  1  0.17450000  0.24860000  0.56243000  1
  C  C261  1  0.07410000  0.24860000  0.06243000  1
  C  C262  1  0.23429000  0.24158000  0.88100000  1
  C  C263  1  0.00729000  0.24158000  0.38100000  1
  C  C264  1  0.54730000  0.23240000  0.61640000  1
  C  C265  1  0.68510000  0.23240000  0.11640000  1
  C  C266  1  0.42462000  0.23104000  0.72904000  1
  C  C267  1  0.80642000  0.23104000  0.22904000  1
  C  C268  1  0.43081000  0.22982000  0.67856000  1
  C  C269  1  0.79901000  0.22982000  0.17856000  1
  C  C270  1  0.22483000  0.21746000  0.18693000  1
  C  C271  1  0.99263000  0.21746000  0.68693000  1
  C  C272  1  0.14303000  0.21686000  0.20957000  1
  C  C273  1  0.07383000  0.21686000  0.70957000  1
  C  C274  1  0.33922000  0.20924000  0.74601000  1
  C  C275  1  0.87002000  0.20924000  0.24601000  1
  C  C276  1  0.37571000  0.20762000  0.11780000  1
  C  C277  1  0.83191000  0.20762000  0.61780000  1
  C  C278  1  0.35081000  0.20582000  0.64557000  1
  C  C279  1  0.85501000  0.20582000  0.14557000  1
  C  C280  1  0.25848000  0.18456000  0.71306000  1
  C  C281  1  0.92608000  0.18456000  0.21306000  1
  C  C282  1  0.17769000  0.18318000  0.04215000  1
  C  C283  1  0.00549000  0.18318000  0.54215000  1
  C  C284  1  0.26433000  0.18306000  0.66266000  1
  C  C285  1  0.91873000  0.18306000  0.16266000  1
  C  C286  1  0.31779000  0.17018000  0.92911000  1
  C  C287  1  0.85239000  0.17018000  0.42911000  1
  C  C288  1  0.38442000  0.16444000  0.95807000  1
  C  C289  1  0.78002000  0.16444000  0.45807000  1
  C  C290  1  0.23624000  0.16328000  0.15914000  1
  C  C291  1  0.92704000  0.16328000  0.65914000  1
  C  C292  1  0.08831000  0.16282000  0.70524000  1
  C  C293  1  0.07451000  0.16282000  0.20524000  1
  C  C294  1  0.11060000  0.13640000  0.53210000  1
  C  C295  1  0.02580000  0.13640000  0.03210000  1
  C  C296  1  0.42728000  0.13276000  0.09209000  1
  C  C297  1  0.70548000  0.13276000  0.59209000  1
  C  C298  1  0.15784000  0.12488000  0.76266000  1
  C  C299  1  0.96704000  0.12488000  0.26266000  1
  C  C300  1  0.15965000  0.12230000  0.02863000  1
  C  C301  1  0.96265000  0.12230000  0.52863000  1
  C  C302  1  0.07988000  0.11736000  0.78921000  1
  C  C303  1  0.03748000  0.11736000  0.28921000  1
  C  C304  1  0.35335000  0.11490000  0.11810000  1
  C  C305  1  0.76155000  0.11490000  0.61810000  1
  C  C306  1  0.08647000  0.10914000  0.17781000  1
  C  C307  1  0.02267000  0.10914000  0.67781000  1
  C  C308  1  0.16642000  0.10904000  0.15406000  1
  C  C309  1  0.94262000  0.10904000  0.65406000  1
  C  C310  1  0.22098000  0.09656000  0.76900000  1
  C  C311  1  0.87558000  0.09656000  0.26900000  1
  C  C312  1  0.06596000  0.08312000  0.82235000  1
  C  C313  1  0.01716000  0.08312000  0.32235000  1
  C  C314  1  0.20808000  0.06336000  0.80296000  1
  C  C315  1  0.85528000  0.06336000  0.30296000  1
  C  C316  1  0.13063000  0.05726000  0.83003000  1
  C  C317  1  0.92663000  0.05726000  0.33003000  1
  C  C318  1  0.06739000  0.03438000  0.90628000  1
  C  C319  1  0.96699000  0.03438000  0.40628000  1
  C  C320  1  0.15997000  0.03374000  0.58832000  1
  C  C321  1  0.87377000  0.03374000  0.08832000  1
  C  C322  1  0.17509000  0.01778000  0.63004000  1
  C  C323  1  0.84269000  0.01778000  0.13004000  1
  H  H324  1  0.87640000  0.98340000  0.56030000  1
  H  H325  1  0.10700000  0.98340000  0.06030000  1
  H  H326  1  0.77050000  0.96680000  0.34800000  1
  H  H327  1  0.19630000  0.96680000  0.84800000  1
  H  H328  1  0.74840000  0.95480000  0.19250000  1
  H  H329  1  0.20640000  0.95480000  0.69250000  1
  H  H330  1  0.96520000  0.93820000  0.08690000  1
  H  H331  1  0.97300000  0.93820000  0.58690000  1
  H  H332  1  0.79640000  0.93780000  0.42310000  1
  H  H333  1  0.14140000  0.93780000  0.92310000  1
  H  H334  1  0.95970000  0.92720000  0.82470000  1
  H  H335  1  0.96750000  0.92720000  0.32470000  1
  H  H336  1  0.82640000  0.92700000  0.86520000  1
  H  H337  1  0.10060000  0.92700000  0.36520000  1
  H  H338  1  0.67020000  0.92240000  0.87630000  1
  H  H339  1  0.25220000  0.92240000  0.37630000  1
  H  H340  1  0.93470000  0.92220000  0.66060000  1
  H  H341  1  0.98750000  0.92220000  0.16060000  1
  H  H342  1  0.72760000  0.90020000  0.24960000  1
  H  H343  1  0.17260000  0.90020000  0.74960000  1
  H  H344  1  0.79540000  0.89700000  0.97590000  1
  H  H345  1  0.10160000  0.89700000  0.47590000  1
  H  H346  1  0.53630000  0.89060000  0.92300000  1
  H  H347  1  0.35430000  0.89060000  0.42300000  1
  H  H348  1  0.83220000  0.87040000  0.46950000  1
  H  H349  1  0.03820000  0.87040000  0.96950000  1
  H  H350  1  0.59780000  0.86980000  0.04770000  1
  H  H351  1  0.27200000  0.86980000  0.54770000  1
  H  H352  1  0.90070000  0.86460000  0.71520000  1
  H  H353  1  0.96390000  0.86460000  0.21520000  1
  H  H354  1  0.71760000  0.85880000  0.09960000  1
  H  H355  1  0.14120000  0.85880000  0.59960000  1
  H  H356  1  0.78950000  0.83320000  0.35980000  1
  H  H357  1  0.04370000  0.83320000  0.85980000  1
  H  H358  1  0.44870000  0.82520000  0.48740000  1
  H  H359  1  0.37650000  0.82520000  0.98740000  1
  H  H360  1  0.48860000  0.80240000  0.40820000  1
  H  H361  1  0.31380000  0.80240000  0.90820000  1
  H  H362  1  0.64560000  0.79520000  0.38820000  1
  H  H363  1  0.14960000  0.79520000  0.88820000  1
  H  H364  1  0.66430000  0.78880000  0.22010000  1
  H  H365  1  0.12450000  0.78880000  0.72010000  1
  H  H366  1  0.76410000  0.78720000  0.95150000  1
  H  H367  1  0.02310000  0.78720000  0.45150000  1
  H  H368  1  0.74080000  0.78420000  0.14210000  1
  H  H369  1  0.04340000  0.78420000  0.64210000  1
  H  H370  1  0.73300000  0.77600000  0.48380000  1
  H  H371  1  0.04300000  0.77600000  0.98380000  1
  H  H372  1  0.59230000  0.75680000  0.54770000  1
  H  H373  1  0.16450000  0.75680000  0.04770000  1
  H  H374  1  0.63070000  0.75440000  0.87590000  1
  H  H375  1  0.12370000  0.75440000  0.37590000  1
  H  H376  1  0.52170000  0.75340000  0.24860000  1
  H  H377  1  0.23170000  0.75340000  0.74860000  1
  H  H378  1  0.72490000  0.75020000  0.58290000  1
  H  H379  1  0.02530000  0.75020000  0.08290000  1
  H  H380  1  0.86550000  0.74700000  0.77230000  1
  H  H381  1  0.88150000  0.74700000  0.27230000  1
  H  H382  1  0.72840000  0.74620000  0.80970000  1
  H  H383  1  0.01780000  0.74620000  0.30970000  1
  H  H384  1  0.83720000  0.74080000  0.17070000  1
  H  H385  1  0.90360000  0.74080000  0.67070000  1
  H  H386  1  0.46770000  0.73280000  0.48540000  1
  H  H387  1  0.26510000  0.73280000  0.98540000  1
  H  H388  1  0.81060000  0.70900000  0.88890000  1
  H  H389  1  0.89840000  0.70900000  0.38890000  1
  H  H390  1  0.61260000  0.70800000  0.98690000  1
  H  H391  1  0.09540000  0.70800000  0.48690000  1
  H  H392  1  0.76810000  0.69860000  0.99850000  1
  H  H393  1  0.93050000  0.69860000  0.49850000  1
  H  H394  1  0.60750000  0.68940000  0.44650000  1
  H  H395  1  0.08190000  0.68940000  0.94650000  1
  H  H396  1  0.65460000  0.67740000  0.31660000  1
  H  H397  1  0.02280000  0.67740000  0.81660000  1
  H  H398  1  0.40770000  0.66840000  0.28060000  1
  H  H399  1  0.26070000  0.66840000  0.78060000  1
  H  H400  1  0.62510000  0.66580000  0.23230000  1
  H  H401  1  0.04070000  0.66580000  0.73230000  1
  H  H402  1  0.65400000  0.66560000  0.69880000  1
  H  H403  1  0.01160000  0.66560000  0.19880000  1
  H  H404  1  0.45330000  0.66440000  0.01500000  1
  H  H405  1  0.21110000  0.66440000  0.51500000  1
  H  H406  1  0.37280000  0.65800000  0.83780000  1
  H  H407  1  0.28520000  0.65800000  0.33780000  1
  H  H408  1  0.79060000  0.65440000  0.52760000  1
  H  H409  1  0.86380000  0.65440000  0.02760000  1
  H  H410  1  0.49810000  0.65360000  0.16880000  1
  H  H411  1  0.15550000  0.65360000  0.66880000  1
  H  H412  1  0.32690000  0.63800000  0.06750000  1
  H  H413  1  0.31110000  0.63800000  0.56750000  1
  H  H414  1  0.77500000  0.62060000  0.35500000  1
  H  H415  1  0.84560000  0.62060000  0.85500000  1
  H  H416  1  0.47190000  0.61720000  0.07520000  1
  H  H417  1  0.14530000  0.61720000  0.57520000  1
  H  H418  1  0.64360000  0.60780000  0.75230000  1
  H  H419  1  0.96420000  0.60780000  0.25230000  1
  H  H420  1  0.44050000  0.60400000  0.57350000  1
  H  H421  1  0.16350000  0.60400000  0.07350000  1
  H  H422  1  0.43220000  0.60300000  0.35450000  1
  H  H423  1  0.17080000  0.60300000  0.85450000  1
  H  H424  1  0.57390000  0.59700000  0.60860000  1
  H  H425  1  0.02310000  0.59700000  0.10860000  1
  H  H426  1  0.75820000  0.59540000  0.12320000  1
  H  H427  1  0.83720000  0.59540000  0.62320000  1
  H  H428  1  0.56360000  0.58420000  0.96200000  1
  H  H429  1  0.02060000  0.58420000  0.46200000  1
  H  H430  1  0.32320000  0.57980000  0.72010000  1
  H  H431  1  0.25660000  0.57980000  0.22010000  1
  H  H432  1  0.67830000  0.57480000  0.81760000  1
  H  H433  1  0.89650000  0.57480000  0.31760000  1
  H  H434  1  0.30170000  0.57100000  0.39480000  1
  H  H435  1  0.26930000  0.57100000  0.89480000  1
  H  H436  1  0.57720000  0.54760000  0.43890000  1
  H  H437  1  0.97040000  0.54760000  0.93890000  1
  H  H438  1  0.36200000  0.54540000  0.93820000  1
  H  H439  1  0.18340000  0.54540000  0.43820000  1
  H  H440  1  0.70860000  0.53940000  0.17810000  1
  H  H441  1  0.83080000  0.53940000  0.67810000  1
  H  H442  1  0.70310000  0.53600000  0.95850000  1
  H  H443  1  0.83290000  0.53600000  0.45850000  1
  H  H444  1  0.30230000  0.53360000  0.78570000  1
  H  H445  1  0.23130000  0.53360000  0.28570000  1
  H  H446  1  0.67490000  0.52020000  0.48650000  1
  H  H447  1  0.84530000  0.52020000  0.98650000  1
  H  H448  1  0.44560000  0.51500000  0.47770000  1
  H  H449  1  0.06940000  0.51500000  0.97770000  1
  H  H450  1  0.50860000  0.51000000  0.79440000  1
  H  H451  1  0.00140000  0.51000000  0.29440000  1
  H  H452  1  0.45980000  0.50480000  0.88280000  1
  H  H453  1  0.04500000  0.50480000  0.38280000  1
  H  H454  1  0.52240000  0.50040000  0.29070000  1
  H  H455  1  0.97800000  0.50040000  0.79070000  1
  H  H456  1  0.47760000  0.49960000  0.70930000  1
  H  H457  1  0.02200000  0.49960000  0.20930000  1
  H  H458  1  0.54020000  0.49520000  0.11720000  1
  H  H459  1  0.95500000  0.49520000  0.61720000  1
  H  H460  1  0.49140000  0.49000000  0.20560000  1
  H  H461  1  0.99860000  0.49000000  0.70560000  1
  H  H462  1  0.55440000  0.48500000  0.52230000  1
  H  H463  1  0.93060000  0.48500000  0.02230000  1
  H  H464  1  0.32510000  0.47980000  0.51350000  1
  H  H465  1  0.15470000  0.47980000  0.01350000  1
  H  H466  1  0.69770000  0.46640000  0.21430000  1
  H  H467  1  0.76870000  0.46640000  0.71430000  1
  H  H468  1  0.29690000  0.46400000  0.04150000  1
  H  H469  1  0.16710000  0.46400000  0.54150000  1
  H  H470  1  0.29140000  0.46060000  0.82190000  1
  H  H471  1  0.16920000  0.46060000  0.32190000  1
  H  H472  1  0.63800000  0.45460000  0.06180000  1
  H  H473  1  0.81660000  0.45460000  0.56180000  1
  H  H474  1  0.42280000  0.45240000  0.56110000  1
  H  H475  1  0.02960000  0.45240000  0.06110000  1
  H  H476  1  0.69830000  0.42900000  0.60520000  1
  H  H477  1  0.73070000  0.42900000  0.10520000  1
  H  H478  1  0.32170000  0.42520000  0.18240000  1
  H  H479  1  0.10350000  0.42520000  0.68240000  1
  H  H480  1  0.67680000  0.42020000  0.27990000  1
  H  H481  1  0.74340000  0.42020000  0.77990000  1
  H  H482  1  0.43640000  0.41580000  0.03800000  1
  H  H483  1  0.97940000  0.41580000  0.53800000  1
  H  H484  1  0.24180000  0.40460000  0.87680000  1
  H  H485  1  0.16280000  0.40460000  0.37680000  1
  H  H486  1  0.42610000  0.40300000  0.39140000  1
  H  H487  1  0.97690000  0.40300000  0.89140000  1
  H  H488  1  0.56780000  0.39700000  0.64550000  1
  H  H489  1  0.82920000  0.39700000  0.14550000  1
  H  H490  1  0.55950000  0.39600000  0.42650000  1
  H  H491  1  0.83650000  0.39600000  0.92650000  1
  H  H492  1  0.35640000  0.39220000  0.24770000  1
  H  H493  1  0.03580000  0.39220000  0.74770000  1
  H  H494  1  0.52810000  0.38280000  0.92480000  1
  H  H495  1  0.85470000  0.38280000  0.42480000  1
  H  H496  1  0.22500000  0.37940000  0.64500000  1
  H  H497  1  0.15440000  0.37940000  0.14500000  1
  H  H498  1  0.67310000  0.36200000  0.93250000  1
  H  H499  1  0.68890000  0.36200000  0.43250000  1
  H  H500  1  0.50190000  0.34640000  0.83120000  1
  H  H501  1  0.84450000  0.34640000  0.33120000  1
  H  H502  1  0.20940000  0.34560000  0.47240000  1
  H  H503  1  0.13620000  0.34560000  0.97240000  1
  H  H504  1  0.62720000  0.34200000  0.16220000  1
  H  H505  1  0.71480000  0.34200000  0.66220000  1
  H  H506  1  0.54670000  0.33560000  0.98500000  1
  H  H507  1  0.78890000  0.33560000  0.48500000  1
  H  H508  1  0.34600000  0.33440000  0.30120000  1
  H  H509  1  0.98840000  0.33440000  0.80120000  1
  H  H510  1  0.37490000  0.33420000  0.76770000  1
  H  H511  1  0.95930000  0.33420000  0.26770000  1
  H  H512  1  0.59230000  0.33160000  0.71940000  1
  H  H513  1  0.73930000  0.33160000  0.21940000  1
  H  H514  1  0.34540000  0.32260000  0.68340000  1
  H  H515  1  0.97720000  0.32260000  0.18340000  1
  H  H516  1  0.39250000  0.31060000  0.55350000  1
  H  H517  1  0.91810000  0.31060000  0.05350000  1
  H  H518  1  0.23190000  0.30140000  0.00150000  1
  H  H519  1  0.06950000  0.30140000  0.50150000  1
  H  H520  1  0.38740000  0.29200000  0.01310000  1
  H  H521  1  0.90460000  0.29200000  0.51310000  1
  H  H522  1  0.18940000  0.29100000  0.11110000  1
  H  H523  1  0.10160000  0.29100000  0.61110000  1
  H  H524  1  0.53230000  0.26720000  0.51460000  1
  H  H525  1  0.73490000  0.26720000  0.01460000  1
  H  H526  1  0.16280000  0.25920000  0.82930000  1
  H  H527  1  0.09640000  0.25920000  0.32930000  1
  H  H528  1  0.27160000  0.25380000  0.19030000  1
  H  H529  1  0.98220000  0.25380000  0.69030000  1
  H  H530  1  0.13450000  0.25300000  0.22770000  1
  H  H531  1  0.11850000  0.25300000  0.72770000  1
  H  H532  1  0.27510000  0.24980000  0.41710000  1
  H  H533  1  0.97470000  0.24980000  0.91710000  1
  H  H534  1  0.47830000  0.24660000  0.75140000  1
  H  H535  1  0.76830000  0.24660000  0.25140000  1
  H  H536  1  0.36930000  0.24560000  0.12410000  1
  H  H537  1  0.87630000  0.24560000  0.62410000  1
  H  H538  1  0.40770000  0.24320000  0.45230000  1
  H  H539  1  0.83550000  0.24320000  0.95230000  1
  H  H540  1  0.26700000  0.22400000  0.51620000  1
  H  H541  1  0.95700000  0.22400000  0.01620000  1
  H  H542  1  0.25920000  0.21580000  0.85790000  1
  H  H543  1  0.95660000  0.21580000  0.35790000  1
  H  H544  1  0.23590000  0.21280000  0.04850000  1
  H  H545  1  0.97690000  0.21280000  0.54850000  1
  H  H546  1  0.33570000  0.21120000  0.77990000  1
  H  H547  1  0.87550000  0.21120000  0.27990000  1
  H  H548  1  0.35440000  0.20480000  0.61180000  1
  H  H549  1  0.85040000  0.20480000  0.11180000  1
  H  H550  1  0.51140000  0.19760000  0.59180000  1
  H  H551  1  0.68620000  0.19760000  0.09180000  1
  H  H552  1  0.55130000  0.17480000  0.51260000  1
  H  H553  1  0.62350000  0.17480000  0.01260000  1
  H  H554  1  0.21050000  0.16680000  0.64020000  1
  H  H555  1  0.95630000  0.16680000  0.14020000  1
  H  H556  1  0.28240000  0.14120000  0.90040000  1
  H  H557  1  0.85880000  0.14120000  0.40040000  1
  H  H558  1  0.09930000  0.13540000  0.28480000  1
  H  H559  1  0.03610000  0.13540000  0.78480000  1
  H  H560  1  0.40220000  0.13020000  0.95230000  1
  H  H561  1  0.72800000  0.13020000  0.45230000  1
  H  H562  1  0.16780000  0.12960000  0.53050000  1
  H  H563  1  0.96180000  0.12960000  0.03050000  1
  H  H564  1  0.46370000  0.10940000  0.07700000  1
  H  H565  1  0.64570000  0.10940000  0.57700000  1
  H  H566  1  0.20460000  0.10300000  0.02410000  1
  H  H567  1  0.89840000  0.10300000  0.52410000  1
  H  H568  1  0.27240000  0.09980000  0.75040000  1
  H  H569  1  0.82740000  0.09980000  0.25040000  1
  H  H570  1  0.06530000  0.07780000  0.33940000  1
  H  H571  1  0.01250000  0.07780000  0.83940000  1
  H  H572  1  0.32980000  0.07760000  0.12370000  1
  H  H573  1  0.74780000  0.07760000  0.62370000  1
  H  H574  1  0.17360000  0.07300000  0.13480000  1
  H  H575  1  0.89940000  0.07300000  0.63480000  1
  H  H576  1  0.04030000  0.07280000  0.17530000  1
  H  H577  1  0.03250000  0.07280000  0.67530000  1
  H  H578  1  0.20360000  0.06220000  0.57690000  1
  H  H579  1  0.85860000  0.06220000  0.07690000  1
  H  H580  1  0.03480000  0.06180000  0.91310000  1
  H  H581  1  0.02700000  0.06180000  0.41310000  1
  H  H582  1  0.25160000  0.04520000  0.80750000  1
  H  H583  1  0.79360000  0.04520000  0.30750000  1
  H  H584  1  0.22950000  0.03320000  0.65200000  1
  H  H585  1  0.80370000  0.03320000  0.15200000  1
  H  H586  1  0.12360000  0.01660000  0.43970000  1
  H  H587  1  0.89300000  0.01660000  0.93970000  1
  N  N588  1  0.92933000  0.99826000  0.43449000  1
  N  N589  1  0.06893000  0.99826000  0.93449000  1
  N  N590  1  0.88078000  0.97416000  0.13315000  1
  N  N591  1  0.09338000  0.97416000  0.63315000  1
  N  N592  1  0.93563000  0.90646000  0.97730000  1
  N  N593  1  0.97083000  0.90646000  0.47730000  1
  N  N594  1  0.82948000  0.83876000  0.26992000  1
  N  N595  1  0.00928000  0.83876000  0.76992000  1
  N  N596  1  0.68029000  0.83698000  0.86549000  1
  N  N597  1  0.15669000  0.83698000  0.36549000  1
  N  N598  1  0.55971000  0.80942000  0.90844000  1
  N  N599  1  0.24971000  0.80942000  0.40844000  1
  N  N600  1  0.89945000  0.80810000  0.45550000  1
  N  N601  1  0.90865000  0.80810000  0.95550000  1
  N  N602  1  0.57778000  0.78276000  0.00235000  1
  N  N603  1  0.20498000  0.78276000  0.50235000  1
  N  N604  1  0.68756000  0.77372000  0.05001000  1
  N  N605  1  0.08616000  0.77372000  0.55001000  1
  N  N606  1  0.48104000  0.74528000  0.33833000  1
  N  N607  1  0.26424000  0.74528000  0.83833000  1
  N  N608  1  0.36937000  0.73514000  0.38932000  1
  N  N609  1  0.36577000  0.73514000  0.88932000  1
  N  N610  1  0.37999000  0.70898000  0.98757000  1
  N  N611  1  0.32899000  0.70898000  0.48757000  1
  N  N612  1  0.42011000  0.68382000  0.53387000  1
  N  N613  1  0.26371000  0.68382000  0.03387000  1
  N  N614  1  0.74598000  0.66836000  0.61985000  1
  N  N615  1  0.92238000  0.66836000  0.11985000  1
  N  N616  1  0.60131000  0.59662000  0.36672000  1
  N  N617  1  0.99531000  0.59662000  0.86672000  1
  N  N618  1  0.52848000  0.57476000  0.16100000  1
  N  N619  1  0.04628000  0.57476000  0.66100000  1
  N  N620  1  0.50487000  0.54294000  0.07699000  1
  N  N621  1  0.03807000  0.54294000  0.57699000  1
  N  N622  1  0.72910000  0.52960000  0.75350000  1
  N  N623  1  0.80050000  0.52960000  0.25350000  1
  N  N624  1  0.28227000  0.51974000  0.46597000  1
  N  N625  1  0.23747000  0.51974000  0.96597000  1
  N  N626  1  0.29708000  0.50596000  0.18220000  1
  N  N627  1  0.20888000  0.50596000  0.68220000  1
  N  N628  1  0.36479000  0.50458000  0.99101000  1
  N  N629  1  0.13979000  0.50458000  0.49101000  1
  N  N630  1  0.63521000  0.49542000  0.00899000  1
  N  N631  1  0.86021000  0.49542000  0.50899000  1
  N  N632  1  0.70292000  0.49404000  0.81780000  1
  N  N633  1  0.79112000  0.49404000  0.31780000  1
  N  N634  1  0.71773000  0.48026000  0.53403000  1
  N  N635  1  0.76253000  0.48026000  0.03403000  1
  N  N636  1  0.27090000  0.47040000  0.24650000  1
  N  N637  1  0.19950000  0.47040000  0.74650000  1
  N  N638  1  0.49513000  0.45706000  0.92301000  1
  N  N639  1  0.96193000  0.45706000  0.42301000  1
  N  N640  1  0.47152000  0.42524000  0.83900000  1
  N  N641  1  0.95372000  0.42524000  0.33900000  1
  N  N642  1  0.39869000  0.40338000  0.63328000  1
  N  N643  1  0.00469000  0.40338000  0.13328000  1
  N  N644  1  0.25402000  0.33164000  0.38015000  1
  N  N645  1  0.07762000  0.33164000  0.88015000  1
  N  N646  1  0.57989000  0.31618000  0.46613000  1
  N  N647  1  0.73629000  0.31618000  0.96613000  1
  N  N648  1  0.62001000  0.29102000  0.01243000  1
  N  N649  1  0.67101000  0.29102000  0.51243000  1
  N  N650  1  0.63063000  0.26486000  0.61068000  1
  N  N651  1  0.63423000  0.26486000  0.11068000  1
  N  N652  1  0.51896000  0.25472000  0.66167000  1
  N  N653  1  0.73576000  0.25472000  0.16167000  1
  N  N654  1  0.31244000  0.22628000  0.94999000  1
  N  N655  1  0.91384000  0.22628000  0.44999000  1
  N  N656  1  0.42222000  0.21724000  0.99765000  1
  N  N657  1  0.79502000  0.21724000  0.49765000  1
  N  N658  1  0.10055000  0.19190000  0.54450000  1
  N  N659  1  0.09135000  0.19190000  0.04450000  1
  N  N660  1  0.44029000  0.19058000  0.09156000  1
  N  N661  1  0.75029000  0.19058000  0.59156000  1
  N  N662  1  0.31971000  0.16302000  0.13451000  1
  N  N663  1  0.84331000  0.16302000  0.63451000  1
  N  N664  1  0.17052000  0.16124000  0.73008000  1
  N  N665  1  0.99072000  0.16124000  0.23008000  1
  N  N666  1  0.06437000  0.09354000  0.02270000  1
  N  N667  1  0.02917000  0.09354000  0.52270000  1
  N  N668  1  0.11922000  0.02584000  0.86685000  1
  N  N669  1  0.90662000  0.02584000  0.36685000  1
  N  N670  1  0.07067000  0.00174000  0.56551000  1
  N  N671  1  0.93107000  0.00174000  0.06551000  1
  Ni  Ni672  1  0.00000000  0.00000000  0.00000000  1
  Ni  Ni673  1  0.00000000  0.00000000  0.50000000  1
  Ni  Ni674  1  0.46922000  0.75840000  0.94657000  1
  Ni  Ni675  1  0.28918000  0.75840000  0.44657000  1
  Ni  Ni676  1  0.50000000  0.50000000  1.00000000  1
  Ni  Ni677  1  0.00000000  0.50000000  0.50000000  1
  Ni  Ni678  1  0.53078000  0.24160000  0.05343000  1
  Ni  Ni679  1  0.71082000  0.24160000  0.55343000  1
  O  O680  1  0.87199000  0.99154000  0.53396000  1
  O  O681  1  0.11955000  0.99154000  0.03396000  1
  O  O682  1  0.43315000  0.83464000  0.98672000  1
  O  O683  1  0.40149000  0.83464000  0.48672000  1
  O  O684  1  0.55863000  0.58706000  0.99203000  1
  O  O685  1  0.02843000  0.58706000  0.49203000  1
  O  O686  1  0.44137000  0.41294000  0.00797000  1
  O  O687  1  0.97157000  0.41294000  0.50797000  1
  O  O688  1  0.56685000  0.16536000  0.01328000  1
  O  O689  1  0.59851000  0.16536000  0.51328000  1
  O  O690  1  0.12801000  0.00846000  0.46604000  1
  O  O691  1  0.88045000  0.00846000  0.96604000  1
