# generated using pymatgen
data_Zn8H12C24N12O11
_symmetry_space_group_name_H-M   'P 1'
_cell_length_a   20.16190000
_cell_length_b   20.16190000
_cell_length_c   20.16190000
_cell_angle_alpha   90.00000000
_cell_angle_beta   90.00000000
_cell_angle_gamma   90.00000000
_symmetry_Int_Tables_number   1
_chemical_formula_structural   Zn8H12C24N12O11
_chemical_formula_sum   'Zn32 H48 C96 N48 O44'
_cell_volume   8195.85694026
_cell_formula_units_Z   4
loop_
 _symmetry_equiv_pos_site_id
 _symmetry_equiv_pos_as_xyz
  1  'x, y, z'
loop_
 _atom_site_type_symbol
 _atom_site_label
 _atom_site_symmetry_multiplicity
 _atom_site_fract_x
 _atom_site_fract_y
 _atom_site_fract_z
 _atom_site_occupancy
  Zn  Zn0  1  0.19008000  0.80983000  0.19582000  1
  Zn  Zn1  1  0.19017000  0.69582000  0.30992000  1
  Zn  Zn2  1  0.19082000  0.80404000  0.80771000  1
  Zn  Zn3  1  0.19229000  0.69082000  0.69596000  1
  Zn  Zn4  1  0.19582000  0.19008000  0.80983000  1
  Zn  Zn5  1  0.19596000  0.30771000  0.30918000  1
  Zn  Zn6  1  0.19662000  0.19662000  0.19662000  1
  Zn  Zn7  1  0.19920000  0.30080000  0.69920000  1
  Zn  Zn8  1  0.30080000  0.69920000  0.19920000  1
  Zn  Zn9  1  0.30338000  0.80338000  0.69662000  1
  Zn  Zn10  1  0.30404000  0.69229000  0.80918000  1
  Zn  Zn11  1  0.30418000  0.80992000  0.30983000  1
  Zn  Zn12  1  0.30771000  0.30918000  0.19596000  1
  Zn  Zn13  1  0.30918000  0.19596000  0.30771000  1
  Zn  Zn14  1  0.30983000  0.30418000  0.80992000  1
  Zn  Zn15  1  0.30992000  0.19017000  0.69582000  1
  Zn  Zn16  1  0.69008000  0.69017000  0.80418000  1
  Zn  Zn17  1  0.69017000  0.80418000  0.69008000  1
  Zn  Zn18  1  0.69082000  0.69596000  0.19229000  1
  Zn  Zn19  1  0.69229000  0.80918000  0.30404000  1
  Zn  Zn20  1  0.69582000  0.30992000  0.19017000  1
  Zn  Zn21  1  0.69596000  0.19229000  0.69082000  1
  Zn  Zn22  1  0.69662000  0.30338000  0.80338000  1
  Zn  Zn23  1  0.69920000  0.19920000  0.30080000  1
  Zn  Zn24  1  0.80080000  0.80080000  0.80080000  1
  Zn  Zn25  1  0.80338000  0.69662000  0.30338000  1
  Zn  Zn26  1  0.80404000  0.80771000  0.19082000  1
  Zn  Zn27  1  0.80418000  0.69008000  0.69017000  1
  Zn  Zn28  1  0.80771000  0.19082000  0.80404000  1
  Zn  Zn29  1  0.80918000  0.30404000  0.69229000  1
  Zn  Zn30  1  0.80983000  0.19582000  0.19008000  1
  Zn  Zn31  1  0.80992000  0.30983000  0.30418000  1
  H  H32  1  0.02000000  0.17900000  0.81820000  1
  H  H33  1  0.02000000  0.67800000  0.31360000  1
  H  H34  1  0.02550000  0.81010000  0.17010000  1
  H  H35  1  0.03640000  0.32800000  0.69190000  1
  H  H36  1  0.17010000  0.02550000  0.81010000  1
  H  H37  1  0.17200000  0.30810000  0.53640000  1
  H  H38  1  0.17800000  0.18640000  0.98000000  1
  H  H39  1  0.17900000  0.81820000  0.02000000  1
  H  H40  1  0.18180000  0.52000000  0.32100000  1
  H  H41  1  0.18640000  0.98000000  0.17800000  1
  H  H42  1  0.18990000  0.67010000  0.47450000  1
  H  H43  1  0.19190000  0.46360000  0.67200000  1
  H  H44  1  0.30810000  0.53640000  0.17200000  1
  H  H45  1  0.31010000  0.32990000  0.97450000  1
  H  H46  1  0.31360000  0.02000000  0.67800000  1
  H  H47  1  0.31820000  0.48000000  0.82100000  1
  H  H48  1  0.32100000  0.18180000  0.52000000  1
  H  H49  1  0.32200000  0.81360000  0.48000000  1
  H  H50  1  0.32800000  0.69190000  0.03640000  1
  H  H51  1  0.32990000  0.97450000  0.31010000  1
  H  H52  1  0.46360000  0.67200000  0.19190000  1
  H  H53  1  0.47450000  0.18990000  0.67010000  1
  H  H54  1  0.48000000  0.32200000  0.81360000  1
  H  H55  1  0.48000000  0.82100000  0.31820000  1
  H  H56  1  0.52000000  0.32100000  0.18180000  1
  H  H57  1  0.52000000  0.82200000  0.68640000  1
  H  H58  1  0.52550000  0.68990000  0.82990000  1
  H  H59  1  0.53640000  0.17200000  0.30810000  1
  H  H60  1  0.67010000  0.47450000  0.18990000  1
  H  H61  1  0.67200000  0.19190000  0.46360000  1
  H  H62  1  0.67800000  0.31360000  0.02000000  1
  H  H63  1  0.67900000  0.68180000  0.98000000  1
  H  H64  1  0.68180000  0.98000000  0.67900000  1
  H  H65  1  0.68640000  0.52000000  0.82200000  1
  H  H66  1  0.68990000  0.82990000  0.52550000  1
  H  H67  1  0.69190000  0.03640000  0.32800000  1
  H  H68  1  0.80810000  0.96360000  0.82800000  1
  H  H69  1  0.81010000  0.17010000  0.02550000  1
  H  H70  1  0.81360000  0.48000000  0.32200000  1
  H  H71  1  0.81820000  0.02000000  0.17900000  1
  H  H72  1  0.82100000  0.31820000  0.48000000  1
  H  H73  1  0.82200000  0.68640000  0.52000000  1
  H  H74  1  0.82800000  0.80810000  0.96360000  1
  H  H75  1  0.82990000  0.52550000  0.68990000  1
  H  H76  1  0.96360000  0.82800000  0.80810000  1
  H  H77  1  0.97450000  0.31010000  0.32990000  1
  H  H78  1  0.98000000  0.17800000  0.18640000  1
  H  H79  1  0.98000000  0.67900000  0.68180000  1
  C  C80  1  0.00270000  0.26030000  0.24970000  1
  C  C81  1  0.00420000  0.25520000  0.75390000  1
  C  C82  1  0.03830000  0.21210000  0.79000000  1
  C  C83  1  0.04030000  0.71340000  0.29000000  1
  C  C84  1  0.04150000  0.78930000  0.20920000  1
  C  C85  1  0.04720000  0.29290000  0.72150000  1
  C  C86  1  0.06730000  0.75770000  0.76410000  1
  C  C87  1  0.08120000  0.26420000  0.25060000  1
  C  C88  1  0.20710000  0.27850000  0.54720000  1
  C  C89  1  0.20920000  0.04150000  0.78930000  1
  C  C90  1  0.21000000  0.53830000  0.28790000  1
  C  C91  1  0.21000000  0.95970000  0.21340000  1
  C  C92  1  0.21070000  0.70920000  0.45850000  1
  C  C93  1  0.21210000  0.79000000  0.03830000  1
  C  C94  1  0.21340000  0.21000000  0.95970000  1
  C  C95  1  0.22150000  0.45280000  0.70710000  1
  C  C96  1  0.23580000  0.74940000  0.58120000  1
  C  C97  1  0.23590000  0.56730000  0.74230000  1
  C  C98  1  0.23970000  0.75030000  0.50270000  1
  C  C99  1  0.24230000  0.26410000  0.43270000  1
  C  C100  1  0.24480000  0.24610000  0.50420000  1
  C  C101  1  0.24610000  0.50420000  0.24480000  1
  C  C102  1  0.24940000  0.91880000  0.76420000  1
  C  C103  1  0.24970000  0.00270000  0.26030000  1
  C  C104  1  0.25030000  0.99730000  0.76030000  1
  C  C105  1  0.25060000  0.08120000  0.26420000  1
  C  C106  1  0.25390000  0.49580000  0.74480000  1
  C  C107  1  0.25520000  0.75390000  0.00420000  1
  C  C108  1  0.25770000  0.73590000  0.93270000  1
  C  C109  1  0.26030000  0.24970000  0.00270000  1
  C  C110  1  0.26410000  0.43270000  0.24230000  1
  C  C111  1  0.26420000  0.25060000  0.08120000  1
  C  C112  1  0.27850000  0.54720000  0.20710000  1
  C  C113  1  0.28660000  0.79000000  0.45970000  1
  C  C114  1  0.28790000  0.21000000  0.53830000  1
  C  C115  1  0.28930000  0.29080000  0.95850000  1
  C  C116  1  0.29000000  0.04030000  0.71340000  1
  C  C117  1  0.29000000  0.46170000  0.78790000  1
  C  C118  1  0.29080000  0.95850000  0.28930000  1
  C  C119  1  0.29290000  0.72150000  0.04720000  1
  C  C120  1  0.41880000  0.73580000  0.75060000  1
  C  C121  1  0.43270000  0.24230000  0.26410000  1
  C  C122  1  0.45280000  0.70710000  0.22150000  1
  C  C123  1  0.45850000  0.21070000  0.70920000  1
  C  C124  1  0.45970000  0.28660000  0.79000000  1
  C  C125  1  0.46170000  0.78790000  0.29000000  1
  C  C126  1  0.49580000  0.74480000  0.25390000  1
  C  C127  1  0.49730000  0.73970000  0.74970000  1
  C  C128  1  0.50270000  0.23970000  0.75030000  1
  C  C129  1  0.50420000  0.24480000  0.24610000  1
  C  C130  1  0.53830000  0.28790000  0.21000000  1
  C  C131  1  0.54030000  0.78660000  0.71000000  1
  C  C132  1  0.54150000  0.71070000  0.79080000  1
  C  C133  1  0.54720000  0.20710000  0.27850000  1
  C  C134  1  0.56730000  0.74230000  0.23590000  1
  C  C135  1  0.58120000  0.23580000  0.74940000  1
  C  C136  1  0.70710000  0.22150000  0.45280000  1
  C  C137  1  0.70920000  0.45850000  0.21070000  1
  C  C138  1  0.71000000  0.54030000  0.78660000  1
  C  C139  1  0.71000000  0.96170000  0.71210000  1
  C  C140  1  0.71070000  0.79080000  0.54150000  1
  C  C141  1  0.71210000  0.71000000  0.96170000  1
  C  C142  1  0.71340000  0.29000000  0.04030000  1
  C  C143  1  0.72150000  0.04720000  0.29290000  1
  C  C144  1  0.73580000  0.75060000  0.41880000  1
  C  C145  1  0.73590000  0.93270000  0.25770000  1
  C  C146  1  0.73970000  0.74970000  0.49730000  1
  C  C147  1  0.74230000  0.23590000  0.56730000  1
  C  C148  1  0.74480000  0.25390000  0.49580000  1
  C  C149  1  0.74610000  0.99580000  0.75520000  1
  C  C150  1  0.74940000  0.58120000  0.23580000  1
  C  C151  1  0.74970000  0.49730000  0.73970000  1
  C  C152  1  0.75030000  0.50270000  0.23970000  1
  C  C153  1  0.75060000  0.41880000  0.73580000  1
  C  C154  1  0.75390000  0.00420000  0.25520000  1
  C  C155  1  0.75520000  0.74610000  0.99580000  1
  C  C156  1  0.75770000  0.76410000  0.06730000  1
  C  C157  1  0.76030000  0.25030000  0.99730000  1
  C  C158  1  0.76410000  0.06730000  0.75770000  1
  C  C159  1  0.76420000  0.24940000  0.91880000  1
  C  C160  1  0.77850000  0.95280000  0.79290000  1
  C  C161  1  0.78660000  0.71000000  0.54030000  1
  C  C162  1  0.78790000  0.29000000  0.46170000  1
  C  C163  1  0.78930000  0.20920000  0.04150000  1
  C  C164  1  0.79000000  0.03830000  0.21210000  1
  C  C165  1  0.79000000  0.45970000  0.28660000  1
  C  C166  1  0.79080000  0.54150000  0.71070000  1
  C  C167  1  0.79290000  0.77850000  0.95280000  1
  C  C168  1  0.91880000  0.76420000  0.24940000  1
  C  C169  1  0.93270000  0.25770000  0.73590000  1
  C  C170  1  0.95280000  0.79290000  0.77850000  1
  C  C171  1  0.95850000  0.28930000  0.29080000  1
  C  C172  1  0.95970000  0.21340000  0.21000000  1
  C  C173  1  0.96170000  0.71210000  0.71000000  1
  C  C174  1  0.99580000  0.75520000  0.74610000  1
  C  C175  1  0.99730000  0.76030000  0.25030000  1
  N  N176  1  0.09860000  0.79000000  0.21940000  1
  N  N177  1  0.09920000  0.71970000  0.29230000  1
  N  N178  1  0.10224000  0.22307000  0.77977000  1
  N  N179  1  0.10780000  0.27300000  0.73740000  1
  N  N180  1  0.20770000  0.90080000  0.21970000  1
  N  N181  1  0.21000000  0.71940000  0.40140000  1
  N  N182  1  0.21940000  0.09860000  0.79000000  1
  N  N183  1  0.21970000  0.20770000  0.90080000  1
  N  N184  1  0.22023000  0.60224000  0.27693000  1
  N  N185  1  0.22307000  0.77977000  0.10224000  1
  N  N186  1  0.22700000  0.26260000  0.60780000  1
  N  N187  1  0.23740000  0.39220000  0.72700000  1
  N  N188  1  0.26260000  0.60780000  0.22700000  1
  N  N189  1  0.27300000  0.73740000  0.10780000  1
  N  N190  1  0.27693000  0.22023000  0.60224000  1
  N  N191  1  0.27977000  0.39776000  0.77693000  1
  N  N192  1  0.28030000  0.79230000  0.40080000  1
  N  N193  1  0.28060000  0.90140000  0.29000000  1
  N  N194  1  0.29000000  0.28060000  0.90140000  1
  N  N195  1  0.29230000  0.09920000  0.71970000  1
  N  N196  1  0.39220000  0.72700000  0.23740000  1
  N  N197  1  0.39776000  0.77693000  0.27977000  1
  N  N198  1  0.40080000  0.28030000  0.79230000  1
  N  N199  1  0.40140000  0.21000000  0.71940000  1
  N  N200  1  0.59860000  0.71000000  0.78060000  1
  N  N201  1  0.59920000  0.78030000  0.70770000  1
  N  N202  1  0.60224000  0.27693000  0.22023000  1
  N  N203  1  0.60780000  0.22700000  0.26260000  1
  N  N204  1  0.70770000  0.59920000  0.78030000  1
  N  N205  1  0.71000000  0.78060000  0.59860000  1
  N  N206  1  0.71940000  0.40140000  0.21000000  1
  N  N207  1  0.71970000  0.29230000  0.09920000  1
  N  N208  1  0.72023000  0.89776000  0.72307000  1
  N  N209  1  0.72307000  0.72023000  0.89776000  1
  N  N210  1  0.72700000  0.23740000  0.39220000  1
  N  N211  1  0.73740000  0.10780000  0.27300000  1
  N  N212  1  0.76260000  0.89220000  0.77300000  1
  N  N213  1  0.77300000  0.76260000  0.89220000  1
  N  N214  1  0.77693000  0.27977000  0.39776000  1
  N  N215  1  0.77977000  0.10224000  0.22307000  1
  N  N216  1  0.78030000  0.70770000  0.59920000  1
  N  N217  1  0.78060000  0.59860000  0.71000000  1
  N  N218  1  0.79000000  0.21940000  0.09860000  1
  N  N219  1  0.79230000  0.40080000  0.28030000  1
  N  N220  1  0.89220000  0.77300000  0.76260000  1
  N  N221  1  0.89776000  0.72307000  0.72023000  1
  N  N222  1  0.90080000  0.21970000  0.20770000  1
  N  N223  1  0.90140000  0.29000000  0.28060000  1
  O  O224  1  0.10533000  0.22000000  0.21795000  1
  O  O225  1  0.10890000  0.75710000  0.79640000  1
  O  O226  1  0.11150000  0.29200000  0.29140000  1
  O  O227  1  0.20360000  0.60890000  0.74290000  1
  O  O228  1  0.20800000  0.70860000  0.61150000  1
  O  O229  1  0.20860000  0.88850000  0.79200000  1
  O  O230  1  0.21795000  0.10533000  0.22000000  1
  O  O231  1  0.22000000  0.21795000  0.10533000  1
  O  O232  1  0.24290000  0.29640000  0.39110000  1
  O  O233  1  0.24440000  0.74440000  0.75560000  1
  O  O234  1  0.24486000  0.75514000  0.25514000  1
  O  O235  1  0.25514000  0.24486000  0.75514000  1
  O  O236  1  0.25560000  0.25560000  0.25560000  1
  O  O237  1  0.25710000  0.70360000  0.89110000  1
  O  O238  1  0.28000000  0.78205000  0.60533000  1
  O  O239  1  0.28205000  0.89467000  0.72000000  1
  O  O240  1  0.29140000  0.11150000  0.29200000  1
  O  O241  1  0.29200000  0.29140000  0.11150000  1
  O  O242  1  0.29640000  0.39110000  0.24290000  1
  O  O243  1  0.38850000  0.70800000  0.79140000  1
  O  O244  1  0.39110000  0.24290000  0.29640000  1
  O  O245  1  0.39467000  0.78000000  0.71795000  1
  O  O246  1  0.60533000  0.28000000  0.78205000  1
  O  O247  1  0.60890000  0.74290000  0.20360000  1
  O  O248  1  0.61150000  0.20800000  0.70860000  1
  O  O249  1  0.70360000  0.89110000  0.25710000  1
  O  O250  1  0.70800000  0.79140000  0.38850000  1
  O  O251  1  0.70860000  0.61150000  0.20800000  1
  O  O252  1  0.71795000  0.39467000  0.78000000  1
  O  O253  1  0.72000000  0.28205000  0.89467000  1
  O  O254  1  0.74290000  0.20360000  0.60890000  1
  O  O255  1  0.74440000  0.75560000  0.24440000  1
  O  O256  1  0.74486000  0.74486000  0.74486000  1
  O  O257  1  0.75514000  0.25514000  0.24486000  1
  O  O258  1  0.75560000  0.24440000  0.74440000  1
  O  O259  1  0.75710000  0.79640000  0.10890000  1
  O  O260  1  0.78000000  0.71795000  0.39467000  1
  O  O261  1  0.78205000  0.60533000  0.28000000  1
  O  O262  1  0.79140000  0.38850000  0.70800000  1
  O  O263  1  0.79200000  0.20860000  0.88850000  1
  O  O264  1  0.79640000  0.10890000  0.75710000  1
  O  O265  1  0.88850000  0.79200000  0.20860000  1
  O  O266  1  0.89110000  0.25710000  0.70360000  1
  O  O267  1  0.89467000  0.72000000  0.28205000  1
