# generated using pymatgen
data_CoH10C12N2O3F
_symmetry_space_group_name_H-M   'P 1'
_cell_length_a   7.31670000
_cell_length_b   9.62020000
_cell_length_c   11.39570000
_cell_angle_alpha   96.91430000
_cell_angle_beta   90.00000000
_cell_angle_gamma   112.35100000
_symmetry_Int_Tables_number   1
_chemical_formula_structural   CoH10C12N2O3F
_chemical_formula_sum   'Co2 H20 C24 N4 O6 F2'
_cell_volume   735.54838043
_cell_formula_units_Z   2
loop_
 _symmetry_equiv_pos_site_id
 _symmetry_equiv_pos_as_xyz
  1  'x, y, z'
loop_
 _atom_site_type_symbol
 _atom_site_label
 _atom_site_symmetry_multiplicity
 _atom_site_fract_x
 _atom_site_fract_y
 _atom_site_fract_z
 _atom_site_occupancy
  Co  Co0  1  0.43904000  0.49770000  0.00350000  1
  Co  Co1  1  0.94134000  0.50230000  0.99650000  1
  H  H2  1  0.12630000  0.71840000  0.22940000  1
  H  H3  1  0.12850000  0.72380000  0.43290000  1
  H  H4  1  0.23340000  0.28340000  0.39180000  1
  H  H5  1  0.23490000  0.29080000  0.18870000  1
  H  H6  1  0.32620000  0.99700000  0.10200000  1
  H  H7  1  0.32920000  0.00300000  0.89800000  1
  H  H8  1  0.40470000  0.27620000  0.56710000  1
  H  H9  1  0.40790000  0.28160000  0.77060000  1
  H  H10  1  0.47260000  0.71760000  0.61420000  1
  H  H11  1  0.47680000  0.71080000  0.81680000  1
  H  H12  1  0.57800000  0.97800000  0.19370000  1
  H  H13  1  0.60000000  0.02200000  0.80630000  1
  H  H14  1  0.64030000  0.70620000  0.23150000  1
  H  H15  1  0.64160000  0.71360000  0.43560000  1
  H  H16  1  0.75500000  0.28240000  0.38580000  1
  H  H17  1  0.76600000  0.28920000  0.18320000  1
  H  H18  1  0.92800000  0.28640000  0.56440000  1
  H  H19  1  0.93410000  0.29380000  0.76850000  1
  H  H20  1  0.94410000  0.70920000  0.81130000  1
  H  H21  1  0.95000000  0.71660000  0.60820000  1
  C  C22  1  0.04978000  0.62876000  0.26180000  1
  C  C23  1  0.05240000  0.63280000  0.38360000  1
  C  C24  1  0.31798000  0.37176000  0.36090000  1
  C  C25  1  0.32036000  0.37692000  0.23950000  1
  C  C26  1  0.33804000  0.79008000  0.03200000  1
  C  C27  1  0.41960000  0.36720000  0.61640000  1
  C  C28  1  0.42102000  0.37124000  0.73820000  1
  C  C29  1  0.42531000  0.96522000  0.05830000  1
  C  C30  1  0.43999000  0.49678000  0.56640000  1
  C  C31  1  0.44056000  0.49712000  0.43660000  1
  C  C32  1  0.45986000  0.62652000  0.64410000  1
  C  C33  1  0.46009000  0.03478000  0.94170000  1
  C  C34  1  0.46078000  0.62116000  0.76520000  1
  C  C35  1  0.54796000  0.20992000  0.96800000  1
  C  C36  1  0.55577000  0.61974000  0.26460000  1
  C  C37  1  0.55924000  0.62448000  0.38660000  1
  C  C38  1  0.83334000  0.37348000  0.35590000  1
  C  C39  1  0.83962000  0.37884000  0.23480000  1
  C  C40  1  0.93476000  0.37552000  0.61340000  1
  C  C41  1  0.93603000  0.38026000  0.73540000  1
  C  C42  1  0.94321000  0.50322000  0.43360000  1
  C  C43  1  0.94344000  0.50288000  0.56340000  1
  C  C44  1  0.94344000  0.62308000  0.76050000  1
  C  C45  1  0.94622000  0.62824000  0.63910000  1
  N  N46  1  0.43789000  0.49818000  0.19084000  1
  N  N47  1  0.44010000  0.49560000  0.81292000  1
  N  N48  1  0.93971000  0.50182000  0.80916000  1
  N  N49  1  0.94450000  0.50440000  0.18708000  1
  O  O50  1  0.15216000  0.73012000  0.00970000  1
  O  O51  1  0.42204000  0.26988000  0.99030000  1
  O  O52  1  0.45512000  0.72524000  0.03500000  1
  O  O53  1  0.58353000  0.98246000  0.86930000  1
  O  O54  1  0.60107000  0.01754000  0.13070000  1
  O  O55  1  0.72988000  0.27476000  0.96500000  1
  F  F56  1  0.14190000  0.40540000  0.99020000  1
  F  F57  1  0.73650000  0.59460000  0.00980000  1
