# generated using pymatgen
data_Eu2H18C42(SO6)3
_symmetry_space_group_name_H-M   'P 1'
_cell_length_a   14.91780000
_cell_length_b   19.04210000
_cell_length_c   30.14290000
_cell_angle_alpha   97.71160000
_cell_angle_beta   90.00000000
_cell_angle_gamma   113.06100000
_symmetry_Int_Tables_number   1
_chemical_formula_structural   Eu2H18C42(SO6)3
_chemical_formula_sum   'Eu8 H72 C168 S12 O72'
_cell_volume   7794.09520190
_cell_formula_units_Z   4
loop_
 _symmetry_equiv_pos_site_id
 _symmetry_equiv_pos_as_xyz
  1  'x, y, z'
loop_
 _atom_site_type_symbol
 _atom_site_label
 _atom_site_symmetry_multiplicity
 _atom_site_fract_x
 _atom_site_fract_y
 _atom_site_fract_z
 _atom_site_occupancy
  Eu  Eu0  1  0.22035000  0.58224000  0.14272000  1
  Eu  Eu1  1  0.36189000  0.58224000  0.64272000  1
  Eu  Eu2  1  0.38235000  0.82817000  0.15698000  1
  Eu  Eu3  1  0.44582000  0.82817000  0.65698000  1
  Eu  Eu4  1  0.55418000  0.17183000  0.34302000  1
  Eu  Eu5  1  0.61765000  0.17183000  0.84302000  1
  Eu  Eu6  1  0.63811000  0.41776000  0.35728000  1
  Eu  Eu7  1  0.77965000  0.41776000  0.85728000  1
  H  H8  1  0.01680000  0.70020000  0.25340000  1
  H  H9  1  0.02740000  0.57900000  0.64160000  1
  H  H10  1  0.03410000  0.38040000  0.85200000  1
  H  H11  1  0.06070000  0.14360000  0.84430000  1
  H  H12  1  0.07560000  0.83800000  0.65110000  1
  H  H13  1  0.07840000  0.33620000  0.60130000  1
  H  H14  1  0.08290000  0.14360000  0.34430000  1
  H  H15  1  0.08760000  0.84960000  0.15470000  1
  H  H16  1  0.12240000  0.40400000  0.73410000  1
  H  H17  1  0.16870000  0.82080000  0.25290000  1
  H  H18  1  0.17170000  0.59200000  0.35510000  1
  H  H19  1  0.18110000  0.60760000  0.28040000  1
  H  H20  1  0.19250000  0.58640000  0.43650000  1
  H  H21  1  0.20690000  0.80120000  0.64790000  1
  H  H22  1  0.23760000  0.16200000  0.84890000  1
  H  H23  1  0.23800000  0.15040000  0.34530000  1
  H  H24  1  0.23940000  0.59700000  0.51090000  1
  H  H25  1  0.25780000  0.33620000  0.10130000  1
  H  H26  1  0.27990000  0.94840000  0.39770000  1
  H  H27  1  0.28160000  0.40400000  0.23410000  1
  H  H28  1  0.30680000  0.93320000  0.26410000  1
  H  H29  1  0.31660000  0.29980000  0.24660000  1
  H  H30  1  0.33150000  0.05160000  0.10230000  1
  H  H31  1  0.33960000  0.80040000  0.00500000  1
  H  H32  1  0.34630000  0.38040000  0.35200000  1
  H  H33  1  0.34790000  0.17920000  0.24710000  1
  H  H34  1  0.35760000  0.59700000  0.01090000  1
  H  H35  1  0.37360000  0.06680000  0.23590000  1
  H  H36  1  0.39390000  0.58640000  0.93650000  1
  H  H37  1  0.40250000  0.81140000  0.81080000  1
  H  H38  1  0.40570000  0.19880000  0.85210000  1
  H  H39  1  0.40890000  0.81140000  0.31080000  1
  H  H40  1  0.42030000  0.59200000  0.85510000  1
  H  H41  1  0.42650000  0.60760000  0.78040000  1
  H  H42  1  0.44840000  0.42100000  0.85840000  1
  H  H43  1  0.46080000  0.80040000  0.50500000  1
  H  H44  1  0.53920000  0.19960000  0.49500000  1
  H  H45  1  0.55160000  0.57900000  0.14160000  1
  H  H46  1  0.57350000  0.39240000  0.21960000  1
  H  H47  1  0.57970000  0.40800000  0.14490000  1
  H  H48  1  0.59110000  0.18860000  0.68920000  1
  H  H49  1  0.59430000  0.80120000  0.14790000  1
  H  H50  1  0.59750000  0.18860000  0.18920000  1
  H  H51  1  0.60610000  0.41360000  0.06350000  1
  H  H52  1  0.62640000  0.93320000  0.76410000  1
  H  H53  1  0.64240000  0.40300000  0.98910000  1
  H  H54  1  0.65210000  0.82080000  0.75290000  1
  H  H55  1  0.65370000  0.61960000  0.64800000  1
  H  H56  1  0.66040000  0.19960000  0.99500000  1
  H  H57  1  0.66850000  0.94840000  0.89770000  1
  H  H58  1  0.68340000  0.70020000  0.75340000  1
  H  H59  1  0.69320000  0.06680000  0.73590000  1
  H  H60  1  0.71840000  0.59600000  0.76590000  1
  H  H61  1  0.72010000  0.05160000  0.60230000  1
  H  H62  1  0.74220000  0.66380000  0.89870000  1
  H  H63  1  0.76060000  0.40300000  0.48910000  1
  H  H64  1  0.76200000  0.84960000  0.65470000  1
  H  H65  1  0.76240000  0.83800000  0.15110000  1
  H  H66  1  0.79310000  0.19880000  0.35210000  1
  H  H67  1  0.80750000  0.41360000  0.56350000  1
  H  H68  1  0.81890000  0.39240000  0.71960000  1
  H  H69  1  0.82830000  0.40800000  0.64490000  1
  H  H70  1  0.83130000  0.17920000  0.74710000  1
  H  H71  1  0.87760000  0.59600000  0.26590000  1
  H  H72  1  0.91240000  0.15040000  0.84530000  1
  H  H73  1  0.91710000  0.85640000  0.65570000  1
  H  H74  1  0.92160000  0.66380000  0.39870000  1
  H  H75  1  0.92440000  0.16200000  0.34890000  1
  H  H76  1  0.93930000  0.85640000  0.15570000  1
  H  H77  1  0.96590000  0.61960000  0.14800000  1
  H  H78  1  0.97260000  0.42100000  0.35840000  1
  H  H79  1  0.98320000  0.29980000  0.74660000  1
  C  C80  1  0.00191000  0.30662000  0.71753000  1
  C  C81  1  0.02320000  0.73280000  0.36136000  1
  C  C82  1  0.02568000  0.26936000  0.35143000  1
  C  C83  1  0.03186000  0.80432000  0.15340000  1
  C  C84  1  0.03796000  0.63092000  0.64404000  1
  C  C85  1  0.03914000  0.34628000  0.35383000  1
  C  C86  1  0.03947000  0.33314000  0.85052000  1
  C  C87  1  0.04265000  0.73510000  0.15161000  1
  C  C88  1  0.05271000  0.74502000  0.31843000  1
  C  C89  1  0.05582000  0.19104000  0.84640000  1
  C  C90  1  0.06017000  0.32914000  0.63036000  1
  C  C91  1  0.06567000  0.78634000  0.64940000  1
  C  C92  1  0.08544000  0.36888000  0.70986000  1
  C  C93  1  0.11500000  0.37980000  0.66678000  1
  C  C94  1  0.12000000  0.26000000  0.34958000  1
  C  C95  1  0.12845000  0.32830000  0.85041000  1
  C  C96  1  0.13107000  0.68694000  0.64559000  1
  C  C97  1  0.13522000  0.19104000  0.34640000  1
  C  C98  1  0.14000000  0.26000000  0.84958000  1
  C  C99  1  0.14181000  0.81622000  0.31842000  1
  C  C100  1  0.14338000  0.73456000  0.15098000  1
  C  C101  1  0.14397000  0.76374000  0.64770000  1
  C  C102  1  0.17680000  0.85600000  0.36085000  1
  C  C103  1  0.19109000  0.84618000  0.28185000  1
  C  C104  1  0.19985000  0.32830000  0.35041000  1
  C  C105  1  0.20621000  0.44722000  0.65951000  1
  C  C106  1  0.21894000  0.66708000  0.64662000  1
  C  C107  1  0.22040000  0.63500000  0.34622000  1
  C  C108  1  0.22536000  0.64512000  0.30163000  1
  C  C109  1  0.22754000  0.19568000  0.34660000  1
  C  C110  1  0.24101000  0.44722000  0.15951000  1
  C  C111  1  0.24368000  0.26936000  0.85143000  1
  C  C112  1  0.24664000  0.62868000  0.44989000  1
  C  C113  1  0.25800000  0.92340000  0.36870000  1
  C  C114  1  0.26480000  0.37980000  0.16678000  1
  C  C115  1  0.26897000  0.32914000  0.13036000  1
  C  C116  1  0.27298000  0.91356000  0.28863000  1
  C  C117  1  0.27509000  0.63538000  0.49432000  1
  C  C118  1  0.27933000  0.21366000  0.85060000  1
  C  C119  1  0.28344000  0.36888000  0.20986000  1
  C  C120  1  0.28777000  0.68894000  0.37725000  1
  C  C121  1  0.29040000  0.26720000  0.13864000  1
  C  C122  1  0.29367000  0.33314000  0.35052000  1
  C  C123  1  0.29522000  0.71024000  0.28787000  1
  C  C124  1  0.29911000  0.71822000  0.23880000  1
  C  C125  1  0.30154000  0.68708000  0.42558000  1
  C  C126  1  0.30471000  0.30662000  0.21753000  1
  C  C127  1  0.30644000  0.95308000  0.33181000  1
  C  C128  1  0.30714000  0.34628000  0.85383000  1
  C  C129  1  0.30755000  0.26490000  0.34839000  1
  C  C130  1  0.30769000  0.25498000  0.18157000  1
  C  C131  1  0.31215000  0.69850000  0.06296000  1
  C  C132  1  0.32080000  0.14400000  0.13915000  1
  C  C133  1  0.32559000  0.18378000  0.18158000  1
  C  C134  1  0.33460000  0.07660000  0.13130000  1
  C  C135  1  0.34218000  0.69776000  0.01496000  1
  C  C136  1  0.34491000  0.15382000  0.21815000  1
  C  C137  1  0.34887000  0.75714000  0.99134000  1
  C  C138  1  0.35336000  0.04692000  0.16819000  1
  C  C139  1  0.35558000  0.69776000  0.51496000  1
  C  C140  1  0.35703000  0.75426000  0.36312000  1
  C  C141  1  0.35942000  0.08644000  0.21137000  1
  C  C142  1  0.36029000  0.63538000  0.99432000  1
  C  C143  1  0.36230000  0.76680000  0.31927000  1
  C  C144  1  0.36778000  0.97256000  0.16191000  1
  C  C145  1  0.36980000  0.74980000  0.94684000  1
  C  C146  1  0.38000000  0.74980000  0.44684000  1
  C  C147  1  0.38023000  0.23626000  0.85230000  1
  C  C148  1  0.38204000  0.62868000  0.94989000  1
  C  C149  1  0.38554000  0.68708000  0.92558000  1
  C  C150  1  0.38635000  0.69850000  0.56296000  1
  C  C151  1  0.39522000  0.02744000  0.33809000  1
  C  C152  1  0.39723000  0.75426000  0.86312000  1
  C  C153  1  0.40117000  0.68894000  0.87725000  1
  C  C154  1  0.40450000  0.76680000  0.81927000  1
  C  C155  1  0.40704000  0.36908000  0.85596000  1
  C  C156  1  0.40827000  0.75714000  0.49134000  1
  C  C157  1  0.40882000  0.26544000  0.34902000  1
  C  C158  1  0.41460000  0.63500000  0.84622000  1
  C  C159  1  0.41502000  0.71024000  0.78787000  1
  C  C160  1  0.41911000  0.71822000  0.73880000  1
  C  C161  1  0.41976000  0.64512000  0.80163000  1
  C  C162  1  0.44413000  0.31306000  0.85441000  1
  C  C163  1  0.44814000  0.66708000  0.14662000  1
  C  C164  1  0.55186000  0.33292000  0.85338000  1
  C  C165  1  0.55587000  0.68694000  0.14559000  1
  C  C166  1  0.58024000  0.35488000  0.19837000  1
  C  C167  1  0.58089000  0.28178000  0.26120000  1
  C  C168  1  0.58498000  0.28976000  0.21213000  1
  C  C169  1  0.58540000  0.36500000  0.15378000  1
  C  C170  1  0.59118000  0.73456000  0.65098000  1
  C  C171  1  0.59173000  0.24286000  0.50866000  1
  C  C172  1  0.59296000  0.63092000  0.14404000  1
  C  C173  1  0.59550000  0.23320000  0.18073000  1
  C  C174  1  0.59883000  0.31106000  0.12275000  1
  C  C175  1  0.60277000  0.24574000  0.13688000  1
  C  C176  1  0.60478000  0.97256000  0.66191000  1
  C  C177  1  0.61365000  0.30150000  0.43704000  1
  C  C178  1  0.61446000  0.31292000  0.07442000  1
  C  C179  1  0.61796000  0.37132000  0.05011000  1
  C  C180  1  0.61977000  0.76374000  0.14770000  1
  C  C181  1  0.62000000  0.25020000  0.55316000  1
  C  C182  1  0.63020000  0.25020000  0.05316000  1
  C  C183  1  0.63222000  0.02744000  0.83809000  1
  C  C184  1  0.63770000  0.23320000  0.68073000  1
  C  C185  1  0.63971000  0.36462000  0.00568000  1
  C  C186  1  0.64058000  0.91356000  0.78863000  1
  C  C187  1  0.64297000  0.24574000  0.63688000  1
  C  C188  1  0.64442000  0.30224000  0.48504000  1
  C  C189  1  0.64664000  0.95308000  0.83181000  1
  C  C190  1  0.65113000  0.24286000  0.00866000  1
  C  C191  1  0.65509000  0.84618000  0.78185000  1
  C  C192  1  0.65782000  0.30224000  0.98504000  1
  C  C193  1  0.66540000  0.92340000  0.86870000  1
  C  C194  1  0.67441000  0.81622000  0.81842000  1
  C  C195  1  0.67920000  0.85600000  0.86085000  1
  C  C196  1  0.68785000  0.30150000  0.93704000  1
  C  C197  1  0.69231000  0.74502000  0.81843000  1
  C  C198  1  0.69245000  0.73510000  0.65161000  1
  C  C199  1  0.69286000  0.65372000  0.14617000  1
  C  C200  1  0.69356000  0.04692000  0.66819000  1
  C  C201  1  0.69529000  0.69338000  0.78247000  1
  C  C202  1  0.69846000  0.31292000  0.57442000  1
  C  C203  1  0.70089000  0.28178000  0.76120000  1
  C  C204  1  0.70478000  0.28976000  0.71213000  1
  C  C205  1  0.70633000  0.66686000  0.64948000  1
  C  C206  1  0.70960000  0.73280000  0.86136000  1
  C  C207  1  0.71223000  0.31106000  0.62275000  1
  C  C208  1  0.71656000  0.63112000  0.79014000  1
  C  C209  1  0.72067000  0.78634000  0.14940000  1
  C  C210  1  0.72491000  0.36462000  0.50568000  1
  C  C211  1  0.72702000  0.08644000  0.71137000  1
  C  C212  1  0.73103000  0.67086000  0.86964000  1
  C  C213  1  0.73520000  0.62020000  0.83322000  1
  C  C214  1  0.74200000  0.07660000  0.63130000  1
  C  C215  1  0.75336000  0.37132000  0.55011000  1
  C  C216  1  0.75632000  0.73064000  0.14857000  1
  C  C217  1  0.75899000  0.55278000  0.84049000  1
  C  C218  1  0.77246000  0.80432000  0.65340000  1
  C  C219  1  0.77464000  0.35488000  0.69837000  1
  C  C220  1  0.77960000  0.36500000  0.65378000  1
  C  C221  1  0.78106000  0.33292000  0.35338000  1
  C  C222  1  0.79379000  0.55278000  0.34049000  1
  C  C223  1  0.80015000  0.67170000  0.64959000  1
  C  C224  1  0.80891000  0.15382000  0.71815000  1
  C  C225  1  0.82320000  0.14400000  0.63915000  1
  C  C226  1  0.85603000  0.23626000  0.35230000  1
  C  C227  1  0.85662000  0.26544000  0.84902000  1
  C  C228  1  0.85819000  0.18378000  0.68158000  1
  C  C229  1  0.86000000  0.74000000  0.15042000  1
  C  C230  1  0.86478000  0.80896000  0.65360000  1
  C  C231  1  0.86893000  0.31306000  0.35441000  1
  C  C232  1  0.87155000  0.67170000  0.14959000  1
  C  C233  1  0.88000000  0.74000000  0.65042000  1
  C  C234  1  0.88500000  0.62020000  0.33322000  1
  C  C235  1  0.91456000  0.63112000  0.29014000  1
  C  C236  1  0.93433000  0.21366000  0.35060000  1
  C  C237  1  0.93983000  0.67086000  0.36964000  1
  C  C238  1  0.94418000  0.80896000  0.15360000  1
  C  C239  1  0.94729000  0.25498000  0.68157000  1
  C  C240  1  0.95735000  0.26490000  0.84839000  1
  C  C241  1  0.96053000  0.66686000  0.14948000  1
  C  C242  1  0.96086000  0.65372000  0.64617000  1
  C  C243  1  0.96204000  0.36908000  0.35596000  1
  C  C244  1  0.96814000  0.19568000  0.84660000  1
  C  C245  1  0.97432000  0.73064000  0.64857000  1
  C  C246  1  0.97680000  0.26720000  0.63864000  1
  C  C247  1  0.99809000  0.69338000  0.28247000  1
  S  S248  1  0.10292000  0.80664000  0.40205000  1
  S  S249  1  0.16256000  0.40582000  0.35126000  1
  S  S250  1  0.24326000  0.40582000  0.85126000  1
  S  S251  1  0.29628000  0.19336000  0.09795000  1
  S  S252  1  0.37365000  0.81290000  0.90846000  1
  S  S253  1  0.43925000  0.81290000  0.40846000  1
  S  S254  1  0.56075000  0.18710000  0.59154000  1
  S  S255  1  0.62635000  0.18710000  0.09154000  1
  S  S256  1  0.70372000  0.80664000  0.90205000  1
  S  S257  1  0.75674000  0.59418000  0.14874000  1
  S  S258  1  0.83744000  0.59418000  0.64874000  1
  S  S259  1  0.89708000  0.19336000  0.59795000  1
  O  O260  1  0.05400000  0.85120000  0.42445000  1
  O  O261  1  0.14843000  0.67118000  0.13923000  1
  O  O262  1  0.15461000  0.77782000  0.42975000  1
  O  O263  1  0.17869000  0.43618000  0.30887000  1
  O  O264  1  0.19942000  0.45924000  0.39107000  1
  O  O265  1  0.20280000  0.14880000  0.07555000  1
  O  O266  1  0.20556000  0.59760000  0.64373000  1
  O  O267  1  0.21428000  0.79714000  0.16208000  1
  O  O268  1  0.22181000  0.45442000  0.12039000  1
  O  O269  1  0.23261000  0.45442000  0.62039000  1
  O  O270  1  0.24471000  0.49582000  0.19262000  1
  O  O271  1  0.25111000  0.49582000  0.69262000  1
  O  O272  1  0.25749000  0.43618000  0.80887000  1
  O  O273  1  0.25749000  0.65778000  0.21240000  1
  O  O274  1  0.25982000  0.45924000  0.89107000  1
  O  O275  1  0.27911000  0.81382000  0.90183000  1
  O  O276  1  0.28282000  0.63584000  0.07732000  1
  O  O277  1  0.30159000  0.72094000  0.65009000  1
  O  O278  1  0.32127000  0.76254000  0.08409000  1
  O  O279  1  0.34518000  0.78376000  0.22834000  1
  O  O280  1  0.35302000  0.63584000  0.57732000  1
  O  O281  1  0.35312000  0.93344000  0.12380000  1
  O  O282  1  0.37679000  0.22218000  0.07025000  1
  O  O283  1  0.39204000  0.59760000  0.14373000  1
  O  O284  1  0.39282000  0.95124000  0.19570000  1
  O  O285  1  0.40029000  0.65778000  0.71240000  1
  O  O286  1  0.41714000  0.20286000  0.33792000  1
  O  O287  1  0.41935000  0.72094000  0.15009000  1
  O  O288  1  0.41968000  0.06656000  0.37620000  1
  O  O289  1  0.43214000  0.88648000  0.41905000  1
  O  O290  1  0.43858000  0.78376000  0.72834000  1
  O  O291  1  0.44127000  0.76254000  0.58409000  1
  O  O292  1  0.44158000  0.04876000  0.30430000  1
  O  O293  1  0.45434000  0.88648000  0.91905000  1
  O  O294  1  0.46529000  0.18618000  0.59817000  1
  O  O295  1  0.47725000  0.32882000  0.36077000  1
  O  O296  1  0.52275000  0.67118000  0.63923000  1
  O  O297  1  0.53471000  0.81382000  0.40183000  1
  O  O298  1  0.54566000  0.11352000  0.08095000  1
  O  O299  1  0.55842000  0.95124000  0.69570000  1
  O  O300  1  0.55873000  0.23746000  0.41591000  1
  O  O301  1  0.56142000  0.21624000  0.27166000  1
  O  O302  1  0.56786000  0.11352000  0.58095000  1
  O  O303  1  0.58032000  0.93344000  0.62380000  1
  O  O304  1  0.58065000  0.27906000  0.84991000  1
  O  O305  1  0.58286000  0.79714000  0.66208000  1
  O  O306  1  0.59971000  0.34222000  0.28760000  1
  O  O307  1  0.60718000  0.04876000  0.80430000  1
  O  O308  1  0.60796000  0.40240000  0.85627000  1
  O  O309  1  0.62321000  0.77782000  0.92975000  1
  O  O310  1  0.64688000  0.06656000  0.87620000  1
  O  O311  1  0.64698000  0.36416000  0.42268000  1
  O  O312  1  0.65482000  0.21624000  0.77166000  1
  O  O313  1  0.67873000  0.23746000  0.91591000  1
  O  O314  1  0.69841000  0.27906000  0.34991000  1
  O  O315  1  0.71718000  0.36416000  0.92268000  1
  O  O316  1  0.72089000  0.18618000  0.09817000  1
  O  O317  1  0.74018000  0.54076000  0.10893000  1
  O  O318  1  0.74251000  0.34222000  0.78760000  1
  O  O319  1  0.74251000  0.56382000  0.19113000  1
  O  O320  1  0.74889000  0.50418000  0.30738000  1
  O  O321  1  0.75529000  0.50418000  0.80738000  1
  O  O322  1  0.76739000  0.54558000  0.37961000  1
  O  O323  1  0.77819000  0.54558000  0.87961000  1
  O  O324  1  0.78572000  0.20286000  0.83792000  1
  O  O325  1  0.79444000  0.40240000  0.35627000  1
  O  O326  1  0.79720000  0.85120000  0.92445000  1
  O  O327  1  0.80058000  0.54076000  0.60893000  1
  O  O328  1  0.82131000  0.56382000  0.69113000  1
  O  O329  1  0.84539000  0.22218000  0.57025000  1
  O  O330  1  0.85157000  0.32882000  0.86077000  1
  O  O331  1  0.94600000  0.14880000  0.57555000  1
