# generated using pymatgen
data_VH4C8O5
_symmetry_space_group_name_H-M   'P 1'
_cell_length_a   6.82700000
_cell_length_b   13.96500000
_cell_length_c   16.07400000
_cell_angle_alpha   90.00000000
_cell_angle_beta   90.00000000
_cell_angle_gamma   90.00000000
_symmetry_Int_Tables_number   1
_chemical_formula_structural   VH4C8O5
_chemical_formula_sum   'V4 H16 C32 O20'
_cell_volume   1532.47997007
_cell_formula_units_Z   4
loop_
 _symmetry_equiv_pos_site_id
 _symmetry_equiv_pos_as_xyz
  1  'x, y, z'
loop_
 _atom_site_type_symbol
 _atom_site_label
 _atom_site_symmetry_multiplicity
 _atom_site_fract_x
 _atom_site_fract_y
 _atom_site_fract_z
 _atom_site_occupancy
  V  V0  1  0.06513000  0.73597000  0.00135000  1
  V  V1  1  0.43487000  0.26403000  0.50135000  1
  V  V2  1  0.56513000  0.76403000  0.99865000  1
  V  V3  1  0.93487000  0.23597000  0.49865000  1
  H  H4  1  0.03260000  0.40450000  0.71770000  1
  H  H5  1  0.03380000  0.45780000  0.32240000  1
  H  H6  1  0.05120000  0.51050000  0.82730000  1
  H  H7  1  0.05550000  0.56580000  0.21530000  1
  H  H8  1  0.44450000  0.43420000  0.71530000  1
  H  H9  1  0.44880000  0.48950000  0.32730000  1
  H  H10  1  0.46620000  0.54220000  0.82240000  1
  H  H11  1  0.46740000  0.59550000  0.21770000  1
  H  H12  1  0.53260000  0.09550000  0.28230000  1
  H  H13  1  0.53380000  0.04220000  0.67760000  1
  H  H14  1  0.55120000  0.98950000  0.17270000  1
  H  H15  1  0.55550000  0.93420000  0.78470000  1
  H  H16  1  0.94450000  0.06580000  0.28470000  1
  H  H17  1  0.94880000  0.01050000  0.67270000  1
  H  H18  1  0.96620000  0.95780000  0.17760000  1
  H  H19  1  0.96740000  0.90450000  0.78230000  1
  C  C20  1  0.06670000  0.04890000  0.26380000  1
  C  C21  1  0.06970000  0.99680000  0.69660000  1
  C  C22  1  0.07970000  0.98480000  0.19940000  1
  C  C23  1  0.08090000  0.93300000  0.76200000  1
  C  C24  1  0.22440000  0.11620000  0.60150000  1
  C  C25  1  0.22490000  0.15180000  0.37180000  1
  C  C26  1  0.23640000  0.08920000  0.29840000  1
  C  C27  1  0.23720000  0.04050000  0.66610000  1
  C  C28  1  0.26280000  0.95950000  0.16610000  1
  C  C29  1  0.26360000  0.91080000  0.79840000  1
  C  C30  1  0.27510000  0.84820000  0.87180000  1
  C  C31  1  0.27560000  0.88380000  0.10150000  1
  C  C32  1  0.41910000  0.06700000  0.26200000  1
  C  C33  1  0.42030000  0.01520000  0.69940000  1
  C  C34  1  0.43030000  0.00320000  0.19660000  1
  C  C35  1  0.43330000  0.95110000  0.76380000  1
  C  C36  1  0.56670000  0.45110000  0.73620000  1
  C  C37  1  0.56970000  0.50320000  0.30340000  1
  C  C38  1  0.57970000  0.51520000  0.80060000  1
  C  C39  1  0.58090000  0.56700000  0.23800000  1
  C  C40  1  0.72440000  0.38380000  0.39850000  1
  C  C41  1  0.72490000  0.34820000  0.62820000  1
  C  C42  1  0.73640000  0.41080000  0.70160000  1
  C  C43  1  0.73720000  0.45950000  0.33390000  1
  C  C44  1  0.76280000  0.54050000  0.83390000  1
  C  C45  1  0.76360000  0.58920000  0.20160000  1
  C  C46  1  0.77510000  0.65180000  0.12820000  1
  C  C47  1  0.77560000  0.61620000  0.89850000  1
  C  C48  1  0.91910000  0.43300000  0.73800000  1
  C  C49  1  0.92030000  0.48480000  0.30060000  1
  C  C50  1  0.93030000  0.49680000  0.80340000  1
  C  C51  1  0.93330000  0.54890000  0.23620000  1
  O  O52  1  0.05360000  0.13910000  0.57400000  1
  O  O53  1  0.05540000  0.16920000  0.40090000  1
  O  O54  1  0.11310000  0.84630000  0.07490000  1
  O  O55  1  0.11660000  0.81580000  0.90180000  1
  O  O56  1  0.21770000  0.30730000  0.50900000  1
  O  O57  1  0.28230000  0.69270000  0.00900000  1
  O  O58  1  0.38340000  0.18420000  0.40180000  1
  O  O59  1  0.38690000  0.15370000  0.57490000  1
  O  O60  1  0.44460000  0.83080000  0.90090000  1
  O  O61  1  0.44640000  0.86090000  0.07400000  1
  O  O62  1  0.55360000  0.36090000  0.42600000  1
  O  O63  1  0.55540000  0.33080000  0.59910000  1
  O  O64  1  0.61310000  0.65370000  0.92510000  1
  O  O65  1  0.61660000  0.68420000  0.09820000  1
  O  O66  1  0.71770000  0.19270000  0.49100000  1
  O  O67  1  0.78230000  0.80730000  0.99100000  1
  O  O68  1  0.88340000  0.31580000  0.59820000  1
  O  O69  1  0.88690000  0.34630000  0.42510000  1
  O  O70  1  0.94460000  0.66920000  0.09910000  1
  O  O71  1  0.94640000  0.63910000  0.92600000  1
