# generated using pymatgen
data_Zn4H12C24O13
_symmetry_space_group_name_H-M   'P 1'
_cell_length_a   18.31490000
_cell_length_b   18.31490000
_cell_length_c   18.31490000
_cell_angle_alpha   60.32950000
_cell_angle_beta   60.32950000
_cell_angle_gamma   60.32950000
_symmetry_Int_Tables_number   1
_chemical_formula_structural   Zn4H12C24O13
_chemical_formula_sum   'Zn8 H24 C48 O26'
_cell_volume   4376.47322284
_cell_formula_units_Z   2
loop_
 _symmetry_equiv_pos_site_id
 _symmetry_equiv_pos_as_xyz
  1  'x, y, z'
loop_
 _atom_site_type_symbol
 _atom_site_label
 _atom_site_symmetry_multiplicity
 _atom_site_fract_x
 _atom_site_fract_y
 _atom_site_fract_z
 _atom_site_occupancy
  Zn  Zn0  1  0.79391000  0.79391000  0.79391000  1
  Zn  Zn1  1  0.79323000  0.79323000  0.62048000  1
  Zn  Zn2  1  0.62048000  0.79323000  0.79323000  1
  Zn  Zn3  1  0.79323000  0.62048000  0.79323000  1
  Zn  Zn4  1  0.20677000  0.37952000  0.20677000  1
  Zn  Zn5  1  0.37952000  0.20677000  0.20677000  1
  Zn  Zn6  1  0.20677000  0.20677000  0.37952000  1
  Zn  Zn7  1  0.20609000  0.20609000  0.20609000  1
  H  H8  1  0.95830000  0.95830000  0.65550000  1
  H  H9  1  0.65550000  0.95830000  0.95830000  1
  H  H10  1  0.65650000  0.95740000  0.43470000  1
  H  H11  1  0.43470000  0.95740000  0.65650000  1
  H  H12  1  0.95120000  0.95120000  0.44140000  1
  H  H13  1  0.44140000  0.95120000  0.95120000  1
  H  H14  1  0.95740000  0.65650000  0.43470000  1
  H  H15  1  0.43470000  0.65650000  0.95740000  1
  H  H16  1  0.95830000  0.65550000  0.95830000  1
  H  H17  1  0.34350000  0.56530000  0.04260000  1
  H  H18  1  0.04260000  0.56530000  0.34350000  1
  H  H19  1  0.04880000  0.55860000  0.04880000  1
  H  H20  1  0.95120000  0.44140000  0.95120000  1
  H  H21  1  0.95740000  0.43470000  0.65650000  1
  H  H22  1  0.65650000  0.43470000  0.95740000  1
  H  H23  1  0.04170000  0.34450000  0.04170000  1
  H  H24  1  0.56530000  0.34350000  0.04260000  1
  H  H25  1  0.04260000  0.34350000  0.56530000  1
  H  H26  1  0.55860000  0.04880000  0.04880000  1
  H  H27  1  0.04880000  0.04880000  0.55860000  1
  H  H28  1  0.56530000  0.04260000  0.34350000  1
  H  H29  1  0.34350000  0.04260000  0.56530000  1
  H  H30  1  0.34450000  0.04170000  0.04170000  1
  H  H31  1  0.04170000  0.04170000  0.34450000  1
  C  C32  1  0.97480000  0.97480000  0.59400000  1
  C  C33  1  0.59400000  0.97480000  0.97480000  1
  C  C34  1  0.59490000  0.97230000  0.46130000  1
  C  C35  1  0.46130000  0.97230000  0.59490000  1
  C  C36  1  0.97060000  0.97060000  0.46470000  1
  C  C37  1  0.46470000  0.97060000  0.97060000  1
  C  C38  1  0.94610000  0.94610000  0.55600000  1
  C  C39  1  0.55600000  0.94610000  0.94610000  1
  C  C40  1  0.55755000  0.94010000  0.55755000  1
  C  C41  1  0.88870000  0.88870000  0.60990000  1
  C  C42  1  0.60990000  0.88870000  0.88870000  1
  C  C43  1  0.61060000  0.88830000  0.61060000  1
  C  C44  1  0.88830000  0.61060000  0.61060000  1
  C  C45  1  0.61060000  0.61060000  0.88830000  1
  C  C46  1  0.88870000  0.60990000  0.88870000  1
  C  C47  1  0.97230000  0.59490000  0.46130000  1
  C  C48  1  0.46130000  0.59490000  0.97230000  1
  C  C49  1  0.97480000  0.59400000  0.97480000  1
  C  C50  1  0.94010000  0.55755000  0.55755000  1
  C  C51  1  0.55755000  0.55755000  0.94010000  1
  C  C52  1  0.94610000  0.55600000  0.94610000  1
  C  C53  1  0.40510000  0.53870000  0.02770000  1
  C  C54  1  0.02770000  0.53870000  0.40510000  1
  C  C55  1  0.02940000  0.53530000  0.02940000  1
  C  C56  1  0.97060000  0.46470000  0.97060000  1
  C  C57  1  0.97230000  0.46130000  0.59490000  1
  C  C58  1  0.59490000  0.46130000  0.97230000  1
  C  C59  1  0.05390000  0.44400000  0.05390000  1
  C  C60  1  0.44245000  0.44245000  0.05990000  1
  C  C61  1  0.05990000  0.44245000  0.44245000  1
  C  C62  1  0.02520000  0.40600000  0.02520000  1
  C  C63  1  0.53870000  0.40510000  0.02770000  1
  C  C64  1  0.02770000  0.40510000  0.53870000  1
  C  C65  1  0.11130000  0.39010000  0.11130000  1
  C  C66  1  0.38940000  0.38940000  0.11170000  1
  C  C67  1  0.11170000  0.38940000  0.38940000  1
  C  C68  1  0.38940000  0.11170000  0.38940000  1
  C  C69  1  0.39010000  0.11130000  0.11130000  1
  C  C70  1  0.11130000  0.11130000  0.39010000  1
  C  C71  1  0.44245000  0.05990000  0.44245000  1
  C  C72  1  0.44400000  0.05390000  0.05390000  1
  C  C73  1  0.05390000  0.05390000  0.44400000  1
  C  C74  1  0.53530000  0.02940000  0.02940000  1
  C  C75  1  0.02940000  0.02940000  0.53530000  1
  C  C76  1  0.53870000  0.02770000  0.40510000  1
  C  C77  1  0.40510000  0.02770000  0.53870000  1
  C  C78  1  0.40600000  0.02520000  0.02520000  1
  C  C79  1  0.02520000  0.02520000  0.40600000  1
  O  O80  1  0.86620000  0.86620000  0.57180000  1
  O  O81  1  0.57180000  0.86620000  0.86620000  1
  O  O82  1  0.86590000  0.86590000  0.69780000  1
  O  O83  1  0.69780000  0.86590000  0.86590000  1
  O  O84  1  0.69881000  0.86471000  0.57241000  1
  O  O85  1  0.57241000  0.86471000  0.69881000  1
  O  O86  1  0.74847000  0.74847000  0.74847000  1
  O  O87  1  0.86471000  0.69881000  0.57241000  1
  O  O88  1  0.57241000  0.69881000  0.86471000  1
  O  O89  1  0.86590000  0.69780000  0.86590000  1
  O  O90  1  0.86471000  0.57241000  0.69881000  1
  O  O91  1  0.69881000  0.57241000  0.86471000  1
  O  O92  1  0.86620000  0.57180000  0.86620000  1
  O  O93  1  0.13380000  0.42820000  0.13380000  1
  O  O94  1  0.30119000  0.42759000  0.13529000  1
  O  O95  1  0.13529000  0.42759000  0.30119000  1
  O  O96  1  0.13410000  0.30220000  0.13410000  1
  O  O97  1  0.42759000  0.30119000  0.13529000  1
  O  O98  1  0.13529000  0.30119000  0.42759000  1
  O  O99  1  0.25153000  0.25153000  0.25153000  1
  O  O100  1  0.42759000  0.13529000  0.30119000  1
  O  O101  1  0.30119000  0.13529000  0.42759000  1
  O  O102  1  0.30220000  0.13410000  0.13410000  1
  O  O103  1  0.13410000  0.13410000  0.30220000  1
  O  O104  1  0.42820000  0.13380000  0.13380000  1
  O  O105  1  0.13380000  0.13380000  0.42820000  1
