# generated using pymatgen
data_Er2CuH12C32(NO6)4
_symmetry_space_group_name_H-M   'P 1'
_cell_length_a   10.39900000
_cell_length_b   10.60600000
_cell_length_c   11.30000000
_cell_angle_alpha   83.50000000
_cell_angle_beta   75.15000000
_cell_angle_gamma   69.62000000
_symmetry_Int_Tables_number   1
_chemical_formula_structural   Er2CuH12C32(NO6)4
_chemical_formula_sum   'Er2 Cu1 H12 C32 N4 O24'
_cell_volume   1128.86839594
_cell_formula_units_Z   1
loop_
 _symmetry_equiv_pos_site_id
 _symmetry_equiv_pos_as_xyz
  1  'x, y, z'
loop_
 _atom_site_type_symbol
 _atom_site_label
 _atom_site_symmetry_multiplicity
 _atom_site_fract_x
 _atom_site_fract_y
 _atom_site_fract_z
 _atom_site_occupancy
  Er  Er0  1  0.41359000  0.40370000  0.36723000  1
  Er  Er1  1  0.58641000  0.59630000  0.63277000  1
  Cu  Cu2  1  0.00000000  0.50000000  0.50000000  1
  H  H3  1  0.00440000  0.83670000  0.64720000  1
  H  H4  1  0.08380000  0.67250000  0.80000000  1
  H  H5  1  0.10680000  0.33900000  0.84360000  1
  H  H6  1  0.17550000  0.76130000  0.33780000  1
  H  H7  1  0.31750000  0.51350000  0.04920000  1
  H  H8  1  0.35670000  0.98150000  0.46220000  1
  H  H9  1  0.64330000  0.01850000  0.53780000  1
  H  H10  1  0.68250000  0.48650000  0.95080000  1
  H  H11  1  0.82450000  0.23870000  0.66220000  1
  H  H12  1  0.89320000  0.66100000  0.15640000  1
  H  H13  1  0.91620000  0.32750000  0.20000000  1
  H  H14  1  0.99560000  0.16330000  0.35280000  1
  C  C15  1  0.02440000  0.35750000  0.90510000  1
  C  C16  1  0.02900000  0.32490000  0.02470000  1
  C  C17  1  0.06920000  0.08610000  0.36450000  1
  C  C18  1  0.07280000  0.96180000  0.33610000  1
  C  C19  1  0.09070000  0.64960000  0.88050000  1
  C  C20  1  0.10730000  0.58050000  0.12270000  1
  C  C21  1  0.11390000  0.54370000  0.25370000  1
  C  C22  1  0.17490000  0.23060000  0.43580000  1
  C  C23  1  0.17650000  0.84390000  0.35700000  1
  C  C24  1  0.17700000  0.09440000  0.41070000  1
  C  C25  1  0.22230000  0.58850000  0.90900000  1
  C  C26  1  0.23010000  0.55420000  0.03010000  1
  C  C27  1  0.28180000  0.85100000  0.40710000  1
  C  C28  1  0.28380000  0.97650000  0.43160000  1
  C  C29  1  0.35380000  0.56690000  0.80940000  1
  C  C30  1  0.39130000  0.72560000  0.43870000  1
  C  C31  1  0.60870000  0.27440000  0.56130000  1
  C  C32  1  0.64620000  0.43310000  0.19060000  1
  C  C33  1  0.71620000  0.02350000  0.56840000  1
  C  C34  1  0.71820000  0.14900000  0.59290000  1
  C  C35  1  0.76990000  0.44580000  0.96990000  1
  C  C36  1  0.77770000  0.41150000  0.09100000  1
  C  C37  1  0.82300000  0.90560000  0.58930000  1
  C  C38  1  0.82350000  0.15610000  0.64300000  1
  C  C39  1  0.82510000  0.76940000  0.56420000  1
  C  C40  1  0.88610000  0.45630000  0.74630000  1
  C  C41  1  0.89270000  0.41950000  0.87730000  1
  C  C42  1  0.90930000  0.35040000  0.11950000  1
  C  C43  1  0.92720000  0.03820000  0.66390000  1
  C  C44  1  0.93080000  0.91390000  0.63550000  1
  C  C45  1  0.97100000  0.67510000  0.97530000  1
  C  C46  1  0.97560000  0.64250000  0.09490000  1
  N  N47  1  0.04230000  0.04310000  0.71430000  1
  N  N48  1  0.16880000  0.26170000  0.05280000  1
  N  N49  1  0.83120000  0.73830000  0.94720000  1
  N  N50  1  0.95770000  0.95690000  0.28570000  1
  O  O51  1  0.00110000  0.44270000  0.67060000  1
  O  O52  1  0.05040000  0.15140000  0.72650000  1
  O  O53  1  0.05400000  0.31810000  0.45450000  1
  O  O54  1  0.12930000  0.93730000  0.73710000  1
  O  O55  1  0.17510000  0.24620000  0.16000000  1
  O  O56  1  0.23110000  0.50230000  0.28000000  1
  O  O57  1  0.27150000  0.23310000  0.96820000  1
  O  O58  1  0.28670000  0.24830000  0.43680000  1
  O  O59  1  0.34290000  0.60600000  0.70130000  1
  O  O60  1  0.39550000  0.61550000  0.40590000  1
  O  O61  1  0.47170000  0.73960000  0.49910000  1
  O  O62  1  0.47230000  0.51680000  0.83540000  1
  O  O63  1  0.52770000  0.48320000  0.16460000  1
  O  O64  1  0.52830000  0.26040000  0.50090000  1
  O  O65  1  0.60450000  0.38450000  0.59410000  1
  O  O66  1  0.65710000  0.39400000  0.29870000  1
  O  O67  1  0.71330000  0.75170000  0.56320000  1
  O  O68  1  0.72850000  0.76690000  0.03180000  1
  O  O69  1  0.76890000  0.49770000  0.72000000  1
  O  O70  1  0.82490000  0.75380000  0.84000000  1
  O  O71  1  0.87070000  0.06270000  0.26290000  1
  O  O72  1  0.94600000  0.68190000  0.54550000  1
  O  O73  1  0.94960000  0.84860000  0.27350000  1
  O  O74  1  0.99890000  0.55730000  0.32940000  1
