# generated using pymatgen
data_YH6(C2O)6
_symmetry_space_group_name_H-M   'P 1'
_cell_length_a   8.61300000
_cell_length_b   10.12200000
_cell_length_c   11.09500000
_cell_angle_alpha   65.20500000
_cell_angle_beta   71.60900000
_cell_angle_gamma   78.61700000
_symmetry_Int_Tables_number   1
_chemical_formula_structural   YH6(C2O)6
_chemical_formula_sum   'Y2 H12 C24 O12'
_cell_volume   830.87414607
_cell_formula_units_Z   2
loop_
 _symmetry_equiv_pos_site_id
 _symmetry_equiv_pos_as_xyz
  1  'x, y, z'
loop_
 _atom_site_type_symbol
 _atom_site_label
 _atom_site_symmetry_multiplicity
 _atom_site_fract_x
 _atom_site_fract_y
 _atom_site_fract_z
 _atom_site_occupancy
  Y  Y0  1  0.36688000  0.06328000  0.33869000  1
  Y  Y1  1  0.63312000  0.93672000  0.66131000  1
  H  H2  1  0.04160000  0.84890000  0.88420000  1
  H  H3  1  0.13420000  0.62920000  0.77080000  1
  H  H4  1  0.21900000  0.11570000  0.98680000  1
  H  H5  1  0.27580000  0.44800000  0.91610000  1
  H  H6  1  0.44620000  0.27730000  0.68600000  1
  H  H7  1  0.49480000  0.47520000  0.71840000  1
  H  H8  1  0.50520000  0.52480000  0.28160000  1
  H  H9  1  0.55380000  0.72270000  0.31400000  1
  H  H10  1  0.72420000  0.55200000  0.08390000  1
  H  H11  1  0.78100000  0.88430000  0.01320000  1
  H  H12  1  0.86580000  0.37080000  0.22920000  1
  H  H13  1  0.95840000  0.15110000  0.11580000  1
  C  C14  1  0.02330000  0.91010000  0.93140000  1
  C  C15  1  0.08040000  0.57800000  0.86190000  1
  C  C16  1  0.08340000  0.39130000  0.08840000  1
  C  C17  1  0.13250000  0.06980000  0.99160000  1
  C  C18  1  0.15660000  0.97920000  0.92130000  1
  C  C19  1  0.16440000  0.46990000  0.94900000  1
  C  C20  1  0.17690000  0.27050000  0.17980000  1
  C  C21  1  0.32590000  0.95420000  0.83900000  1
  C  C22  1  0.44310000  0.25500000  0.45630000  1
  C  C23  1  0.46780000  0.36590000  0.61200000  1
  C  C24  1  0.47160000  0.38120000  0.48040000  1
  C  C25  1  0.49660000  0.48440000  0.63100000  1
  C  C26  1  0.50340000  0.51560000  0.36900000  1
  C  C27  1  0.52840000  0.61880000  0.51960000  1
  C  C28  1  0.53220000  0.63410000  0.38800000  1
  C  C29  1  0.55690000  0.74500000  0.54370000  1
  C  C30  1  0.67410000  0.04580000  0.16100000  1
  C  C31  1  0.82310000  0.72950000  0.82020000  1
  C  C32  1  0.83560000  0.53010000  0.05100000  1
  C  C33  1  0.84340000  0.02080000  0.07870000  1
  C  C34  1  0.86750000  0.93020000  0.00840000  1
  C  C35  1  0.91660000  0.60870000  0.91160000  1
  C  C36  1  0.91960000  0.42200000  0.13810000  1
  C  C37  1  0.97670000  0.08990000  0.06860000  1
  O  O38  1  0.10500000  0.19680000  0.30580000  1
  O  O39  1  0.32630000  0.24490000  0.12680000  1
  O  O40  1  0.34460000  0.87750000  0.77030000  1
  O  O41  1  0.37770000  0.27970000  0.36140000  1
  O  O42  1  0.44740000  0.01150000  0.83560000  1
  O  O43  1  0.48160000  0.12780000  0.53160000  1
  O  O44  1  0.51840000  0.87220000  0.46840000  1
  O  O45  1  0.55260000  0.98850000  0.16440000  1
  O  O46  1  0.62230000  0.72030000  0.63860000  1
  O  O47  1  0.65540000  0.12250000  0.22970000  1
  O  O48  1  0.67370000  0.75510000  0.87320000  1
  O  O49  1  0.89500000  0.80320000  0.69420000  1
