# generated using pymatgen
data_ZnH7C9NO5
_symmetry_space_group_name_H-M   'P 1'
_cell_length_a   9.27320000
_cell_length_b   14.32180000
_cell_length_c   16.97920000
_cell_angle_alpha   98.65900000
_cell_angle_beta   90.00000000
_cell_angle_gamma   108.88900000
_symmetry_Int_Tables_number   1
_chemical_formula_structural   ZnH7C9NO5
_chemical_formula_sum   'Zn8 H56 C72 N8 O40'
_cell_volume   2106.36846110
_cell_formula_units_Z   8
loop_
 _symmetry_equiv_pos_site_id
 _symmetry_equiv_pos_as_xyz
  1  'x, y, z'
loop_
 _atom_site_type_symbol
 _atom_site_label
 _atom_site_symmetry_multiplicity
 _atom_site_fract_x
 _atom_site_fract_y
 _atom_site_fract_z
 _atom_site_occupancy
  Zn  Zn0  1  0.02965000  0.65380000  0.65767000  1
  Zn  Zn1  1  0.22132000  0.65526000  0.95051000  1
  Zn  Zn2  1  0.37585000  0.34620000  0.84233000  1
  Zn  Zn3  1  0.43394000  0.65526000  0.45051000  1
  Zn  Zn4  1  0.56606000  0.34474000  0.54949000  1
  Zn  Zn5  1  0.62415000  0.65380000  0.15767000  1
  Zn  Zn6  1  0.77868000  0.34474000  0.04949000  1
  Zn  Zn7  1  0.97035000  0.34620000  0.34233000  1
  H  H8  1  0.03830000  0.69900000  0.36830000  1
  H  H9  1  0.03910000  0.84140000  0.75880000  1
  H  H10  1  0.05470000  0.56200000  0.25650000  1
  H  H11  1  0.06700000  0.31180000  0.39720000  1
  H  H12  1  0.10390000  0.40620000  0.55290000  1
  H  H13  1  0.10730000  0.25580000  0.86770000  1
  H  H14  1  0.14850000  0.25580000  0.36770000  1
  H  H15  1  0.17130000  0.83220000  0.06000000  1
  H  H16  1  0.18460000  0.97500000  0.84820000  1
  H  H17  1  0.19770000  0.15860000  0.74120000  1
  H  H18  1  0.20700000  0.52500000  0.17460000  1
  H  H19  1  0.20960000  0.02500000  0.65180000  1
  H  H20  1  0.24480000  0.31180000  0.89720000  1
  H  H21  1  0.24720000  0.93640000  0.54400000  1
  H  H22  1  0.26180000  0.79620000  0.46330000  1
  H  H23  1  0.30230000  0.40620000  0.05290000  1
  H  H24  1  0.31080000  0.06360000  0.95600000  1
  H  H25  1  0.31610000  0.97220000  0.14420000  1
  H  H26  1  0.31800000  0.52500000  0.67460000  1
  H  H27  1  0.33620000  0.87000000  0.31180000  1
  H  H28  1  0.33910000  0.16780000  0.44000000  1
  H  H29  1  0.33930000  0.30100000  0.13170000  1
  H  H30  1  0.34390000  0.02780000  0.35580000  1
  H  H31  1  0.36240000  0.73720000  0.22690000  1
  H  H32  1  0.37480000  0.73720000  0.72690000  1
  H  H33  1  0.46560000  0.20380000  0.03670000  1
  H  H34  1  0.46620000  0.13000000  0.18820000  1
  H  H35  1  0.49270000  0.43800000  0.24350000  1
  H  H36  1  0.50730000  0.56200000  0.75650000  1
  H  H37  1  0.53380000  0.87000000  0.81180000  1
  H  H38  1  0.53440000  0.79620000  0.96330000  1
  H  H39  1  0.62520000  0.26280000  0.27310000  1
  H  H40  1  0.63760000  0.26280000  0.77310000  1
  H  H41  1  0.65610000  0.97220000  0.64420000  1
  H  H42  1  0.66070000  0.69900000  0.86830000  1
  H  H43  1  0.66090000  0.83220000  0.56000000  1
  H  H44  1  0.66380000  0.13000000  0.68820000  1
  H  H45  1  0.68200000  0.47500000  0.32540000  1
  H  H46  1  0.68390000  0.02780000  0.85580000  1
  H  H47  1  0.68920000  0.93640000  0.04400000  1
  H  H48  1  0.69770000  0.59380000  0.94710000  1
  H  H49  1  0.73820000  0.20380000  0.53670000  1
  H  H50  1  0.75280000  0.06360000  0.45600000  1
  H  H51  1  0.75520000  0.68820000  0.10280000  1
  H  H52  1  0.79040000  0.97500000  0.34820000  1
  H  H53  1  0.79300000  0.47500000  0.82540000  1
  H  H54  1  0.80230000  0.84140000  0.25880000  1
  H  H55  1  0.81540000  0.02500000  0.15180000  1
  H  H56  1  0.82870000  0.16780000  0.94000000  1
  H  H57  1  0.85150000  0.74420000  0.63230000  1
  H  H58  1  0.89270000  0.74420000  0.13230000  1
  H  H59  1  0.89610000  0.59380000  0.44710000  1
  H  H60  1  0.93300000  0.68820000  0.60280000  1
  H  H61  1  0.94530000  0.43800000  0.74350000  1
  H  H62  1  0.96090000  0.15860000  0.24120000  1
  H  H63  1  0.96170000  0.30100000  0.63170000  1
  C  C64  1  0.01800000  0.55580000  0.31025000  1
  C  C65  1  0.04318000  0.35836000  0.66026000  1
  C  C66  1  0.07837000  0.35314000  0.07698000  1
  C  C67  1  0.10808000  0.32896000  0.73235000  1
  C  C68  1  0.13981000  0.84682000  0.77040000  1
  C  C69  1  0.14879000  0.55538000  0.36618000  1
  C  C70  1  0.16135000  0.40690000  0.60160000  1
  C  C71  1  0.22088000  0.32896000  0.23235000  1
  C  C72  1  0.22597000  0.51594000  0.64190000  1
  C  C73  1  0.22757000  0.92854000  0.82360000  1
  C  C74  1  0.24555000  0.40690000  0.10160000  1
  C  C75  1  0.26484000  0.58788000  0.58177000  1
  C  C76  1  0.27477000  0.35314000  0.57698000  1
  C  C77  1  0.27689000  0.85298000  0.05722000  1
  C  C78  1  0.28997000  0.51594000  0.14190000  1
  C  C79  1  0.29299000  0.15318000  0.72960000  1
  C  C80  1  0.29903000  0.07146000  0.67640000  1
  C  C81  1  0.31518000  0.35836000  0.16026000  1
  C  C82  1  0.32304000  0.58788000  0.08177000  1
  C  C83  1  0.33216000  0.91632000  0.54893000  1
  C  C84  1  0.33625000  0.78610000  0.75112000  1
  C  C85  1  0.34186000  0.83192000  0.50029000  1
  C  C86  1  0.36333000  0.93746000  0.10800000  1
  C  C87  1  0.37982000  0.94084000  0.84017000  1
  C  C88  1  0.40659000  0.55538000  0.86618000  1
  C  C89  1  0.41584000  0.08368000  0.95107000  1
  C  C90  1  0.42391000  0.14702000  0.44278000  1
  C  C91  1  0.42587000  0.06254000  0.39200000  1
  C  C92  1  0.43309000  0.86618000  0.30246000  1
  C  C93  1  0.43309000  0.86618000  0.80246000  1
  C  C94  1  0.43898000  0.05916000  0.65983000  1
  C  C95  1  0.44855000  0.97030000  0.60465000  1
  C  C96  1  0.44985000  0.78610000  0.25112000  1
  C  C97  1  0.46220000  0.44420000  0.18975000  1
  C  C98  1  0.47825000  0.02970000  0.89535000  1
  C  C99  1  0.49006000  0.83192000  0.00029000  1
  C  C100  1  0.50994000  0.16808000  0.99971000  1
  C  C101  1  0.52175000  0.97030000  0.10465000  1
  C  C102  1  0.53780000  0.55580000  0.81025000  1
  C  C103  1  0.55015000  0.21390000  0.74888000  1
  C  C104  1  0.55145000  0.02970000  0.39535000  1
  C  C105  1  0.56102000  0.94084000  0.34017000  1
  C  C106  1  0.56691000  0.13382000  0.19754000  1
  C  C107  1  0.56691000  0.13382000  0.69754000  1
  C  C108  1  0.57413000  0.93746000  0.60800000  1
  C  C109  1  0.57609000  0.85298000  0.55722000  1
  C  C110  1  0.58416000  0.91632000  0.04893000  1
  C  C111  1  0.59341000  0.44462000  0.13382000  1
  C  C112  1  0.62018000  0.05916000  0.15983000  1
  C  C113  1  0.63667000  0.06254000  0.89200000  1
  C  C114  1  0.65814000  0.16808000  0.49971000  1
  C  C115  1  0.66375000  0.21390000  0.24888000  1
  C  C116  1  0.66784000  0.08368000  0.45107000  1
  C  C117  1  0.67696000  0.41212000  0.91823000  1
  C  C118  1  0.68482000  0.64164000  0.83974000  1
  C  C119  1  0.70097000  0.92854000  0.32360000  1
  C  C120  1  0.70701000  0.84682000  0.27040000  1
  C  C121  1  0.71003000  0.48406000  0.85810000  1
  C  C122  1  0.72311000  0.14702000  0.94278000  1
  C  C123  1  0.72523000  0.64686000  0.42302000  1
  C  C124  1  0.73516000  0.41212000  0.41823000  1
  C  C125  1  0.75445000  0.59310000  0.89840000  1
  C  C126  1  0.77243000  0.07146000  0.17640000  1
  C  C127  1  0.77403000  0.48406000  0.35810000  1
  C  C128  1  0.77912000  0.67104000  0.76765000  1
  C  C129  1  0.83865000  0.59310000  0.39840000  1
  C  C130  1  0.85121000  0.44462000  0.63382000  1
  C  C131  1  0.86019000  0.15318000  0.22960000  1
  C  C132  1  0.89192000  0.67104000  0.26765000  1
  C  C133  1  0.92163000  0.64686000  0.92302000  1
  C  C134  1  0.95682000  0.64164000  0.33974000  1
  C  C135  1  0.98200000  0.44420000  0.68975000  1
  N  N136  1  0.19189000  0.77538000  0.73462000  1
  N  N137  1  0.33851000  0.79962000  0.00413000  1
  N  N138  1  0.41651000  0.22462000  0.76538000  1
  N  N139  1  0.46111000  0.79962000  0.50413000  1
  N  N140  1  0.53889000  0.20038000  0.49587000  1
  N  N141  1  0.58349000  0.77538000  0.23462000  1
  N  N142  1  0.66149000  0.20038000  0.99587000  1
  N  N143  1  0.80811000  0.22462000  0.26538000  1
  O  O144  1  0.01293000  0.27266000  0.77142000  1
  O  O145  1  0.01839000  0.60402000  0.90084000  1
  O  O146  1  0.04668000  0.26956000  0.03380000  1
  O  O147  1  0.06937000  0.25474000  0.38958000  1
  O  O148  1  0.10970000  0.53442000  0.69311000  1
  O  O149  1  0.11490000  0.36360000  0.24745000  1
  O  O150  1  0.13468000  0.48136000  0.39870000  1
  O  O151  1  0.18537000  0.25474000  0.88958000  1
  O  O152  1  0.18867000  0.64434000  0.57509000  1
  O  O153  1  0.20686000  0.58412000  0.04166000  1
  O  O154  1  0.22288000  0.26956000  0.53380000  1
  O  O155  1  0.24870000  0.36360000  0.74745000  1
  O  O156  1  0.25973000  0.27266000  0.27142000  1
  O  O157  1  0.26224000  0.63486000  0.37429000  1
  O  O158  1  0.34668000  0.48136000  0.89870000  1
  O  O159  1  0.37262000  0.63486000  0.87429000  1
  O  O160  1  0.37726000  0.58412000  0.54166000  1
  O  O161  1  0.41437000  0.39598000  0.59916000  1
  O  O162  1  0.42472000  0.53442000  0.19311000  1
  O  O163  1  0.45567000  0.64434000  0.07509000  1
  O  O164  1  0.54433000  0.35566000  0.92491000  1
  O  O165  1  0.57528000  0.46558000  0.80689000  1
  O  O166  1  0.58563000  0.60402000  0.40084000  1
  O  O167  1  0.62274000  0.41588000  0.45834000  1
  O  O168  1  0.62738000  0.36514000  0.12571000  1
  O  O169  1  0.65332000  0.51864000  0.10130000  1
  O  O170  1  0.73776000  0.36514000  0.62571000  1
  O  O171  1  0.74027000  0.72734000  0.72858000  1
  O  O172  1  0.75130000  0.63640000  0.25255000  1
  O  O173  1  0.77712000  0.73044000  0.46620000  1
  O  O174  1  0.79314000  0.41588000  0.95834000  1
  O  O175  1  0.81133000  0.35566000  0.42491000  1
  O  O176  1  0.81463000  0.74526000  0.11042000  1
  O  O177  1  0.86532000  0.51864000  0.60130000  1
  O  O178  1  0.88510000  0.63640000  0.75255000  1
  O  O179  1  0.89030000  0.46558000  0.30689000  1
  O  O180  1  0.93063000  0.74526000  0.61042000  1
  O  O181  1  0.95332000  0.73044000  0.96620000  1
  O  O182  1  0.98161000  0.39598000  0.09916000  1
  O  O183  1  0.98707000  0.72734000  0.22858000  1
