# generated using pymatgen
data_GdH12C12(NO3)3
_symmetry_space_group_name_H-M   'P 1'
_cell_length_a   7.96260000
_cell_length_b   12.13310000
_cell_length_c   13.31820000
_cell_angle_alpha   111.95100000
_cell_angle_beta   104.93800000
_cell_angle_gamma   91.57600000
_symmetry_Int_Tables_number   1
_chemical_formula_structural   GdH12C12(NO3)3
_chemical_formula_sum   'Gd2 H24 C24 N6 O18'
_cell_volume   1142.00767426
_cell_formula_units_Z   2
loop_
 _symmetry_equiv_pos_site_id
 _symmetry_equiv_pos_as_xyz
  1  'x, y, z'
loop_
 _atom_site_type_symbol
 _atom_site_label
 _atom_site_symmetry_multiplicity
 _atom_site_fract_x
 _atom_site_fract_y
 _atom_site_fract_z
 _atom_site_occupancy
  Gd  Gd0  1  0.25130000  0.01872000  0.98942000  1
  Gd  Gd1  1  0.74870000  0.98128000  0.01058000  1
  H  H2  1  0.06790000  0.27520000  0.40130000  1
  H  H3  1  0.07650000  0.15290000  0.41570000  1
  H  H4  1  0.25090000  0.61720000  0.71450000  1
  H  H5  1  0.25600000  0.22790000  0.29040000  1
  H  H6  1  0.29150000  0.11230000  0.31480000  1
  H  H7  1  0.30990000  0.77400000  0.22360000  1
  H  H8  1  0.34760000  0.59150000  0.82010000  1
  H  H9  1  0.35270000  0.12020000  0.75140000  1
  H  H10  1  0.38610000  0.39860000  0.22970000  1
  H  H11  1  0.41370000  0.89050000  0.32650000  1
  H  H12  1  0.44820000  0.24080000  0.85180000  1
  H  H13  1  0.49670000  0.38920000  0.34160000  1
  H  H14  1  0.50330000  0.61080000  0.65840000  1
  H  H15  1  0.55180000  0.75920000  0.14820000  1
  H  H16  1  0.58630000  0.10950000  0.67350000  1
  H  H17  1  0.61390000  0.60140000  0.77030000  1
  H  H18  1  0.64730000  0.87980000  0.24860000  1
  H  H19  1  0.65240000  0.40850000  0.17990000  1
  H  H20  1  0.69010000  0.22600000  0.77640000  1
  H  H21  1  0.70850000  0.88770000  0.68520000  1
  H  H22  1  0.74400000  0.77210000  0.70960000  1
  H  H23  1  0.74910000  0.38280000  0.28550000  1
  H  H24  1  0.92350000  0.84710000  0.58430000  1
  H  H25  1  0.93210000  0.72480000  0.59870000  1
  C  C26  1  0.05080000  0.09220000  0.20350000  1
  C  C27  1  0.14440000  0.21620000  0.40920000  1
  C  C28  1  0.20340000  0.16370000  0.30400000  1
  C  C29  1  0.33620000  0.39680000  0.55520000  1
  C  C30  1  0.36210000  0.63230000  0.77210000  1
  C  C31  1  0.36400000  0.20180000  0.56700000  1
  C  C32  1  0.40490000  0.76510000  0.84260000  1
  C  C33  1  0.42620000  0.81420000  0.27150000  1
  C  C34  1  0.44420000  0.90530000  0.13310000  1
  C  C35  1  0.46670000  0.16420000  0.80010000  1
  C  C36  1  0.46710000  0.61830000  0.27750000  1
  C  C37  1  0.49940000  0.57890000  0.71480000  1
  C  C38  1  0.50060000  0.42110000  0.28520000  1
  C  C39  1  0.53290000  0.38170000  0.72250000  1
  C  C40  1  0.53330000  0.83580000  0.19990000  1
  C  C41  1  0.55580000  0.09470000  0.86690000  1
  C  C42  1  0.57380000  0.18580000  0.72850000  1
  C  C43  1  0.59510000  0.23490000  0.15740000  1
  C  C44  1  0.63600000  0.79820000  0.43300000  1
  C  C45  1  0.63790000  0.36770000  0.22790000  1
  C  C46  1  0.66380000  0.60320000  0.44480000  1
  C  C47  1  0.79660000  0.83630000  0.69600000  1
  C  C48  1  0.85560000  0.78380000  0.59080000  1
  C  C49  1  0.94920000  0.90780000  0.79650000  1
  N  N50  1  0.29010000  0.27350000  0.51350000  1
  N  N51  1  0.45870000  0.44690000  0.66010000  1
  N  N52  1  0.48930000  0.25960000  0.66940000  1
  N  N53  1  0.51070000  0.74040000  0.33060000  1
  N  N54  1  0.54130000  0.55310000  0.33990000  1
  N  N55  1  0.70990000  0.72650000  0.48650000  1
  O  O56  1  0.05480000  0.08680000  0.10540000  1
  O  O57  1  0.07690000  0.95620000  0.78540000  1
  O  O58  1  0.27220000  0.45590000  0.50390000  1
  O  O59  1  0.28480000  0.81500000  0.88000000  1
  O  O60  1  0.28590000  0.91720000  0.12190000  1
  O  O61  1  0.32180000  0.09410000  0.52540000  1
  O  O62  1  0.36730000  0.56980000  0.18350000  1
  O  O63  1  0.44390000  0.18450000  0.14010000  1
  O  O64  1  0.46800000  0.05110000  0.91380000  1
  O  O65  1  0.53200000  0.94890000  0.08620000  1
  O  O66  1  0.55610000  0.81550000  0.85990000  1
  O  O67  1  0.63270000  0.43020000  0.81650000  1
  O  O68  1  0.67820000  0.90590000  0.47460000  1
  O  O69  1  0.71410000  0.08280000  0.87810000  1
  O  O70  1  0.71520000  0.18500000  0.12000000  1
  O  O71  1  0.72780000  0.54410000  0.49610000  1
  O  O72  1  0.92310000  0.04380000  0.21460000  1
  O  O73  1  0.94520000  0.91320000  0.89460000  1
