# generated using pymatgen
data_In3H4(C10O9)2
_symmetry_space_group_name_H-M   'P 1'
_cell_length_a   7.21040000
_cell_length_b   13.63700000
_cell_length_c   17.37900000
_cell_angle_alpha   90.00000000
_cell_angle_beta   100.65700000
_cell_angle_gamma   90.00000000
_symmetry_Int_Tables_number   1
_chemical_formula_structural   In3H4(C10O9)2
_chemical_formula_sum   'In6 H8 C40 O36'
_cell_volume   1679.37180176
_cell_formula_units_Z   2
loop_
 _symmetry_equiv_pos_site_id
 _symmetry_equiv_pos_as_xyz
  1  'x, y, z'
loop_
 _atom_site_type_symbol
 _atom_site_label
 _atom_site_symmetry_multiplicity
 _atom_site_fract_x
 _atom_site_fract_y
 _atom_site_fract_z
 _atom_site_occupancy
  In  In0  1  0.00000000  0.00000000  0.50000000  1
  In  In1  1  0.00000000  0.50000000  0.00000000  1
  In  In2  1  0.46697000  0.09877000  0.44673000  1
  In  In3  1  0.46697000  0.40123000  0.94673000  1
  In  In4  1  0.53303000  0.59877000  0.05327000  1
  In  In5  1  0.53303000  0.90123000  0.55327000  1
  H  H6  1  0.20310000  0.22670000  0.77710000  1
  H  H7  1  0.20310000  0.27330000  0.27710000  1
  H  H8  1  0.45850000  0.71040000  0.77660000  1
  H  H9  1  0.45850000  0.78960000  0.27660000  1
  H  H10  1  0.54150000  0.21040000  0.72340000  1
  H  H11  1  0.54150000  0.28960000  0.22340000  1
  H  H12  1  0.79690000  0.72670000  0.72290000  1
  H  H13  1  0.79690000  0.77330000  0.22290000  1
  C  C14  1  0.02380000  0.67760000  0.80040000  1
  C  C15  1  0.02380000  0.82240000  0.30040000  1
  C  C16  1  0.03490000  0.73130000  0.18400000  1
  C  C17  1  0.03490000  0.76870000  0.68400000  1
  C  C18  1  0.06400000  0.16820000  0.38260000  1
  C  C19  1  0.06400000  0.33180000  0.88260000  1
  C  C20  1  0.06910000  0.22460000  0.76590000  1
  C  C21  1  0.06910000  0.27540000  0.26590000  1
  C  C22  1  0.08560000  0.13290000  0.64150000  1
  C  C23  1  0.08560000  0.36710000  0.14150000  1
  C  C24  1  0.22040000  0.67020000  0.81560000  1
  C  C25  1  0.22040000  0.82980000  0.31560000  1
  C  C26  1  0.23360000  0.73690000  0.20010000  1
  C  C27  1  0.23360000  0.76310000  0.70010000  1
  C  C28  1  0.32470000  0.71410000  0.76570000  1
  C  C29  1  0.32470000  0.78590000  0.26570000  1
  C  C30  1  0.32820000  0.61180000  0.88250000  1
  C  C31  1  0.32820000  0.88820000  0.38250000  1
  C  C32  1  0.34980000  0.68950000  0.14750000  1
  C  C33  1  0.34980000  0.81050000  0.64750000  1
  C  C34  1  0.65020000  0.18950000  0.35250000  1
  C  C35  1  0.65020000  0.31050000  0.85250000  1
  C  C36  1  0.67180000  0.11180000  0.61750000  1
  C  C37  1  0.67180000  0.38820000  0.11750000  1
  C  C38  1  0.67530000  0.21410000  0.73430000  1
  C  C39  1  0.67530000  0.28590000  0.23430000  1
  C  C40  1  0.76640000  0.23690000  0.29990000  1
  C  C41  1  0.76640000  0.26310000  0.79990000  1
  C  C42  1  0.77960000  0.17020000  0.68440000  1
  C  C43  1  0.77960000  0.32980000  0.18440000  1
  C  C44  1  0.91440000  0.63290000  0.85850000  1
  C  C45  1  0.91440000  0.86710000  0.35850000  1
  C  C46  1  0.93090000  0.72460000  0.73410000  1
  C  C47  1  0.93090000  0.77540000  0.23410000  1
  C  C48  1  0.93600000  0.66820000  0.11740000  1
  C  C49  1  0.93600000  0.83180000  0.61740000  1
  C  C50  1  0.96510000  0.23130000  0.31600000  1
  C  C51  1  0.96510000  0.26870000  0.81600000  1
  C  C52  1  0.97620000  0.17760000  0.69960000  1
  C  C53  1  0.97620000  0.32240000  0.19960000  1
  O  O54  1  0.01380000  0.62000000  0.92620000  1
  O  O55  1  0.01380000  0.88000000  0.42620000  1
  O  O56  1  0.02380000  0.59520000  0.09970000  1
  O  O57  1  0.02380000  0.90480000  0.59970000  1
  O  O58  1  0.23220000  0.19370000  0.41310000  1
  O  O59  1  0.23220000  0.30630000  0.91310000  1
  O  O60  1  0.25450000  0.11130000  0.66240000  1
  O  O61  1  0.25450000  0.38870000  0.16240000  1
  O  O62  1  0.30870000  0.01230000  0.52870000  1
  O  O63  1  0.30870000  0.48770000  0.02870000  1
  O  O64  1  0.31910000  0.51970000  0.87420000  1
  O  O65  1  0.31910000  0.98030000  0.37420000  1
  O  O66  1  0.33610000  0.71920000  0.07810000  1
  O  O67  1  0.33610000  0.78080000  0.57810000  1
  O  O68  1  0.42590000  0.65840000  0.93810000  1
  O  O69  1  0.42590000  0.84160000  0.43810000  1
  O  O70  1  0.46770000  0.62400000  0.17440000  1
  O  O71  1  0.46770000  0.87600000  0.67440000  1
  O  O72  1  0.53230000  0.12400000  0.32560000  1
  O  O73  1  0.53230000  0.37600000  0.82560000  1
  O  O74  1  0.57410000  0.15840000  0.56190000  1
  O  O75  1  0.57410000  0.34160000  0.06190000  1
  O  O76  1  0.66390000  0.21920000  0.42190000  1
  O  O77  1  0.66390000  0.28080000  0.92190000  1
  O  O78  1  0.68090000  0.01970000  0.62580000  1
  O  O79  1  0.68090000  0.48030000  0.12580000  1
  O  O80  1  0.69130000  0.51230000  0.97130000  1
  O  O81  1  0.69130000  0.98770000  0.47130000  1
  O  O82  1  0.74550000  0.61130000  0.83760000  1
  O  O83  1  0.74550000  0.88870000  0.33760000  1
  O  O84  1  0.76780000  0.69370000  0.08690000  1
  O  O85  1  0.76780000  0.80630000  0.58690000  1
  O  O86  1  0.97620000  0.09520000  0.40030000  1
  O  O87  1  0.97620000  0.40480000  0.90030000  1
  O  O88  1  0.98620000  0.12000000  0.57380000  1
  O  O89  1  0.98620000  0.38000000  0.07380000  1
