# generated using pymatgen
data_EuH3(CO)6
_symmetry_space_group_name_H-M   'P 1'
_cell_length_a   8.87640000
_cell_length_b   9.19080000
_cell_length_c   15.82000000
_cell_angle_alpha   90.00000000
_cell_angle_beta   90.00000000
_cell_angle_gamma   90.00000000
_symmetry_Int_Tables_number   1
_chemical_formula_structural   EuH3(CO)6
_chemical_formula_sum   'Eu4 H12 C24 O24'
_cell_volume   1290.61485484
_cell_formula_units_Z   4
loop_
 _symmetry_equiv_pos_site_id
 _symmetry_equiv_pos_as_xyz
  1  'x, y, z'
loop_
 _atom_site_type_symbol
 _atom_site_label
 _atom_site_symmetry_multiplicity
 _atom_site_fract_x
 _atom_site_fract_y
 _atom_site_fract_z
 _atom_site_occupancy
  Eu  Eu0  1  0.00000000  0.27153000  0.18448000  1
  Eu  Eu1  1  0.00000000  0.72847000  0.81552000  1
  Eu  Eu2  1  0.50000000  0.22847000  0.68448000  1
  Eu  Eu3  1  0.50000000  0.77153000  0.31552000  1
  H  H4  1  0.00000000  0.16430000  0.57810000  1
  H  H5  1  0.00000000  0.83570000  0.42190000  1
  H  H6  1  0.14830000  0.11090000  0.43730000  1
  H  H7  1  0.14830000  0.88910000  0.56270000  1
  H  H8  1  0.35170000  0.38910000  0.93730000  1
  H  H9  1  0.35170000  0.61090000  0.06270000  1
  H  H10  1  0.50000000  0.33570000  0.07810000  1
  H  H11  1  0.50000000  0.66430000  0.92190000  1
  H  H12  1  0.64830000  0.38910000  0.93730000  1
  H  H13  1  0.64830000  0.61090000  0.06270000  1
  H  H14  1  0.85170000  0.11090000  0.43730000  1
  H  H15  1  0.85170000  0.88910000  0.56270000  1
  C  C16  1  0.00000000  0.02860000  0.67940000  1
  C  C17  1  0.00000000  0.05880000  0.58720000  1
  C  C18  1  0.00000000  0.94120000  0.41280000  1
  C  C19  1  0.00000000  0.97140000  0.32060000  1
  C  C20  1  0.14410000  0.00730000  0.45180000  1
  C  C21  1  0.14410000  0.99270000  0.54820000  1
  C  C22  1  0.22170000  0.43110000  0.08840000  1
  C  C23  1  0.22170000  0.56890000  0.91160000  1
  C  C24  1  0.27830000  0.06890000  0.58840000  1
  C  C25  1  0.27830000  0.93110000  0.41160000  1
  C  C26  1  0.35590000  0.49270000  0.95180000  1
  C  C27  1  0.35590000  0.50730000  0.04820000  1
  C  C28  1  0.50000000  0.44120000  0.08720000  1
  C  C29  1  0.50000000  0.47140000  0.17940000  1
  C  C30  1  0.50000000  0.52860000  0.82060000  1
  C  C31  1  0.50000000  0.55880000  0.91280000  1
  C  C32  1  0.64410000  0.49270000  0.95180000  1
  C  C33  1  0.64410000  0.50730000  0.04820000  1
  C  C34  1  0.72170000  0.06890000  0.58840000  1
  C  C35  1  0.72170000  0.93110000  0.41160000  1
  C  C36  1  0.77830000  0.43110000  0.08840000  1
  C  C37  1  0.77830000  0.56890000  0.91160000  1
  C  C38  1  0.85590000  0.00730000  0.45180000  1
  C  C39  1  0.85590000  0.99270000  0.54820000  1
  O  O40  1  0.00000000  0.10570000  0.29780000  1
  O  O41  1  0.00000000  0.13280000  0.73290000  1
  O  O42  1  0.00000000  0.86720000  0.26710000  1
  O  O43  1  0.00000000  0.89430000  0.70220000  1
  O  O44  1  0.16550000  0.31660000  0.05670000  1
  O  O45  1  0.16550000  0.68340000  0.94330000  1
  O  O46  1  0.17200000  0.47810000  0.15880000  1
  O  O47  1  0.17200000  0.52190000  0.84120000  1
  O  O48  1  0.32800000  0.02190000  0.65880000  1
  O  O49  1  0.32800000  0.97810000  0.34120000  1
  O  O50  1  0.33450000  0.18340000  0.55670000  1
  O  O51  1  0.33450000  0.81660000  0.44330000  1
  O  O52  1  0.50000000  0.36720000  0.23290000  1
  O  O53  1  0.50000000  0.39430000  0.79780000  1
  O  O54  1  0.50000000  0.60570000  0.20220000  1
  O  O55  1  0.50000000  0.63280000  0.76710000  1
  O  O56  1  0.66550000  0.18340000  0.55670000  1
  O  O57  1  0.66550000  0.81660000  0.44330000  1
  O  O58  1  0.67200000  0.02190000  0.65880000  1
  O  O59  1  0.67200000  0.97810000  0.34120000  1
  O  O60  1  0.82800000  0.47810000  0.15880000  1
  O  O61  1  0.82800000  0.52190000  0.84120000  1
  O  O62  1  0.83450000  0.31660000  0.05670000  1
  O  O63  1  0.83450000  0.68340000  0.94330000  1
