# generated using pymatgen
data_SrH4(C4O3)2
_symmetry_space_group_name_H-M   'P 1'
_cell_length_a   11.43900000
_cell_length_b   11.96600000
_cell_length_c   12.11300000
_cell_angle_alpha   101.03600000
_cell_angle_beta   106.89000000
_cell_angle_gamma   107.95000000
_symmetry_Int_Tables_number   1
_chemical_formula_structural   SrH4(C4O3)2
_chemical_formula_sum   'Sr3 H12 C24 O18'
_cell_volume   1435.58367121
_cell_formula_units_Z   3
loop_
 _symmetry_equiv_pos_site_id
 _symmetry_equiv_pos_as_xyz
  1  'x, y, z'
loop_
 _atom_site_type_symbol
 _atom_site_label
 _atom_site_symmetry_multiplicity
 _atom_site_fract_x
 _atom_site_fract_y
 _atom_site_fract_z
 _atom_site_occupancy
  Sr  Sr0  1  0.00000000  0.00000000  0.50000000  1
  Sr  Sr1  1  0.28404000  0.28592000  0.77425000  1
  Sr  Sr2  1  0.71596000  0.71408000  0.22575000  1
  H  H3  1  0.10550000  0.47880000  0.68450000  1
  H  H4  1  0.13900000  0.76430000  0.68800000  1
  H  H5  1  0.19580000  0.12350000  0.99150000  1
  H  H6  1  0.20700000  0.12700000  0.26870000  1
  H  H7  1  0.27170000  0.93790000  0.43450000  1
  H  H8  1  0.37800000  0.75000000  0.29300000  1
  H  H9  1  0.62200000  0.25000000  0.70700000  1
  H  H10  1  0.72830000  0.06210000  0.56550000  1
  H  H11  1  0.79300000  0.87300000  0.73130000  1
  H  H12  1  0.80420000  0.87650000  0.00850000  1
  H  H13  1  0.86100000  0.23570000  0.31200000  1
  H  H14  1  0.89450000  0.52120000  0.31550000  1
  C  C15  1  0.00260000  0.61560000  0.49160000  1
  C  C16  1  0.00330000  0.73980000  0.48380000  1
  C  C17  1  0.00610000  0.01060000  0.88910000  1
  C  C18  1  0.01250000  0.02400000  0.76940000  1
  C  C19  1  0.06310000  0.48730000  0.61030000  1
  C  C20  1  0.06710000  0.60390000  0.60400000  1
  C  C21  1  0.11350000  0.06520000  0.10700000  1
  C  C22  1  0.11730000  0.07400000  0.99520000  1
  C  C23  1  0.36320000  0.96270000  0.46060000  1
  C  C24  1  0.38430000  0.14790000  0.61520000  1
  C  C25  1  0.41720000  0.89070000  0.40520000  1
  C  C26  1  0.44450000  0.07150000  0.55460000  1
  C  C27  1  0.55550000  0.92850000  0.44540000  1
  C  C28  1  0.58280000  0.10930000  0.59480000  1
  C  C29  1  0.61570000  0.85210000  0.38480000  1
  C  C30  1  0.63680000  0.03730000  0.53940000  1
  C  C31  1  0.88270000  0.92600000  0.00480000  1
  C  C32  1  0.88650000  0.93480000  0.89300000  1
  C  C33  1  0.93290000  0.39610000  0.39600000  1
  C  C34  1  0.93690000  0.51270000  0.38970000  1
  C  C35  1  0.98750000  0.97600000  0.23060000  1
  C  C36  1  0.99390000  0.98940000  0.11090000  1
  C  C37  1  0.99670000  0.26020000  0.51620000  1
  C  C38  1  0.99740000  0.38440000  0.50840000  1
  O  O39  1  0.07060000  0.25270000  0.61080000  1
  O  O40  1  0.07750000  0.83200000  0.57530000  1
  O  O41  1  0.09080000  0.03590000  0.32450000  1
  O  O42  1  0.11850000  0.09210000  0.76630000  1
  O  O43  1  0.13190000  0.70080000  0.70720000  1
  O  O44  1  0.22440000  0.12960000  0.20730000  1
  O  O45  1  0.26160000  0.11010000  0.58690000  1
  O  O46  1  0.33310000  0.78530000  0.31280000  1
  O  O47  1  0.46250000  0.24920000  0.69650000  1
  O  O48  1  0.53750000  0.75080000  0.30350000  1
  O  O49  1  0.66690000  0.21470000  0.68720000  1
  O  O50  1  0.73840000  0.88990000  0.41310000  1
  O  O51  1  0.77560000  0.87040000  0.79270000  1
  O  O52  1  0.86810000  0.29920000  0.29280000  1
  O  O53  1  0.88150000  0.90790000  0.23370000  1
  O  O54  1  0.90920000  0.96410000  0.67550000  1
  O  O55  1  0.92250000  0.16800000  0.42470000  1
  O  O56  1  0.92940000  0.74730000  0.38920000  1
