# generated using pymatgen
data_CoH7C13NO4
_symmetry_space_group_name_H-M   'P 1'
_cell_length_a   11.85000000
_cell_length_b   13.85300000
_cell_length_c   13.94400000
_cell_angle_alpha   90.00000000
_cell_angle_beta   114.79300000
_cell_angle_gamma   90.00000000
_symmetry_Int_Tables_number   1
_chemical_formula_structural   CoH7C13NO4
_chemical_formula_sum   'Co4 H28 C52 N4 O16'
_cell_volume   2078.03795402
_cell_formula_units_Z   4
loop_
 _symmetry_equiv_pos_site_id
 _symmetry_equiv_pos_as_xyz
  1  'x, y, z'
loop_
 _atom_site_type_symbol
 _atom_site_label
 _atom_site_symmetry_multiplicity
 _atom_site_fract_x
 _atom_site_fract_y
 _atom_site_fract_z
 _atom_site_occupancy
  Co  Co0  1  0.10650000  0.55813000  0.04996000  1
  Co  Co1  1  0.10650000  0.94187000  0.54996000  1
  Co  Co2  1  0.89350000  0.05813000  0.45004000  1
  Co  Co3  1  0.89350000  0.44187000  0.95004000  1
  H  H4  1  0.00080000  0.74780000  0.26280000  1
  H  H5  1  0.00080000  0.75220000  0.76280000  1
  H  H6  1  0.25680000  0.74640000  0.10160000  1
  H  H7  1  0.25680000  0.75360000  0.60160000  1
  H  H8  1  0.30390000  0.08890000  0.40840000  1
  H  H9  1  0.30390000  0.41110000  0.90840000  1
  H  H10  1  0.32960000  0.19240000  0.72620000  1
  H  H11  1  0.32960000  0.30760000  0.22620000  1
  H  H12  1  0.35420000  0.02610000  0.60370000  1
  H  H13  1  0.35420000  0.47390000  0.10370000  1
  H  H14  1  0.44100000  0.01820000  0.35140000  1
  H  H15  1  0.44100000  0.48180000  0.85140000  1
  H  H16  1  0.45840000  0.70250000  0.64940000  1
  H  H17  1  0.45840000  0.79750000  0.14940000  1
  H  H18  1  0.54160000  0.20250000  0.85060000  1
  H  H19  1  0.54160000  0.29750000  0.35060000  1
  H  H20  1  0.55900000  0.51820000  0.14860000  1
  H  H21  1  0.55900000  0.98180000  0.64860000  1
  H  H22  1  0.64580000  0.52610000  0.89630000  1
  H  H23  1  0.64580000  0.97390000  0.39630000  1
  H  H24  1  0.67040000  0.69240000  0.77380000  1
  H  H25  1  0.67040000  0.80760000  0.27380000  1
  H  H26  1  0.69610000  0.58890000  0.09160000  1
  H  H27  1  0.69610000  0.91110000  0.59160000  1
  H  H28  1  0.74320000  0.24640000  0.39840000  1
  H  H29  1  0.74320000  0.25360000  0.89840000  1
  H  H30  1  0.99920000  0.24780000  0.23720000  1
  H  H31  1  0.99920000  0.25220000  0.73720000  1
  C  C32  1  0.07080000  0.10650000  0.38190000  1
  C  C33  1  0.07080000  0.39350000  0.88190000  1
  C  C34  1  0.08540000  0.23510000  0.25990000  1
  C  C35  1  0.08540000  0.26490000  0.75990000  1
  C  C36  1  0.09470000  0.13060000  0.64260000  1
  C  C37  1  0.09470000  0.36940000  0.14260000  1
  C  C38  1  0.14100000  0.16220000  0.33200000  1
  C  C39  1  0.14100000  0.33780000  0.83200000  1
  C  C40  1  0.15510000  0.20990000  0.72040000  1
  C  C41  1  0.15510000  0.29010000  0.22040000  1
  C  C42  1  0.26620000  0.14020000  0.36040000  1
  C  C43  1  0.26620000  0.35980000  0.86040000  1
  C  C44  1  0.28140000  0.23070000  0.75140000  1
  C  C45  1  0.28140000  0.26930000  0.25140000  1
  C  C46  1  0.31920000  0.69950000  0.11120000  1
  C  C47  1  0.31920000  0.80050000  0.61120000  1
  C  C48  1  0.33610000  0.19200000  0.31970000  1
  C  C49  1  0.33610000  0.30800000  0.81970000  1
  C  C50  1  0.37580000  0.54040000  0.11200000  1
  C  C51  1  0.37580000  0.95960000  0.61200000  1
  C  C52  1  0.43920000  0.73070000  0.13920000  1
  C  C53  1  0.43920000  0.76930000  0.63920000  1
  C  C54  1  0.46750000  0.16370000  0.34760000  1
  C  C55  1  0.46750000  0.33630000  0.84760000  1
  C  C56  1  0.49830000  0.56650000  0.13910000  1
  C  C57  1  0.49830000  0.93350000  0.63910000  1
  C  C58  1  0.50170000  0.06650000  0.36090000  1
  C  C59  1  0.50170000  0.43350000  0.86090000  1
  C  C60  1  0.53250000  0.66370000  0.15240000  1
  C  C61  1  0.53250000  0.83630000  0.65240000  1
  C  C62  1  0.56080000  0.23070000  0.36080000  1
  C  C63  1  0.56080000  0.26930000  0.86080000  1
  C  C64  1  0.62420000  0.04040000  0.38800000  1
  C  C65  1  0.62420000  0.45960000  0.88800000  1
  C  C66  1  0.66390000  0.69200000  0.18030000  1
  C  C67  1  0.66390000  0.80800000  0.68030000  1
  C  C68  1  0.68080000  0.19950000  0.38880000  1
  C  C69  1  0.68080000  0.30050000  0.88880000  1
  C  C70  1  0.71860000  0.73070000  0.74860000  1
  C  C71  1  0.71860000  0.76930000  0.24860000  1
  C  C72  1  0.73380000  0.64020000  0.13960000  1
  C  C73  1  0.73380000  0.85980000  0.63960000  1
  C  C74  1  0.84490000  0.70990000  0.77960000  1
  C  C75  1  0.84490000  0.79010000  0.27960000  1
  C  C76  1  0.85900000  0.66220000  0.16800000  1
  C  C77  1  0.85900000  0.83780000  0.66800000  1
  C  C78  1  0.90530000  0.63060000  0.85740000  1
  C  C79  1  0.90530000  0.86940000  0.35740000  1
  C  C80  1  0.91460000  0.73510000  0.24010000  1
  C  C81  1  0.91460000  0.76490000  0.74010000  1
  C  C82  1  0.92920000  0.60650000  0.11810000  1
  C  C83  1  0.92920000  0.89350000  0.61810000  1
  N  N84  1  0.28620000  0.60620000  0.09700000  1
  N  N85  1  0.28620000  0.89380000  0.59700000  1
  N  N86  1  0.71380000  0.10620000  0.40300000  1
  N  N87  1  0.71380000  0.39380000  0.90300000  1
  O  O88  1  0.01590000  0.64540000  0.92470000  1
  O  O89  1  0.01590000  0.85460000  0.42470000  1
  O  O90  1  0.03930000  0.63330000  0.13860000  1
  O  O91  1  0.03930000  0.86670000  0.63860000  1
  O  O92  1  0.12640000  0.03850000  0.44270000  1
  O  O93  1  0.12640000  0.46150000  0.94270000  1
  O  O94  1  0.15830000  0.05630000  0.64960000  1
  O  O95  1  0.15830000  0.44370000  0.14960000  1
  O  O96  1  0.84170000  0.55630000  0.85040000  1
  O  O97  1  0.84170000  0.94370000  0.35040000  1
  O  O98  1  0.87360000  0.53850000  0.05730000  1
  O  O99  1  0.87360000  0.96150000  0.55730000  1
  O  O100  1  0.96070000  0.13330000  0.36140000  1
  O  O101  1  0.96070000  0.36670000  0.86140000  1
  O  O102  1  0.98410000  0.14540000  0.57530000  1
  O  O103  1  0.98410000  0.35460000  0.07530000  1
