# generated using pymatgen
data_Zn4H60C96N6O25
_symmetry_space_group_name_H-M   'P 1'
_cell_length_a   23.27500000
_cell_length_b   25.48600000
_cell_length_c   43.96450000
_cell_angle_alpha   90.00000000
_cell_angle_beta   90.62370000
_cell_angle_gamma   90.00000000
_symmetry_Int_Tables_number   1
_chemical_formula_structural   Zn4H60C96N6O25
_chemical_formula_sum   'Zn16 H240 C384 N24 O100'
_cell_volume   26077.60934243
_cell_formula_units_Z   4
loop_
 _symmetry_equiv_pos_site_id
 _symmetry_equiv_pos_as_xyz
  1  'x, y, z'
loop_
 _atom_site_type_symbol
 _atom_site_label
 _atom_site_symmetry_multiplicity
 _atom_site_fract_x
 _atom_site_fract_y
 _atom_site_fract_z
 _atom_site_occupancy
  Zn  Zn0  1  0.17780000  0.77722000  0.16606000  1
  Zn  Zn1  1  0.18650000  0.28415000  0.33557000  1
  Zn  Zn2  1  0.23279000  0.86529000  0.12758000  1
  Zn  Zn3  1  0.23753000  0.87762000  0.19805000  1
  Zn  Zn4  1  0.26247000  0.37762000  0.30195000  1
  Zn  Zn5  1  0.26721000  0.36529000  0.37242000  1
  Zn  Zn6  1  0.31350000  0.78415000  0.16443000  1
  Zn  Zn7  1  0.32220000  0.27722000  0.33394000  1
  Zn  Zn8  1  0.67780000  0.72278000  0.66606000  1
  Zn  Zn9  1  0.68650000  0.21585000  0.83557000  1
  Zn  Zn10  1  0.73279000  0.63471000  0.62758000  1
  Zn  Zn11  1  0.73753000  0.62238000  0.69805000  1
  Zn  Zn12  1  0.76247000  0.12238000  0.80195000  1
  Zn  Zn13  1  0.76721000  0.13471000  0.87242000  1
  Zn  Zn14  1  0.81350000  0.71585000  0.66443000  1
  Zn  Zn15  1  0.82220000  0.22278000  0.83394000  1
  H  H16  1  0.01340000  0.33230000  0.96310000  1
  H  H17  1  0.02280000  0.68630000  0.31190000  1
  H  H18  1  0.02450000  0.67370000  0.27620000  1
  H  H19  1  0.02460000  0.65270000  0.06610000  1
  H  H20  1  0.02570000  0.84770000  0.99160000  1
  H  H21  1  0.02670000  0.17660000  0.46740000  1
  H  H22  1  0.02830000  0.29420000  0.71010000  1
  H  H23  1  0.04160000  0.19650000  0.18400000  1
  H  H24  1  0.04230000  0.88940000  0.33170000  1
  H  H25  1  0.04510000  0.40250000  0.17390000  1
  H  H26  1  0.05110000  0.64760000  0.03280000  1
  H  H27  1  0.06350000  0.88760000  0.01160000  1
  H  H28  1  0.06890000  0.16040000  0.44050000  1
  H  H29  1  0.06980000  0.17600000  0.21520000  1
  H  H30  1  0.07440000  0.73390000  0.24210000  1
  H  H31  1  0.07470000  0.37500000  0.50390000  1
  H  H32  1  0.07910000  0.71680000  0.09220000  1
  H  H33  1  0.08130000  0.71140000  0.45790000  1
  H  H34  1  0.08740000  0.15010000  0.47510000  1
  H  H35  1  0.09420000  0.84770000  0.98880000  1
  H  H36  1  0.09550000  0.68050000  0.87470000  1
  H  H37  1  0.09960000  0.38600000  0.15420000  1
  H  H38  1  0.10180000  0.90930000  0.31790000  1
  H  H39  1  0.10190000  0.86780000  0.34520000  1
  H  H40  1  0.10340000  0.04470000  0.33040000  1
  H  H41  1  0.10460000  0.62310000  0.33500000  1
  H  H42  1  0.10690000  0.42650000  0.18180000  1
  H  H43  1  0.10910000  0.18470000  0.18600000  1
  H  H44  1  0.11340000  0.72020000  0.40700000  1
  H  H45  1  0.11420000  0.23620000  0.25160000  1
  H  H46  1  0.11430000  0.85750000  0.05600000  1
  H  H47  1  0.12230000  0.99760000  0.35240000  1
  H  H48  1  0.12510000  0.68220000  0.92850000  1
  H  H49  1  0.12540000  0.35250000  0.52510000  1
  H  H50  1  0.12600000  0.53640000  0.13090000  1
  H  H51  1  0.12910000  0.17460000  0.63420000  1
  H  H52  1  0.12960000  0.39230000  0.23200000  1
  H  H53  1  0.13090000  0.61070000  0.30230000  1
  H  H54  1  0.13100000  0.21480000  0.42220000  1
  H  H55  1  0.13210000  0.87130000  0.27060000  1
  H  H56  1  0.13300000  0.23690000  0.03740000  1
  H  H57  1  0.13790000  0.99560000  0.31710000  1
  H  H58  1  0.13960000  0.39310000  0.49840000  1
  H  H59  1  0.14230000  0.11050000  0.11410000  1
  H  H60  1  0.14400000  0.48840000  0.15250000  1
  H  H61  1  0.14710000  0.66430000  0.31940000  1
  H  H62  1  0.15410000  0.15620000  0.13830000  1
  H  H63  1  0.15650000  0.18530000  0.58020000  1
  H  H64  1  0.16220000  0.24910000  0.08780000  1
  H  H65  1  0.16450000  0.48960000  0.11790000  1
  H  H66  1  0.16490000  0.12150000  0.33180000  1
  H  H67  1  0.16510000  0.52530000  0.32690000  1
  H  H68  1  0.16940000  0.36240000  0.45380000  1
  H  H69  1  0.17270000  0.61440000  0.14560000  1
  H  H70  1  0.18580000  0.15710000  0.10620000  1
  H  H71  1  0.18970000  0.03120000  0.12640000  1
  H  H72  1  0.20610000  0.77830000  0.42150000  1
  H  H73  1  0.21590000  0.86970000  0.42140000  1
  H  H74  1  0.24640000  0.36840000  0.22340000  1
  H  H75  1  0.24990000  0.77580000  0.27660000  1
  H  H76  1  0.25010000  0.27580000  0.22340000  1
  H  H77  1  0.25360000  0.86840000  0.27660000  1
  H  H78  1  0.28410000  0.36970000  0.07860000  1
  H  H79  1  0.29390000  0.27830000  0.07850000  1
  H  H80  1  0.31030000  0.53120000  0.37360000  1
  H  H81  1  0.31420000  0.65710000  0.39380000  1
  H  H82  1  0.32730000  0.11440000  0.35440000  1
  H  H83  1  0.33060000  0.86240000  0.04620000  1
  H  H84  1  0.33490000  0.02530000  0.17310000  1
  H  H85  1  0.33510000  0.62150000  0.16820000  1
  H  H86  1  0.33550000  0.98960000  0.38210000  1
  H  H87  1  0.33780000  0.74910000  0.41220000  1
  H  H88  1  0.34350000  0.68530000  0.91980000  1
  H  H89  1  0.34590000  0.65620000  0.36170000  1
  H  H90  1  0.35290000  0.16430000  0.18060000  1
  H  H91  1  0.35600000  0.98840000  0.34750000  1
  H  H92  1  0.35770000  0.61050000  0.38590000  1
  H  H93  1  0.36040000  0.89310000  0.00160000  1
  H  H94  1  0.36210000  0.49560000  0.18290000  1
  H  H95  1  0.36700000  0.73690000  0.46260000  1
  H  H96  1  0.36790000  0.37130000  0.22940000  1
  H  H97  1  0.36900000  0.71480000  0.07780000  1
  H  H98  1  0.36910000  0.11070000  0.19770000  1
  H  H99  1  0.37040000  0.89230000  0.26800000  1
  H  H100  1  0.37090000  0.67460000  0.86580000  1
  H  H101  1  0.37400000  0.03640000  0.36910000  1
  H  H102  1  0.37460000  0.85250000  0.97490000  1
  H  H103  1  0.37490000  0.18220000  0.57150000  1
  H  H104  1  0.37770000  0.49760000  0.14760000  1
  H  H105  1  0.38570000  0.35750000  0.44400000  1
  H  H106  1  0.38580000  0.73620000  0.24840000  1
  H  H107  1  0.38660000  0.22020000  0.09300000  1
  H  H108  1  0.39090000  0.68470000  0.31400000  1
  H  H109  1  0.39310000  0.92650000  0.31820000  1
  H  H110  1  0.39540000  0.12310000  0.16500000  1
  H  H111  1  0.39660000  0.54470000  0.16960000  1
  H  H112  1  0.39810000  0.36780000  0.15480000  1
  H  H113  1  0.39820000  0.40930000  0.18210000  1
  H  H114  1  0.40040000  0.88600000  0.34580000  1
  H  H115  1  0.40450000  0.18050000  0.62530000  1
  H  H116  1  0.40580000  0.34770000  0.51120000  1
  H  H117  1  0.41260000  0.65010000  0.02490000  1
  H  H118  1  0.41870000  0.21140000  0.04210000  1
  H  H119  1  0.42090000  0.21680000  0.40780000  1
  H  H120  1  0.42530000  0.87500000  0.99610000  1
  H  H121  1  0.42560000  0.23390000  0.25790000  1
  H  H122  1  0.43020000  0.67600000  0.28480000  1
  H  H123  1  0.43110000  0.66040000  0.05950000  1
  H  H124  1  0.43650000  0.38760000  0.48840000  1
  H  H125  1  0.44890000  0.14760000  0.46720000  1
  H  H126  1  0.45490000  0.90250000  0.32610000  1
  H  H127  1  0.45770000  0.38940000  0.16830000  1
  H  H128  1  0.45840000  0.69650000  0.31600000  1
  H  H129  1  0.47170000  0.79420000  0.78990000  1
  H  H130  1  0.47330000  0.67660000  0.03260000  1
  H  H131  1  0.47430000  0.34770000  0.50840000  1
  H  H132  1  0.47540000  0.15270000  0.43390000  1
  H  H133  1  0.47550000  0.17370000  0.22380000  1
  H  H134  1  0.47720000  0.18630000  0.18810000  1
  H  H135  1  0.48660000  0.83230000  0.53690000  1
  H  H136  1  0.51340000  0.16770000  0.46310000  1
  H  H137  1  0.52280000  0.81370000  0.81190000  1
  H  H138  1  0.52450000  0.82630000  0.77620000  1
  H  H139  1  0.52460000  0.84730000  0.56610000  1
  H  H140  1  0.52570000  0.65230000  0.49160000  1
  H  H141  1  0.52670000  0.32340000  0.96740000  1
  H  H142  1  0.52830000  0.20580000  0.21010000  1
  H  H143  1  0.54160000  0.30350000  0.68400000  1
  H  H144  1  0.54230000  0.61060000  0.83170000  1
  H  H145  1  0.54510000  0.09750000  0.67390000  1
  H  H146  1  0.55110000  0.85240000  0.53280000  1
  H  H147  1  0.56350000  0.61240000  0.51160000  1
  H  H148  1  0.56890000  0.33960000  0.94050000  1
  H  H149  1  0.56980000  0.32400000  0.71520000  1
  H  H150  1  0.57440000  0.76610000  0.74210000  1
  H  H151  1  0.57470000  0.12500000  0.00390000  1
  H  H152  1  0.57910000  0.78320000  0.59220000  1
  H  H153  1  0.58130000  0.78860000  0.95790000  1
  H  H154  1  0.58740000  0.34990000  0.97510000  1
  H  H155  1  0.59420000  0.65230000  0.48880000  1
  H  H156  1  0.59550000  0.81950000  0.37470000  1
  H  H157  1  0.59960000  0.11400000  0.65420000  1
  H  H158  1  0.60180000  0.59070000  0.81790000  1
  H  H159  1  0.60190000  0.63220000  0.84520000  1
  H  H160  1  0.60340000  0.45530000  0.83040000  1
  H  H161  1  0.60460000  0.87690000  0.83500000  1
  H  H162  1  0.60690000  0.07350000  0.68180000  1
  H  H163  1  0.60910000  0.31530000  0.68600000  1
  H  H164  1  0.61340000  0.77980000  0.90700000  1
  H  H165  1  0.61420000  0.26380000  0.75160000  1
  H  H166  1  0.61430000  0.64250000  0.55600000  1
  H  H167  1  0.62230000  0.50240000  0.85240000  1
  H  H168  1  0.62510000  0.81780000  0.42850000  1
  H  H169  1  0.62540000  0.14750000  0.02510000  1
  H  H170  1  0.62600000  0.96360000  0.63090000  1
  H  H171  1  0.62910000  0.32540000  0.13420000  1
  H  H172  1  0.62960000  0.10770000  0.73200000  1
  H  H173  1  0.63090000  0.88930000  0.80230000  1
  H  H174  1  0.63100000  0.28520000  0.92220000  1
  H  H175  1  0.63210000  0.62870000  0.77060000  1
  H  H176  1  0.63300000  0.26310000  0.53740000  1
  H  H177  1  0.63790000  0.50440000  0.81710000  1
  H  H178  1  0.63960000  0.10690000  0.99840000  1
  H  H179  1  0.64230000  0.38950000  0.61410000  1
  H  H180  1  0.64400000  0.01160000  0.65250000  1
  H  H181  1  0.64710000  0.83570000  0.81940000  1
  H  H182  1  0.65410000  0.34380000  0.63830000  1
  H  H183  1  0.65650000  0.31470000  0.08020000  1
  H  H184  1  0.66220000  0.25090000  0.58780000  1
  H  H185  1  0.66450000  0.01040000  0.61790000  1
  H  H186  1  0.66490000  0.37850000  0.83180000  1
  H  H187  1  0.66510000  0.97470000  0.82690000  1
  H  H188  1  0.66940000  0.13760000  0.95380000  1
  H  H189  1  0.67270000  0.88560000  0.64560000  1
  H  H190  1  0.68580000  0.34290000  0.60620000  1
  H  H191  1  0.68970000  0.46880000  0.62640000  1
  H  H192  1  0.70610000  0.72170000  0.92150000  1
  H  H193  1  0.71590000  0.63030000  0.92140000  1
  H  H194  1  0.74640000  0.13160000  0.72340000  1
  H  H195  1  0.74990000  0.72420000  0.77660000  1
  H  H196  1  0.75010000  0.22420000  0.72340000  1
  H  H197  1  0.75360000  0.63160000  0.77660000  1
  H  H198  1  0.78410000  0.13030000  0.57860000  1
  H  H199  1  0.79390000  0.22170000  0.57850000  1
  H  H200  1  0.81030000  0.96880000  0.87360000  1
  H  H201  1  0.81420000  0.84290000  0.89380000  1
  H  H202  1  0.82730000  0.38560000  0.85440000  1
  H  H203  1  0.83060000  0.63760000  0.54620000  1
  H  H204  1  0.83490000  0.47470000  0.67310000  1
  H  H205  1  0.83510000  0.87850000  0.66820000  1
  H  H206  1  0.83550000  0.51040000  0.88210000  1
  H  H207  1  0.83780000  0.75090000  0.91220000  1
  H  H208  1  0.84350000  0.81470000  0.41980000  1
  H  H209  1  0.84590000  0.84380000  0.86170000  1
  H  H210  1  0.85290000  0.33570000  0.68060000  1
  H  H211  1  0.85600000  0.51160000  0.84750000  1
  H  H212  1  0.85770000  0.88950000  0.88590000  1
  H  H213  1  0.86040000  0.60690000  0.50160000  1
  H  H214  1  0.86210000  0.00440000  0.68290000  1
  H  H215  1  0.86700000  0.76310000  0.96260000  1
  H  H216  1  0.86790000  0.12870000  0.72940000  1
  H  H217  1  0.86900000  0.78520000  0.57780000  1
  H  H218  1  0.86910000  0.38930000  0.69770000  1
  H  H219  1  0.87040000  0.60770000  0.76800000  1
  H  H220  1  0.87090000  0.82540000  0.36580000  1
  H  H221  1  0.87400000  0.46360000  0.86910000  1
  H  H222  1  0.87460000  0.64750000  0.47490000  1
  H  H223  1  0.87490000  0.31780000  0.07150000  1
  H  H224  1  0.87770000  0.00240000  0.64760000  1
  H  H225  1  0.88570000  0.14250000  0.94400000  1
  H  H226  1  0.88580000  0.76380000  0.74840000  1
  H  H227  1  0.88660000  0.27980000  0.59300000  1
  H  H228  1  0.89090000  0.81530000  0.81400000  1
  H  H229  1  0.89310000  0.57350000  0.81820000  1
  H  H230  1  0.89540000  0.37690000  0.66500000  1
  H  H231  1  0.89660000  0.95530000  0.66960000  1
  H  H232  1  0.89810000  0.13220000  0.65480000  1
  H  H233  1  0.89820000  0.09070000  0.68210000  1
  H  H234  1  0.90040000  0.61400000  0.84580000  1
  H  H235  1  0.90450000  0.31950000  0.12530000  1
  H  H236  1  0.90580000  0.15230000  0.01120000  1
  H  H237  1  0.91260000  0.84990000  0.52490000  1
  H  H238  1  0.91870000  0.28860000  0.54210000  1
  H  H239  1  0.92090000  0.28320000  0.90780000  1
  H  H240  1  0.92530000  0.62500000  0.49610000  1
  H  H241  1  0.92560000  0.26610000  0.75790000  1
  H  H242  1  0.93020000  0.82400000  0.78480000  1
  H  H243  1  0.93110000  0.83960000  0.55950000  1
  H  H244  1  0.93650000  0.11240000  0.98840000  1
  H  H245  1  0.94890000  0.35240000  0.96720000  1
  H  H246  1  0.95490000  0.59750000  0.82610000  1
  H  H247  1  0.95770000  0.11060000  0.66830000  1
  H  H248  1  0.95840000  0.80350000  0.81600000  1
  H  H249  1  0.97170000  0.70580000  0.28990000  1
  H  H250  1  0.97330000  0.82340000  0.53260000  1
  H  H251  1  0.97430000  0.15230000  0.00840000  1
  H  H252  1  0.97540000  0.34730000  0.93390000  1
  H  H253  1  0.97550000  0.32630000  0.72380000  1
  H  H254  1  0.97720000  0.31370000  0.68810000  1
  H  H255  1  0.98660000  0.66770000  0.03690000  1
  C  C256  1  0.00368000  0.74170000  0.44918000  1
  C  C257  1  0.00575000  0.30050000  0.15095000  1
  C  C258  1  0.00740000  0.27340000  0.06550000  1
  C  C259  1  0.01321000  0.69960000  0.29151000  1
  C  C260  1  0.01436000  0.22860000  0.60316000  1
  C  C261  1  0.01449000  0.70520000  0.88229000  1
  C  C262  1  0.02012000  0.26670000  0.52032000  1
  C  C263  1  0.02541000  0.66810000  0.04571000  1
  C  C264  1  0.02598000  0.28050000  0.09638000  1
  C  C265  1  0.02778000  0.19940000  0.65758000  1
  C  C266  1  0.02966000  0.24770000  0.01216000  1
  C  C267  1  0.03507000  0.23520000  0.57407000  1
  C  C268  1  0.04098000  0.75360000  0.39068000  1
  C  C269  1  0.04448000  0.74960000  0.28618000  1
  C  C270  1  0.04700000  0.72480000  0.04770000  1
  C  C271  1  0.04898000  0.76300000  0.02438000  1
  C  C272  1  0.04947000  0.71560000  0.94197000  1
  C  C273  1  0.05033000  0.20740000  0.62543000  1
  C  C274  1  0.05097000  0.25490000  0.04507000  1
  C  C275  1  0.05145000  0.78892000  0.30725000  1
  C  C276  1  0.05681000  0.72610000  0.44261000  1
  C  C277  1  0.06059000  0.75850000  0.35909000  1
  C  C278  1  0.06207000  0.85230000  0.00277000  1
  C  C279  1  0.06604000  0.81280000  0.02734000  1
  C  C280  1  0.06697000  0.17390000  0.46127000  1
  C  C281  1  0.06734000  0.71960000  0.97404000  1
  C  C282  1  0.06957000  0.69160000  0.88997000  1
  C  C283  1  0.07542000  0.74087000  0.07582000  1
  C  C284  1  0.07589000  0.19783000  0.19719000  1
  C  C285  1  0.07597000  0.73180000  0.41227000  1
  C  C286  1  0.07716000  0.75884000  0.25806000  1
  C  C287  1  0.08009000  0.83372000  0.30339000  1
  C  C288  1  0.08167000  0.87924000  0.32667000  1
  C  C289  1  0.08190000  0.29908000  0.18780000  1
  C  C290  1  0.08259000  0.26778000  0.10419000  1
  C  C291  1  0.08620000  0.22120000  0.56550000  1
  C  C292  1  0.08643000  0.39525000  0.17463000  1
  C  C293  1  0.08697000  0.25490000  0.20707000  1
  C  C294  1  0.08841000  0.69440000  0.92201000  1
  C  C295  1  0.09507000  0.82472000  0.05427000  1
  C  C296  1  0.09677000  0.79065000  0.07867000  1
  C  C297  1  0.09721000  0.23290000  0.46281000  1
  C  C298  1  0.09838000  0.34855000  0.19688000  1
  C  C299  1  0.09980000  0.26700000  0.48570000  1
  C  C300  1  0.10109000  0.27270000  0.13699000  1
  C  C301  1  0.10416000  0.19000000  0.61936000  1
  C  C302  1  0.10615000  0.24700000  0.05245000  1
  C  C303  1  0.11014000  0.80062000  0.25434000  1
  C  C304  1  0.11074000  0.26403000  0.23734000  1
  C  C305  1  0.11148000  0.84004000  0.27468000  1
  C  C306  1  0.11340000  0.22970000  0.53440000  1
  C  C307  1  0.11503000  0.36370000  0.50443000  1
  C  C308  1  0.12010000  0.19780000  0.58650000  1
  C  C309  1  0.12033000  0.35765000  0.22563000  1
  C  C310  1  0.12305000  0.25380000  0.08215000  1
  C  C311  1  0.12342000  0.31640000  0.48162000  1
  C  C312  1  0.12562000  0.24250000  0.43632000  1
  C  C313  1  0.12867000  0.31571000  0.24487000  1
  C  C314  1  0.13243000  0.80520000  0.10703000  1
  C  C315  1  0.13336000  0.01864000  0.33476000  1
  C  C316  1  0.13846000  0.62693000  0.32216000  1
  C  C317  1  0.14599000  0.80585000  0.22599000  1
  C  C318  1  0.14721000  0.29310000  0.42961000  1
  C  C319  1  0.14975000  0.32990000  0.45545000  1
  C  C320  1  0.15640000  0.51110000  0.13580000  1
  C  C321  1  0.16072000  0.32209000  0.27512000  1
  C  C322  1  0.17134000  0.13446000  0.12244000  1
  C  C323  1  0.17586000  0.30940000  0.40116000  1
  C  C324  1  0.18805000  0.04559000  0.34125000  1
  C  C325  1  0.18972000  0.59991000  0.33742000  1
  C  C326  1  0.19362000  0.54540000  0.33722000  1
  C  C327  1  0.19717000  0.10104000  0.33787000  1
  C  C328  1  0.20832000  0.59733000  0.14922000  1
  C  C329  1  0.21131000  0.54070000  0.14551000  1
  C  C330  1  0.21483000  0.79610000  0.40313000  1
  C  C331  1  0.21894000  0.85106000  0.40274000  1
  C  C332  1  0.22037000  0.10319000  0.13587000  1
  C  C333  1  0.22106000  0.04875000  0.13596000  1
  C  C334  1  0.22192000  0.71099000  0.37622000  1
  C  C335  1  0.22363000  0.76770000  0.37633000  1
  C  C336  1  0.22711000  0.87867000  0.37661000  1
  C  C337  1  0.22805000  0.93615000  0.37695000  1
  C  C338  1  0.23098000  0.79588000  0.34768000  1
  C  C339  1  0.23368000  0.62756000  0.35048000  1
  C  C340  1  0.23529000  0.85073000  0.34889000  1
  C  C341  1  0.23544000  0.01925000  0.34824000  1
  C  C342  1  0.23847000  0.46186000  0.35437000  1
  C  C343  1  0.23892000  0.52009000  0.35192000  1
  C  C344  1  0.24010000  0.76911000  0.32140000  1
  C  C345  1  0.24270000  0.87766000  0.32100000  1
  C  C346  1  0.24443000  0.93552000  0.32103000  1
  C  C347  1  0.24461000  0.71176000  0.32081000  1
  C  C348  1  0.24631000  0.12657000  0.34241000  1
  C  C349  1  0.24650000  0.79468000  0.29510000  1
  C  C350  1  0.24767000  0.68375000  0.16277000  1
  C  C351  1  0.24829000  0.85021000  0.29519000  1
  C  C352  1  0.25171000  0.35021000  0.20481000  1
  C  C353  1  0.25233000  0.18375000  0.33723000  1
  C  C354  1  0.25350000  0.29468000  0.20490000  1
  C  C355  1  0.25369000  0.62657000  0.15759000  1
  C  C356  1  0.25539000  0.21176000  0.17919000  1
  C  C357  1  0.25557000  0.43552000  0.17897000  1
  C  C358  1  0.25730000  0.37766000  0.17900000  1
  C  C359  1  0.25990000  0.26911000  0.17860000  1
  C  C360  1  0.26108000  0.02009000  0.14808000  1
  C  C361  1  0.26153000  0.96186000  0.14563000  1
  C  C362  1  0.26456000  0.51925000  0.15176000  1
  C  C363  1  0.26471000  0.35073000  0.15111000  1
  C  C364  1  0.26632000  0.12756000  0.14952000  1
  C  C365  1  0.26902000  0.29588000  0.15232000  1
  C  C366  1  0.27195000  0.43615000  0.12305000  1
  C  C367  1  0.27289000  0.37867000  0.12339000  1
  C  C368  1  0.27637000  0.26770000  0.12367000  1
  C  C369  1  0.27808000  0.21099000  0.12378000  1
  C  C370  1  0.27894000  0.54875000  0.36404000  1
  C  C371  1  0.27963000  0.60319000  0.36413000  1
  C  C372  1  0.28106000  0.35106000  0.09726000  1
  C  C373  1  0.28517000  0.29610000  0.09687000  1
  C  C374  1  0.28869000  0.04070000  0.35449000  1
  C  C375  1  0.29168000  0.09733000  0.35078000  1
  C  C376  1  0.30283000  0.60104000  0.16213000  1
  C  C377  1  0.30638000  0.04540000  0.16278000  1
  C  C378  1  0.31028000  0.09991000  0.16258000  1
  C  C379  1  0.31195000  0.54559000  0.15875000  1
  C  C380  1  0.32414000  0.80940000  0.09884000  1
  C  C381  1  0.32866000  0.63446000  0.37756000  1
  C  C382  1  0.33928000  0.82209000  0.22488000  1
  C  C383  1  0.34360000  0.01110000  0.36420000  1
  C  C384  1  0.35025000  0.82990000  0.04455000  1
  C  C385  1  0.35279000  0.79310000  0.07039000  1
  C  C386  1  0.35401000  0.30585000  0.27401000  1
  C  C387  1  0.36154000  0.12693000  0.17784000  1
  C  C388  1  0.36664000  0.51864000  0.16524000  1
  C  C389  1  0.36757000  0.30520000  0.39297000  1
  C  C390  1  0.37133000  0.81571000  0.25513000  1
  C  C391  1  0.37438000  0.74250000  0.06368000  1
  C  C392  1  0.37658000  0.81640000  0.01838000  1
  C  C393  1  0.37695000  0.75380000  0.41785000  1
  C  C394  1  0.37967000  0.85765000  0.27437000  1
  C  C395  1  0.37990000  0.69780000  0.91350000  1
  C  C396  1  0.38497000  0.86370000  0.99557000  1
  C  C397  1  0.38660000  0.72970000  0.96560000  1
  C  C398  1  0.38852000  0.34004000  0.22532000  1
  C  C399  1  0.38926000  0.76403000  0.26266000  1
  C  C400  1  0.38986000  0.30062000  0.24566000  1
  C  C401  1  0.39385000  0.74700000  0.44755000  1
  C  C402  1  0.39584000  0.69000000  0.88064000  1
  C  C403  1  0.39891000  0.77270000  0.36301000  1
  C  C404  1  0.40020000  0.76700000  0.01430000  1
  C  C405  1  0.40162000  0.84855000  0.30312000  1
  C  C406  1  0.40279000  0.73290000  0.03719000  1
  C  C407  1  0.40323000  0.29065000  0.42133000  1
  C  C408  1  0.40493000  0.32472000  0.44573000  1
  C  C409  1  0.41159000  0.19440000  0.57799000  1
  C  C410  1  0.41303000  0.75490000  0.29293000  1
  C  C411  1  0.41357000  0.89525000  0.32537000  1
  C  C412  1  0.41380000  0.72120000  0.93450000  1
  C  C413  1  0.41741000  0.76778000  0.39581000  1
  C  C414  1  0.41810000  0.79908000  0.31220000  1
  C  C415  1  0.41833000  0.37924000  0.17333000  1
  C  C416  1  0.41991000  0.33372000  0.19661000  1
  C  C417  1  0.42284000  0.25884000  0.24194000  1
  C  C418  1  0.42403000  0.23180000  0.08773000  1
  C  C419  1  0.42411000  0.69783000  0.30281000  1
  C  C420  1  0.42458000  0.24087000  0.42418000  1
  C  C421  1  0.43043000  0.19160000  0.61003000  1
  C  C422  1  0.43266000  0.21960000  0.52596000  1
  C  C423  1  0.43303000  0.67390000  0.03873000  1
  C  C424  1  0.43396000  0.31280000  0.47266000  1
  C  C425  1  0.43793000  0.35230000  0.49723000  1
  C  C426  1  0.43941000  0.25850000  0.14091000  1
  C  C427  1  0.44319000  0.22610000  0.05739000  1
  C  C428  1  0.44855000  0.28892000  0.19275000  1
  C  C429  1  0.44903000  0.75490000  0.45493000  1
  C  C430  1  0.44967000  0.70740000  0.87457000  1
  C  C431  1  0.45053000  0.21560000  0.55803000  1
  C  C432  1  0.45102000  0.26300000  0.47562000  1
  C  C433  1  0.45300000  0.22480000  0.45230000  1
  C  C434  1  0.45552000  0.24960000  0.21382000  1
  C  C435  1  0.45902000  0.25360000  0.10932000  1
  C  C436  1  0.46493000  0.73520000  0.92593000  1
  C  C437  1  0.47034000  0.74770000  0.48784000  1
  C  C438  1  0.47222000  0.69940000  0.84242000  1
  C  C439  1  0.47402000  0.78050000  0.40362000  1
  C  C440  1  0.47459000  0.16810000  0.45429000  1
  C  C441  1  0.47988000  0.76670000  0.97968000  1
  C  C442  1  0.48551000  0.20520000  0.61771000  1
  C  C443  1  0.48564000  0.72860000  0.89684000  1
  C  C444  1  0.48679000  0.19960000  0.20849000  1
  C  C445  1  0.49260000  0.77340000  0.43450000  1
  C  C446  1  0.49425000  0.80050000  0.34905000  1
  C  C447  1  0.49632000  0.24170000  0.05082000  1
  C  C448  1  0.50368000  0.75830000  0.94918000  1
  C  C449  1  0.50575000  0.19950000  0.65095000  1
  C  C450  1  0.50740000  0.22660000  0.56550000  1
  C  C451  1  0.51321000  0.80040000  0.79151000  1
  C  C452  1  0.51436000  0.27140000  0.10316000  1
  C  C453  1  0.51449000  0.79480000  0.38229000  1
  C  C454  1  0.52012000  0.23330000  0.02032000  1
  C  C455  1  0.52541000  0.83190000  0.54571000  1
  C  C456  1  0.52598000  0.21950000  0.59638000  1
  C  C457  1  0.52778000  0.30060000  0.15758000  1
  C  C458  1  0.52966000  0.25230000  0.51216000  1
  C  C459  1  0.53507000  0.26480000  0.07407000  1
  C  C460  1  0.54098000  0.74640000  0.89068000  1
  C  C461  1  0.54448000  0.75040000  0.78618000  1
  C  C462  1  0.54700000  0.77520000  0.54770000  1
  C  C463  1  0.54898000  0.73700000  0.52438000  1
  C  C464  1  0.54947000  0.78440000  0.44197000  1
  C  C465  1  0.55033000  0.29260000  0.12543000  1
  C  C466  1  0.55097000  0.24510000  0.54507000  1
  C  C467  1  0.55145000  0.71108000  0.80725000  1
  C  C468  1  0.55681000  0.77390000  0.94261000  1
  C  C469  1  0.56059000  0.74150000  0.85909000  1
  C  C470  1  0.56207000  0.64770000  0.50277000  1
  C  C471  1  0.56604000  0.68720000  0.52734000  1
  C  C472  1  0.56697000  0.32610000  0.96127000  1
  C  C473  1  0.56734000  0.78040000  0.47404000  1
  C  C474  1  0.56957000  0.80840000  0.38997000  1
  C  C475  1  0.57542000  0.75913000  0.57582000  1
  C  C476  1  0.57589000  0.30217000  0.69719000  1
  C  C477  1  0.57597000  0.76820000  0.91227000  1
  C  C478  1  0.57716000  0.74116000  0.75806000  1
  C  C479  1  0.58009000  0.66628000  0.80339000  1
  C  C480  1  0.58167000  0.62076000  0.82667000  1
  C  C481  1  0.58190000  0.20092000  0.68780000  1
  C  C482  1  0.58259000  0.23222000  0.60419000  1
  C  C483  1  0.58620000  0.27880000  0.06550000  1
  C  C484  1  0.58643000  0.10475000  0.67463000  1
  C  C485  1  0.58697000  0.24510000  0.70707000  1
  C  C486  1  0.58841000  0.80560000  0.42201000  1
  C  C487  1  0.59507000  0.67528000  0.55427000  1
  C  C488  1  0.59677000  0.70935000  0.57867000  1
  C  C489  1  0.59721000  0.26710000  0.96281000  1
  C  C490  1  0.59838000  0.15145000  0.69688000  1
  C  C491  1  0.59980000  0.23300000  0.98570000  1
  C  C492  1  0.60109000  0.22730000  0.63699000  1
  C  C493  1  0.60416000  0.31000000  0.11936000  1
  C  C494  1  0.60615000  0.25300000  0.55245000  1
  C  C495  1  0.61014000  0.69938000  0.75434000  1
  C  C496  1  0.61074000  0.23597000  0.73734000  1
  C  C497  1  0.61148000  0.65996000  0.77468000  1
  C  C498  1  0.61340000  0.27030000  0.03440000  1
  C  C499  1  0.61503000  0.13630000  0.00443000  1
  C  C500  1  0.62010000  0.30220000  0.08650000  1
  C  C501  1  0.62033000  0.14235000  0.72563000  1
  C  C502  1  0.62305000  0.24620000  0.58215000  1
  C  C503  1  0.62342000  0.18360000  0.98162000  1
  C  C504  1  0.62562000  0.25750000  0.93632000  1
  C  C505  1  0.62867000  0.18429000  0.74487000  1
  C  C506  1  0.63243000  0.69480000  0.60703000  1
  C  C507  1  0.63336000  0.48136000  0.83476000  1
  C  C508  1  0.63846000  0.87307000  0.82216000  1
  C  C509  1  0.64599000  0.69415000  0.72599000  1
  C  C510  1  0.64721000  0.20690000  0.92961000  1
  C  C511  1  0.64975000  0.17010000  0.95545000  1
  C  C512  1  0.65640000  0.98890000  0.63580000  1
  C  C513  1  0.66072000  0.17791000  0.77512000  1
  C  C514  1  0.67134000  0.36554000  0.62244000  1
  C  C515  1  0.67586000  0.19060000  0.90116000  1
  C  C516  1  0.68805000  0.45441000  0.84125000  1
  C  C517  1  0.68972000  0.90009000  0.83742000  1
  C  C518  1  0.69362000  0.95460000  0.83722000  1
  C  C519  1  0.69717000  0.39896000  0.83787000  1
  C  C520  1  0.70832000  0.90267000  0.64922000  1
  C  C521  1  0.71131000  0.95930000  0.64551000  1
  C  C522  1  0.71483000  0.70390000  0.90313000  1
  C  C523  1  0.71894000  0.64894000  0.90274000  1
  C  C524  1  0.72037000  0.39681000  0.63587000  1
  C  C525  1  0.72106000  0.45125000  0.63596000  1
  C  C526  1  0.72192000  0.78901000  0.87622000  1
  C  C527  1  0.72363000  0.73230000  0.87633000  1
  C  C528  1  0.72711000  0.62133000  0.87661000  1
  C  C529  1  0.72805000  0.56385000  0.87695000  1
  C  C530  1  0.73098000  0.70412000  0.84768000  1
  C  C531  1  0.73368000  0.87244000  0.85048000  1
  C  C532  1  0.73529000  0.64927000  0.84889000  1
  C  C533  1  0.73544000  0.48075000  0.84824000  1
  C  C534  1  0.73847000  0.03814000  0.85437000  1
  C  C535  1  0.73892000  0.97991000  0.85192000  1
  C  C536  1  0.74010000  0.73089000  0.82140000  1
  C  C537  1  0.74270000  0.62234000  0.82100000  1
  C  C538  1  0.74443000  0.56448000  0.82103000  1
  C  C539  1  0.74461000  0.78824000  0.82081000  1
  C  C540  1  0.74631000  0.37343000  0.84241000  1
  C  C541  1  0.74650000  0.70532000  0.79510000  1
  C  C542  1  0.74767000  0.81625000  0.66277000  1
  C  C543  1  0.74829000  0.64979000  0.79519000  1
  C  C544  1  0.75171000  0.14979000  0.70481000  1
  C  C545  1  0.75233000  0.31625000  0.83723000  1
  C  C546  1  0.75350000  0.20532000  0.70490000  1
  C  C547  1  0.75369000  0.87343000  0.65759000  1
  C  C548  1  0.75539000  0.28824000  0.67919000  1
  C  C549  1  0.75557000  0.06448000  0.67897000  1
  C  C550  1  0.75730000  0.12234000  0.67900000  1
  C  C551  1  0.75990000  0.23089000  0.67860000  1
  C  C552  1  0.76108000  0.47991000  0.64808000  1
  C  C553  1  0.76153000  0.53814000  0.64563000  1
  C  C554  1  0.76456000  0.98075000  0.65176000  1
  C  C555  1  0.76471000  0.14927000  0.65111000  1
  C  C556  1  0.76632000  0.37244000  0.64952000  1
  C  C557  1  0.76902000  0.20412000  0.65232000  1
  C  C558  1  0.77195000  0.06385000  0.62305000  1
  C  C559  1  0.77289000  0.12133000  0.62339000  1
  C  C560  1  0.77637000  0.23230000  0.62367000  1
  C  C561  1  0.77808000  0.28901000  0.62378000  1
  C  C562  1  0.77894000  0.95125000  0.86404000  1
  C  C563  1  0.77963000  0.89681000  0.86413000  1
  C  C564  1  0.78106000  0.14894000  0.59726000  1
  C  C565  1  0.78517000  0.20390000  0.59687000  1
  C  C566  1  0.78869000  0.45930000  0.85449000  1
  C  C567  1  0.79168000  0.40267000  0.85078000  1
  C  C568  1  0.80283000  0.89896000  0.66213000  1
  C  C569  1  0.80638000  0.45460000  0.66278000  1
  C  C570  1  0.81028000  0.40009000  0.66258000  1
  C  C571  1  0.81195000  0.95441000  0.65875000  1
  C  C572  1  0.82414000  0.69060000  0.59884000  1
  C  C573  1  0.82866000  0.86554000  0.87756000  1
  C  C574  1  0.83928000  0.67791000  0.72488000  1
  C  C575  1  0.84360000  0.48890000  0.86420000  1
  C  C576  1  0.85025000  0.67010000  0.54455000  1
  C  C577  1  0.85279000  0.70690000  0.57039000  1
  C  C578  1  0.85401000  0.19415000  0.77401000  1
  C  C579  1  0.86154000  0.37307000  0.67784000  1
  C  C580  1  0.86664000  0.98136000  0.66524000  1
  C  C581  1  0.86757000  0.19480000  0.89297000  1
  C  C582  1  0.87133000  0.68429000  0.75513000  1
  C  C583  1  0.87438000  0.75750000  0.56368000  1
  C  C584  1  0.87658000  0.68360000  0.51838000  1
  C  C585  1  0.87695000  0.74620000  0.91785000  1
  C  C586  1  0.87967000  0.64235000  0.77437000  1
  C  C587  1  0.87990000  0.80220000  0.41350000  1
  C  C588  1  0.88497000  0.63630000  0.49557000  1
  C  C589  1  0.88660000  0.77030000  0.46560000  1
  C  C590  1  0.88852000  0.15996000  0.72532000  1
  C  C591  1  0.88926000  0.73597000  0.76266000  1
  C  C592  1  0.88986000  0.19938000  0.74566000  1
  C  C593  1  0.89385000  0.75300000  0.94755000  1
  C  C594  1  0.89584000  0.81000000  0.38064000  1
  C  C595  1  0.89891000  0.72730000  0.86301000  1
  C  C596  1  0.90020000  0.73300000  0.51430000  1
  C  C597  1  0.90162000  0.65145000  0.80312000  1
  C  C598  1  0.90279000  0.76710000  0.53719000  1
  C  C599  1  0.90323000  0.20935000  0.92133000  1
  C  C600  1  0.90493000  0.17528000  0.94573000  1
  C  C601  1  0.91159000  0.30560000  0.07799000  1
  C  C602  1  0.91303000  0.74510000  0.79293000  1
  C  C603  1  0.91357000  0.60475000  0.82537000  1
  C  C604  1  0.91380000  0.77880000  0.43450000  1
  C  C605  1  0.91741000  0.73222000  0.89581000  1
  C  C606  1  0.91810000  0.70092000  0.81220000  1
  C  C607  1  0.91833000  0.12076000  0.67333000  1
  C  C608  1  0.91991000  0.16628000  0.69661000  1
  C  C609  1  0.92284000  0.24116000  0.74194000  1
  C  C610  1  0.92403000  0.26820000  0.58773000  1
  C  C611  1  0.92411000  0.80217000  0.80281000  1
  C  C612  1  0.92458000  0.25913000  0.92418000  1
  C  C613  1  0.93043000  0.30840000  0.11003000  1
  C  C614  1  0.93266000  0.28040000  0.02596000  1
  C  C615  1  0.93303000  0.82610000  0.53873000  1
  C  C616  1  0.93396000  0.18720000  0.97266000  1
  C  C617  1  0.93793000  0.14770000  0.99723000  1
  C  C618  1  0.93941000  0.24150000  0.64091000  1
  C  C619  1  0.94319000  0.27390000  0.55739000  1
  C  C620  1  0.94855000  0.21108000  0.69275000  1
  C  C621  1  0.94903000  0.74510000  0.95493000  1
  C  C622  1  0.94967000  0.79260000  0.37457000  1
  C  C623  1  0.95053000  0.28440000  0.05803000  1
  C  C624  1  0.95102000  0.23700000  0.97562000  1
  C  C625  1  0.95300000  0.27520000  0.95230000  1
  C  C626  1  0.95552000  0.25040000  0.71382000  1
  C  C627  1  0.95902000  0.24640000  0.60932000  1
  C  C628  1  0.96493000  0.76480000  0.42593000  1
  C  C629  1  0.97034000  0.75230000  0.98784000  1
  C  C630  1  0.97222000  0.80060000  0.34242000  1
  C  C631  1  0.97402000  0.71950000  0.90362000  1
  C  C632  1  0.97459000  0.33190000  0.95429000  1
  C  C633  1  0.97988000  0.73330000  0.47968000  1
  C  C634  1  0.98551000  0.29480000  0.11771000  1
  C  C635  1  0.98564000  0.77140000  0.39684000  1
  C  C636  1  0.98679000  0.30040000  0.70849000  1
  C  C637  1  0.99260000  0.72660000  0.93450000  1
  C  C638  1  0.99425000  0.69950000  0.84905000  1
  C  C639  1  0.99632000  0.25830000  0.55082000  1
  N  N640  1  0.02473000  0.78061000  0.33733000  1
  N  N641  1  0.02764000  0.74244000  0.99474000  1
  N  N642  1  0.06190000  0.29030000  0.15730000  1
  N  N643  1  0.07486000  0.25210000  0.51446000  1
  N  N644  1  0.23150000  0.68513000  0.34922000  1
  N  N645  1  0.23487000  0.96158000  0.34867000  1
  N  N646  1  0.26513000  0.46158000  0.15133000  1
  N  N647  1  0.26850000  0.18513000  0.15078000  1
  N  N648  1  0.42514000  0.75210000  0.98554000  1
  N  N649  1  0.43810000  0.79030000  0.34270000  1
  N  N650  1  0.47236000  0.24244000  0.50526000  1
  N  N651  1  0.47527000  0.28061000  0.16267000  1
  N  N652  1  0.52473000  0.71939000  0.83733000  1
  N  N653  1  0.52764000  0.75756000  0.49474000  1
  N  N654  1  0.56190000  0.20970000  0.65730000  1
  N  N655  1  0.57486000  0.24790000  0.01446000  1
  N  N656  1  0.73150000  0.81487000  0.84922000  1
  N  N657  1  0.73487000  0.53842000  0.84867000  1
  N  N658  1  0.76513000  0.03842000  0.65133000  1
  N  N659  1  0.76850000  0.31487000  0.65078000  1
  N  N660  1  0.92514000  0.74790000  0.48554000  1
  N  N661  1  0.93810000  0.70970000  0.84270000  1
  N  N662  1  0.97236000  0.25756000  0.00526000  1
  N  N663  1  0.97527000  0.21939000  0.66267000  1
  O  O664  1  0.01110000  0.71580000  0.50040000  1
  O  O665  1  0.02871000  0.68621000  0.83021000  1
  O  O666  1  0.05724000  0.17940000  0.67604000  1
  O  O667  1  0.06365000  0.23121000  0.99225000  1
  O  O668  1  0.10983000  0.74262000  0.35133000  1
  O  O669  1  0.11356000  0.71560000  0.98256000  1
  O  O670  1  0.12670000  0.77747000  0.12985000  1
  O  O671  1  0.13031000  0.77875000  0.20216000  1
  O  O672  1  0.14982000  0.26186000  0.14452000  1
  O  O673  1  0.15285000  0.28638000  0.29513000  1
  O  O674  1  0.16342000  0.27939000  0.37709000  1
  O  O675  1  0.16401000  0.21900000  0.52821000  1
  O  O676  1  0.16549000  0.84547000  0.10439000  1
  O  O677  1  0.18746000  0.83752000  0.22694000  1
  O  O678  1  0.18899000  0.36413000  0.27848000  1
  O  O679  1  0.19867000  0.70471000  0.16247000  1
  O  O680  1  0.20534000  0.20854000  0.33406000  1
  O  O681  1  0.20728000  0.34840000  0.40052000  1
  O  O682  1  0.21061000  0.68467000  0.39913000  1
  O  O683  1  0.21257000  0.43572000  0.33308000  1
  O  O684  1  0.21679000  0.96277000  0.39929000  1
  O  O685  1  0.23215000  0.94085000  0.12552000  1
  O  O686  1  0.24131000  0.82393000  0.16416000  1
  O  O687  1  0.24396000  0.46106000  0.20232000  1
  O  O688  1  0.24450000  0.18521000  0.20144000  1
  O  O689  1  0.25550000  0.68521000  0.29856000  1
  O  O690  1  0.25604000  0.96106000  0.29768000  1
  O  O691  1  0.25869000  0.32393000  0.33584000  1
  O  O692  1  0.26785000  0.44085000  0.37448000  1
  O  O693  1  0.28321000  0.46277000  0.10071000  1
  O  O694  1  0.28743000  0.93572000  0.16692000  1
  O  O695  1  0.28939000  0.18467000  0.10087000  1
  O  O696  1  0.29272000  0.84840000  0.09948000  1
  O  O697  1  0.29466000  0.70854000  0.16594000  1
  O  O698  1  0.30133000  0.20471000  0.33753000  1
  O  O699  1  0.31101000  0.86413000  0.22152000  1
  O  O700  1  0.31254000  0.33752000  0.27306000  1
  O  O701  1  0.33451000  0.34547000  0.39561000  1
  O  O702  1  0.33599000  0.71900000  0.97179000  1
  O  O703  1  0.33658000  0.77939000  0.12291000  1
  O  O704  1  0.34715000  0.78638000  0.20487000  1
  O  O705  1  0.35018000  0.76186000  0.35548000  1
  O  O706  1  0.36969000  0.27875000  0.29784000  1
  O  O707  1  0.37330000  0.27747000  0.37015000  1
  O  O708  1  0.38644000  0.21560000  0.51744000  1
  O  O709  1  0.39017000  0.24262000  0.14867000  1
  O  O710  1  0.43635000  0.73121000  0.50775000  1
  O  O711  1  0.44276000  0.67940000  0.82396000  1
  O  O712  1  0.47129000  0.18621000  0.66979000  1
  O  O713  1  0.48890000  0.21580000  0.99960000  1
  O  O714  1  0.51110000  0.78420000  0.00040000  1
  O  O715  1  0.52871000  0.81379000  0.33021000  1
  O  O716  1  0.55724000  0.32060000  0.17604000  1
  O  O717  1  0.56365000  0.26879000  0.49225000  1
  O  O718  1  0.60983000  0.75738000  0.85133000  1
  O  O719  1  0.61356000  0.78440000  0.48256000  1
  O  O720  1  0.62670000  0.72253000  0.62985000  1
  O  O721  1  0.63031000  0.72125000  0.70216000  1
  O  O722  1  0.64982000  0.23814000  0.64452000  1
  O  O723  1  0.65285000  0.21362000  0.79513000  1
  O  O724  1  0.66342000  0.22061000  0.87709000  1
  O  O725  1  0.66401000  0.28100000  0.02821000  1
  O  O726  1  0.66549000  0.65453000  0.60439000  1
  O  O727  1  0.68746000  0.66248000  0.72694000  1
  O  O728  1  0.68899000  0.13587000  0.77848000  1
  O  O729  1  0.69867000  0.79529000  0.66247000  1
  O  O730  1  0.70534000  0.29146000  0.83406000  1
  O  O731  1  0.70728000  0.15160000  0.90052000  1
  O  O732  1  0.71061000  0.81533000  0.89913000  1
  O  O733  1  0.71257000  0.06428000  0.83308000  1
  O  O734  1  0.71679000  0.53723000  0.89929000  1
  O  O735  1  0.73215000  0.55915000  0.62552000  1
  O  O736  1  0.74131000  0.67607000  0.66416000  1
  O  O737  1  0.74396000  0.03894000  0.70232000  1
  O  O738  1  0.74450000  0.31479000  0.70144000  1
  O  O739  1  0.75550000  0.81479000  0.79856000  1
  O  O740  1  0.75604000  0.53894000  0.79768000  1
  O  O741  1  0.75869000  0.17607000  0.83584000  1
  O  O742  1  0.76785000  0.05915000  0.87448000  1
  O  O743  1  0.78321000  0.03723000  0.60071000  1
  O  O744  1  0.78743000  0.56428000  0.66692000  1
  O  O745  1  0.78939000  0.31533000  0.60087000  1
  O  O746  1  0.79272000  0.65160000  0.59948000  1
  O  O747  1  0.79466000  0.79146000  0.66594000  1
  O  O748  1  0.80133000  0.29529000  0.83753000  1
  O  O749  1  0.81101000  0.63587000  0.72152000  1
  O  O750  1  0.81254000  0.16248000  0.77306000  1
  O  O751  1  0.83451000  0.15453000  0.89561000  1
  O  O752  1  0.83599000  0.78100000  0.47179000  1
  O  O753  1  0.83658000  0.72061000  0.62291000  1
  O  O754  1  0.84715000  0.71362000  0.70487000  1
  O  O755  1  0.85018000  0.73814000  0.85548000  1
  O  O756  1  0.86969000  0.22125000  0.79784000  1
  O  O757  1  0.87330000  0.22253000  0.87015000  1
  O  O758  1  0.88644000  0.28440000  0.01744000  1
  O  O759  1  0.89017000  0.25738000  0.64867000  1
  O  O760  1  0.93635000  0.76879000  0.00775000  1
  O  O761  1  0.94276000  0.82060000  0.32396000  1
  O  O762  1  0.97129000  0.31379000  0.16979000  1
  O  O763  1  0.98890000  0.28420000  0.49960000  1
