# generated using pymatgen
data_Zn2H4C13O8
_symmetry_space_group_name_H-M   'P 1'
_cell_length_a   12.02400000
_cell_length_b   13.77300000
_cell_length_c   15.85000000
_cell_angle_alpha   90.00000000
_cell_angle_beta   99.09300000
_cell_angle_gamma   90.00000000
_symmetry_Int_Tables_number   1
_chemical_formula_structural   Zn2H4C13O8
_chemical_formula_sum   'Zn8 H16 C52 O32'
_cell_volume   2591.87750553
_cell_formula_units_Z   4
loop_
 _symmetry_equiv_pos_site_id
 _symmetry_equiv_pos_as_xyz
  1  'x, y, z'
loop_
 _atom_site_type_symbol
 _atom_site_label
 _atom_site_symmetry_multiplicity
 _atom_site_fract_x
 _atom_site_fract_y
 _atom_site_fract_z
 _atom_site_occupancy
  Zn  Zn0  1  0.25255000  0.10472000  0.24010000  1
  Zn  Zn1  1  0.25255000  0.39528000  0.74010000  1
  Zn  Zn2  1  0.37139000  0.21356000  0.43228000  1
  Zn  Zn3  1  0.37139000  0.28644000  0.93228000  1
  Zn  Zn4  1  0.62861000  0.71356000  0.06772000  1
  Zn  Zn5  1  0.62861000  0.78644000  0.56772000  1
  Zn  Zn6  1  0.74745000  0.60472000  0.25990000  1
  Zn  Zn7  1  0.74745000  0.89528000  0.75990000  1
  H  H8  1  0.03250000  0.52700000  0.14620000  1
  H  H9  1  0.03250000  0.97300000  0.64620000  1
  H  H10  1  0.16460000  0.13610000  0.68220000  1
  H  H11  1  0.16460000  0.36390000  0.18220000  1
  H  H12  1  0.30550000  0.55960000  0.04050000  1
  H  H13  1  0.30550000  0.94040000  0.54050000  1
  H  H14  1  0.49150000  0.06050000  0.75140000  1
  H  H15  1  0.49150000  0.43950000  0.25140000  1
  H  H16  1  0.50850000  0.56050000  0.74860000  1
  H  H17  1  0.50850000  0.93950000  0.24860000  1
  H  H18  1  0.69450000  0.05960000  0.45950000  1
  H  H19  1  0.69450000  0.44040000  0.95950000  1
  H  H20  1  0.83540000  0.63610000  0.81780000  1
  H  H21  1  0.83540000  0.86390000  0.31780000  1
  H  H22  1  0.96750000  0.02700000  0.35380000  1
  H  H23  1  0.96750000  0.47300000  0.85380000  1
  C  C24  1  0.01950000  0.51600000  0.08625000  1
  C  C25  1  0.01950000  0.98400000  0.58625000  1
  C  C26  1  0.08570000  0.03800000  0.45952000  1
  C  C27  1  0.08570000  0.46200000  0.95952000  1
  C  C28  1  0.10660000  0.02150000  0.54780000  1
  C  C29  1  0.10660000  0.47850000  0.04780000  1
  C  C30  1  0.16990000  0.08530000  0.41208000  1
  C  C31  1  0.16990000  0.41470000  0.91208000  1
  C  C32  1  0.21840000  0.03660000  0.60284000  1
  C  C33  1  0.21840000  0.46340000  0.10284000  1
  C  C34  1  0.22820000  0.09990000  0.67170000  1
  C  C35  1  0.22820000  0.40010000  0.17170000  1
  C  C36  1  0.31150000  0.51700000  0.08819000  1
  C  C37  1  0.31150000  0.98300000  0.58819000  1
  C  C38  1  0.33010000  0.11060000  0.72512000  1
  C  C39  1  0.33010000  0.38940000  0.22512000  1
  C  C40  1  0.33333333  0.19530000  0.08974000  1
  C  C41  1  0.33333333  0.30470000  0.58974000  1
  C  C42  1  0.33980000  0.18030000  0.79730000  1
  C  C43  1  0.33980000  0.31970000  0.29730000  1
  C  C44  1  0.41440000  0.50830000  0.14346000  1
  C  C45  1  0.41440000  0.99170000  0.64346000  1
  C  C46  1  0.42280000  0.05520000  0.71283000  1
  C  C47  1  0.42280000  0.44480000  0.21283000  1
  C  C48  1  0.48740000  0.06930000  0.36884000  1
  C  C49  1  0.48740000  0.43070000  0.86884000  1
  C  C50  1  0.51260000  0.56930000  0.13116000  1
  C  C51  1  0.51260000  0.93070000  0.63116000  1
  C  C52  1  0.57720000  0.55520000  0.78717000  1
  C  C53  1  0.57720000  0.94480000  0.28717000  1
  C  C54  1  0.58560000  0.00830000  0.35654000  1
  C  C55  1  0.58560000  0.49170000  0.85654000  1
  C  C56  1  0.66020000  0.68030000  0.70270000  1
  C  C57  1  0.66020000  0.81970000  0.20270000  1
  C  C58  1  0.66666667  0.69530000  0.41026000  1
  C  C59  1  0.66666667  0.80470000  0.91026000  1
  C  C60  1  0.66990000  0.61060000  0.77488000  1
  C  C61  1  0.66990000  0.88940000  0.27488000  1
  C  C62  1  0.68850000  0.01700000  0.41181000  1
  C  C63  1  0.68850000  0.48300000  0.91181000  1
  C  C64  1  0.77180000  0.59990000  0.82830000  1
  C  C65  1  0.77180000  0.90010000  0.32830000  1
  C  C66  1  0.78160000  0.53660000  0.89716000  1
  C  C67  1  0.78160000  0.96340000  0.39716000  1
  C  C68  1  0.83010000  0.58530000  0.08792000  1
  C  C69  1  0.83010000  0.91470000  0.58792000  1
  C  C70  1  0.89340000  0.52150000  0.95220000  1
  C  C71  1  0.89340000  0.97850000  0.45220000  1
  C  C72  1  0.91430000  0.53800000  0.04048000  1
  C  C73  1  0.91430000  0.96200000  0.54048000  1
  C  C74  1  0.98050000  0.01600000  0.41375000  1
  C  C75  1  0.98050000  0.48400000  0.91375000  1
  O  O76  1  0.16102000  0.06893000  0.33394000  1
  O  O77  1  0.16102000  0.43107000  0.83394000  1
  O  O78  1  0.23963000  0.14198000  0.45630000  1
  O  O79  1  0.23963000  0.35802000  0.95630000  1
  O  O80  1  0.27110000  0.24790000  0.79752000  1
  O  O81  1  0.27110000  0.25210000  0.29752000  1
  O  O82  1  0.35540000  0.13990000  0.15299000  1
  O  O83  1  0.35540000  0.36010000  0.65299000  1
  O  O84  1  0.39852000  0.05820000  0.31854000  1
  O  O85  1  0.39852000  0.44180000  0.81854000  1
  O  O86  1  0.40170000  0.20897000  0.03841000  1
  O  O87  1  0.40170000  0.29103000  0.53841000  1
  O  O88  1  0.41960000  0.17040000  0.85939000  1
  O  O89  1  0.41960000  0.32960000  0.35939000  1
  O  O90  1  0.49961000  0.62851000  0.06943000  1
  O  O91  1  0.49961000  0.87149000  0.56943000  1
  O  O92  1  0.50039000  0.12851000  0.43057000  1
  O  O93  1  0.50039000  0.37149000  0.93057000  1
  O  O94  1  0.58040000  0.67040000  0.64061000  1
  O  O95  1  0.58040000  0.82960000  0.14061000  1
  O  O96  1  0.59830000  0.70897000  0.46159000  1
  O  O97  1  0.59830000  0.79103000  0.96159000  1
  O  O98  1  0.60148000  0.55820000  0.18146000  1
  O  O99  1  0.60148000  0.94180000  0.68146000  1
  O  O100  1  0.64460000  0.63990000  0.34701000  1
  O  O101  1  0.64460000  0.86010000  0.84701000  1
  O  O102  1  0.72890000  0.74790000  0.70248000  1
  O  O103  1  0.72890000  0.75210000  0.20248000  1
  O  O104  1  0.76037000  0.64198000  0.04370000  1
  O  O105  1  0.76037000  0.85802000  0.54370000  1
  O  O106  1  0.83898000  0.56893000  0.16606000  1
  O  O107  1  0.83898000  0.93107000  0.66606000  1
