# generated using pymatgen
data_YPH7C5NO7
_symmetry_space_group_name_H-M   'P 1'
_cell_length_a   8.91080000
_cell_length_b   9.02230000
_cell_length_c   15.68370000
_cell_angle_alpha   90.00000000
_cell_angle_beta   90.00000000
_cell_angle_gamma   90.00000000
_symmetry_Int_Tables_number   1
_chemical_formula_structural   YPH7C5NO7
_chemical_formula_sum   'Y4 P4 H28 C20 N4 O28'
_cell_volume   1260.90534684
_cell_formula_units_Z   4
loop_
 _symmetry_equiv_pos_site_id
 _symmetry_equiv_pos_as_xyz
  1  'x, y, z'
loop_
 _atom_site_type_symbol
 _atom_site_label
 _atom_site_symmetry_multiplicity
 _atom_site_fract_x
 _atom_site_fract_y
 _atom_site_fract_z
 _atom_site_occupancy
  Y  Y0  1  0.10927000  0.53133000  0.60391000  1
  Y  Y1  1  0.39073000  0.03133000  0.39609000  1
  Y  Y2  1  0.60927000  0.46867000  0.89609000  1
  Y  Y3  1  0.89073000  0.96867000  0.10391000  1
  P  P4  1  0.06799000  0.12751000  0.29399000  1
  P  P5  1  0.43201000  0.62751000  0.70601000  1
  P  P6  1  0.56799000  0.87249000  0.20601000  1
  P  P7  1  0.93201000  0.37249000  0.79399000  1
  H  H8  1  0.01190000  0.70570000  0.80280000  1
  H  H9  1  0.01930000  0.87650000  0.78370000  1
  H  H10  1  0.09610000  0.23080000  0.82240000  1
  H  H11  1  0.10860000  0.95990000  0.66540000  1
  H  H12  1  0.17750000  0.30000000  0.20320000  1
  H  H13  1  0.22120000  0.44070000  0.31280000  1
  H  H14  1  0.24760000  0.64410000  0.81040000  1
  H  H15  1  0.25240000  0.14410000  0.18960000  1
  H  H16  1  0.27880000  0.94070000  0.68720000  1
  H  H17  1  0.32250000  0.80000000  0.79680000  1
  H  H18  1  0.39140000  0.45990000  0.33460000  1
  H  H19  1  0.40390000  0.73080000  0.17760000  1
  H  H20  1  0.48070000  0.37650000  0.21630000  1
  H  H21  1  0.48810000  0.20570000  0.19720000  1
  H  H22  1  0.51190000  0.29430000  0.69720000  1
  H  H23  1  0.51930000  0.12350000  0.71630000  1
  H  H24  1  0.59610000  0.76920000  0.67760000  1
  H  H25  1  0.60860000  0.04010000  0.83460000  1
  H  H26  1  0.67750000  0.70000000  0.29680000  1
  H  H27  1  0.72120000  0.55930000  0.18720000  1
  H  H28  1  0.74760000  0.35590000  0.68960000  1
  H  H29  1  0.75240000  0.85590000  0.31040000  1
  H  H30  1  0.77880000  0.05930000  0.81280000  1
  H  H31  1  0.82250000  0.20000000  0.70320000  1
  H  H32  1  0.89140000  0.54010000  0.16540000  1
  H  H33  1  0.90390000  0.26920000  0.32240000  1
  H  H34  1  0.98070000  0.62350000  0.28370000  1
  H  H35  1  0.98810000  0.79430000  0.30280000  1
  C  C36  1  0.01920000  0.77890000  0.75770000  1
  C  C37  1  0.11500000  0.73560000  0.19780000  1
  C  C38  1  0.19310000  0.89250000  0.66100000  1
  C  C39  1  0.21620000  0.21320000  0.23230000  1
  C  C40  1  0.22670000  0.86870000  0.56950000  1
  C  C41  1  0.27330000  0.36870000  0.43050000  1
  C  C42  1  0.28380000  0.71320000  0.76770000  1
  C  C43  1  0.30690000  0.39250000  0.33900000  1
  C  C44  1  0.38500000  0.23560000  0.80220000  1
  C  C45  1  0.48080000  0.27890000  0.24230000  1
  C  C46  1  0.51920000  0.22110000  0.74230000  1
  C  C47  1  0.61500000  0.26440000  0.30220000  1
  C  C48  1  0.69310000  0.10750000  0.83900000  1
  C  C49  1  0.71620000  0.78680000  0.26770000  1
  C  C50  1  0.72670000  0.13130000  0.93050000  1
  C  C51  1  0.77330000  0.63130000  0.06950000  1
  C  C52  1  0.78380000  0.28680000  0.73230000  1
  C  C53  1  0.80690000  0.60750000  0.16100000  1
  C  C54  1  0.88500000  0.76440000  0.69780000  1
  C  C55  1  0.98080000  0.72110000  0.25770000  1
  N  N56  1  0.15790000  0.75700000  0.71020000  1
  N  N57  1  0.34210000  0.25700000  0.28980000  1
  N  N58  1  0.65790000  0.24300000  0.78980000  1
  N  N59  1  0.84210000  0.74300000  0.21020000  1
  O  O60  1  0.01680000  0.25100000  0.84630000  1
  O  O61  1  0.03510000  0.44900000  0.73265000  1
  O  O62  1  0.09920000  0.81210000  0.12982000  1
  O  O63  1  0.14580000  0.02570000  0.35531000  1
  O  O64  1  0.18630000  0.74490000  0.53479000  1
  O  O65  1  0.20800000  0.46840000  0.47071000  1
  O  O66  1  0.23940000  0.68350000  0.22360000  1
  O  O67  1  0.26060000  0.18350000  0.77640000  1
  O  O68  1  0.29200000  0.96840000  0.52929000  1
  O  O69  1  0.31370000  0.24490000  0.46521000  1
  O  O70  1  0.35420000  0.52570000  0.64469000  1
  O  O71  1  0.40080000  0.31210000  0.87018000  1
  O  O72  1  0.46490000  0.94900000  0.26735000  1
  O  O73  1  0.48320000  0.75100000  0.15370000  1
  O  O74  1  0.51680000  0.74900000  0.65370000  1
  O  O75  1  0.53510000  0.55100000  0.76735000  1
  O  O76  1  0.59920000  0.18790000  0.37018000  1
  O  O77  1  0.64580000  0.97430000  0.14469000  1
  O  O78  1  0.68630000  0.25510000  0.96521000  1
  O  O79  1  0.70800000  0.53160000  0.02929000  1
  O  O80  1  0.73940000  0.31650000  0.27640000  1
  O  O81  1  0.76060000  0.81650000  0.72360000  1
  O  O82  1  0.79200000  0.03160000  0.97071000  1
  O  O83  1  0.81370000  0.75510000  0.03479000  1
  O  O84  1  0.85420000  0.47430000  0.85531000  1
  O  O85  1  0.90080000  0.68790000  0.62982000  1
  O  O86  1  0.96490000  0.05100000  0.23265000  1
  O  O87  1  0.98320000  0.24900000  0.34630000  1
