# generated using pymatgen
data_PrH9(C2O)6
_symmetry_space_group_name_H-M   'P 1'
_cell_length_a   8.54100000
_cell_length_b   10.90900000
_cell_length_c   11.19800000
_cell_angle_alpha   64.15300000
_cell_angle_beta   79.90200000
_cell_angle_gamma   73.71100000
_symmetry_Int_Tables_number   1
_chemical_formula_structural   PrH9(C2O)6
_chemical_formula_sum   'Pr2 H18 C24 O12'
_cell_volume   899.59082949
_cell_formula_units_Z   2
loop_
 _symmetry_equiv_pos_site_id
 _symmetry_equiv_pos_as_xyz
  1  'x, y, z'
loop_
 _atom_site_type_symbol
 _atom_site_label
 _atom_site_symmetry_multiplicity
 _atom_site_fract_x
 _atom_site_fract_y
 _atom_site_fract_z
 _atom_site_occupancy
  Pr  Pr0  1  0.24808000  0.50296000  0.50342000  1
  Pr  Pr1  1  0.75192000  0.49704000  0.49658000  1
  H  H2  1  0.01560000  0.40240000  0.18890000  1
  H  H3  1  0.03430000  0.25590000  0.31560000  1
  H  H4  1  0.25040000  0.44730000  0.02290000  1
  H  H5  1  0.26440000  0.06640000  0.32480000  1
  H  H6  1  0.37850000  0.67000000  0.14470000  1
  H  H7  1  0.40680000  0.88950000  0.98760000  1
  H  H8  1  0.43410000  0.12240000  0.82860000  1
  H  H9  1  0.43470000  0.85860000  0.29480000  1
  H  H10  1  0.48050000  0.53140000  0.12670000  1
  H  H11  1  0.51950000  0.46860000  0.87330000  1
  H  H12  1  0.56530000  0.14140000  0.70520000  1
  H  H13  1  0.56590000  0.87760000  0.17140000  1
  H  H14  1  0.59320000  0.11050000  0.01240000  1
  H  H15  1  0.62150000  0.33000000  0.85530000  1
  H  H16  1  0.73560000  0.93360000  0.67520000  1
  H  H17  1  0.74960000  0.55270000  0.97710000  1
  H  H18  1  0.96570000  0.74410000  0.68440000  1
  H  H19  1  0.98440000  0.59760000  0.81110000  1
  C  C20  1  0.09250000  0.32950000  0.25530000  1
  C  C21  1  0.13790000  0.39510000  0.33680000  1
  C  C22  1  0.23240000  0.26680000  0.18500000  1
  C  C23  1  0.29910000  0.35000000  0.06290000  1
  C  C24  1  0.30670000  0.12430000  0.24100000  1
  C  C25  1  0.34580000  0.13090000  0.66650000  1
  C  C26  1  0.41520000  0.42570000  0.74620000  1
  C  C27  1  0.43370000  0.29440000  0.99920000  1
  C  C28  1  0.43870000  0.06510000  0.17890000  1
  C  C29  1  0.47980000  0.09010000  0.75690000  1
  C  C30  1  0.49040000  0.61730000  0.13180000  1
  C  C31  1  0.49760000  0.84960000  0.94320000  1
  C  C32  1  0.50240000  0.15040000  0.05680000  1
  C  C33  1  0.50960000  0.38270000  0.86820000  1
  C  C34  1  0.52020000  0.90990000  0.24310000  1
  C  C35  1  0.56130000  0.93490000  0.82110000  1
  C  C36  1  0.56630000  0.70560000  0.00080000  1
  C  C37  1  0.58480000  0.57430000  0.25380000  1
  C  C38  1  0.65420000  0.86910000  0.33350000  1
  C  C39  1  0.69330000  0.87570000  0.75900000  1
  C  C40  1  0.70090000  0.65000000  0.93710000  1
  C  C41  1  0.76760000  0.73320000  0.81500000  1
  C  C42  1  0.86210000  0.60490000  0.66320000  1
  C  C43  1  0.90750000  0.67050000  0.74470000  1
  O  O44  1  0.03050000  0.43710000  0.41160000  1
  O  O45  1  0.26550000  0.43650000  0.75600000  1
  O  O46  1  0.27600000  0.25940000  0.61510000  1
  O  O47  1  0.28200000  0.40760000  0.32650000  1
  O  O48  1  0.30540000  0.03850000  0.65010000  1
  O  O49  1  0.49670000  0.45210000  0.63380000  1
  O  O50  1  0.50330000  0.54790000  0.36620000  1
  O  O51  1  0.69460000  0.96150000  0.34990000  1
  O  O52  1  0.71800000  0.59240000  0.67350000  1
  O  O53  1  0.72400000  0.74060000  0.38490000  1
  O  O54  1  0.73450000  0.56350000  0.24400000  1
  O  O55  1  0.96950000  0.56290000  0.58840000  1
