# generated using pymatgen
data_CdH14C20(NO)4
_symmetry_space_group_name_H-M   'P 1'
_cell_length_a   9.14700000
_cell_length_b   9.21900000
_cell_length_c   14.60400000
_cell_angle_alpha   97.97300000
_cell_angle_beta   104.95600000
_cell_angle_gamma   104.56500000
_symmetry_Int_Tables_number   1
_chemical_formula_structural   CdH14C20(NO)4
_chemical_formula_sum   'Cd2 H28 C40 N8 O8'
_cell_volume   1123.91545972
_cell_formula_units_Z   2
loop_
 _symmetry_equiv_pos_site_id
 _symmetry_equiv_pos_as_xyz
  1  'x, y, z'
loop_
 _atom_site_type_symbol
 _atom_site_label
 _atom_site_symmetry_multiplicity
 _atom_site_fract_x
 _atom_site_fract_y
 _atom_site_fract_z
 _atom_site_occupancy
  Cd  Cd0  1  0.33834000  0.24758000  0.59602000  1
  Cd  Cd1  1  0.59716000  0.07904000  0.18877000  1
  H  H2  1  0.01540000  0.29080000  0.26200000  1
  H  H3  1  0.03400000  0.69550000  0.48600000  1
  H  H4  1  0.08920000  0.68360000  0.90270000  1
  H  H5  1  0.10590000  0.28840000  0.90890000  1
  H  H6  1  0.17610000  0.20500000  0.77500000  1
  H  H7  1  0.18020000  0.16830000  0.36320000  1
  H  H8  1  0.19540000  0.55210000  0.52440000  1
  H  H9  1  0.26160000  0.13810000  0.22650000  1
  H  H10  1  0.27290000  0.78350000  0.05700000  1
  H  H11  1  0.35720000  0.84490000  0.34300000  1
  H  H12  1  0.43210000  0.62410000  0.29380000  1
  H  H13  1  0.52970000  0.43890000  0.24730000  1
  H  H14  1  0.54930000  0.82060000  0.62060000  1
  H  H15  1  0.56630000  0.09100000  0.85570000  1
  H  H16  1  0.57990000  0.62190000  0.90630000  1
  H  H17  1  0.64840000  0.63410000  0.56750000  1
  H  H18  1  0.65430000  0.10710000  0.72580000  1
  H  H19  1  0.65430000  0.39020000  0.52080000  1
  H  H20  1  0.70170000  0.18980000  0.42030000  1
  H  H21  1  0.75660000  0.17030000  0.60600000  1
  H  H22  1  0.78010000  0.79230000  0.03420000  1
  H  H23  1  0.79220000  0.64090000  0.15780000  1
  H  H24  1  0.87970000  0.49980000  0.78390000  1
  H  H25  1  0.90270000  0.87010000  0.42770000  1
  H  H26  1  0.92530000  0.15960000  0.50660000  1
  H  H27  1  0.93350000  0.47480000  0.20670000  1
  H  H28  1  0.99560000  0.25130000  0.03850000  1
  H  H29  1  0.99650000  0.01420000  0.12390000  1
  C  C30  1  0.00240000  0.57050000  0.35300000  1
  C  C31  1  0.07320000  0.32880000  0.32730000  1
  C  C32  1  0.08530000  0.98420000  0.12120000  1
  C  C33  1  0.09390000  0.19600000  0.71950000  1
  C  C34  1  0.16400000  0.26180000  0.38300000  1
  C  C35  1  0.17290000  0.47240000  0.47140000  1
  C  C36  1  0.23070000  0.05210000  0.17640000  1
  C  C37  1  0.23820000  0.86080000  0.08400000  1
  C  C38  1  0.40120000  0.98950000  0.52260000  1
  C  C39  1  0.40980000  0.79980000  0.38890000  1
  C  C40  1  0.44490000  0.85820000  0.48810000  1
  C  C41  1  0.45790000  0.66666667  0.35960000  1
  C  C42  1  0.53000000  0.78670000  0.55430000  1
  C  C43  1  0.53600000  0.60550000  0.42280000  1
  C  C44  1  0.56880000  0.40430000  0.30280000  1
  C  C45  1  0.57710000  0.44500000  0.74840000  1
  C  C46  1  0.58210000  0.67090000  0.52310000  1
  C  C47  1  0.63880000  0.37740000  0.45430000  1
  C  C48  1  0.66110000  0.26630000  0.39900000  1
  C  C49  1  0.67460000  0.13000000  0.86550000  1
  C  C50  1  0.68400000  0.63620000  0.90570000  1
  C  C51  1  0.70700000  0.55490000  0.82820000  1
  C  C52  1  0.70760000  0.15690000  0.04420000  1
  C  C53  1  0.72550000  0.13640000  0.78820000  1
  C  C54  1  0.74230000  0.87530000  0.25480000  1
  C  C55  1  0.77780000  0.18000000  0.96190000  1
  C  C56  1  0.80270000  0.73830000  0.98360000  1
  C  C57  1  0.83390000  0.76760000  0.28830000  1
  C  C58  1  0.84340000  0.65260000  0.22350000  1
  C  C59  1  0.86000000  0.56410000  0.83120000  1
  C  C60  1  0.86320000  0.17570000  0.62770000  1
  C  C61  1  0.88820000  0.18810000  0.80330000  1
  C  C62  1  0.90670000  0.78820000  0.38430000  1
  C  C63  1  0.92690000  0.55220000  0.25220000  1
  C  C64  1  0.92800000  0.22690000  0.97530000  1
  C  C65  1  0.95510000  0.17180000  0.57370000  1
  C  C66  1  0.95730000  0.75590000  0.98250000  1
  C  C67  1  0.98600000  0.67000000  0.90480000  1
  C  C68  1  0.98950000  0.68550000  0.41970000  1
  C  C69  1  0.99790000  0.24420000  0.89770000  1
  N  N70  1  0.08050000  0.46280000  0.38350000  1
  N  N71  1  0.08750000  0.86000000  0.05820000  1
  N  N72  1  0.11100000  0.18960000  0.63590000  1
  N  N73  1  0.22940000  0.35370000  0.47410000  1
  N  N74  1  0.33170000  0.97880000  0.15010000  1
  N  N75  1  0.58690000  0.47450000  0.39500000  1
  N  N76  1  0.61480000  0.28050000  0.30380000  1
  N  N77  1  0.94780000  0.18880000  0.72040000  1
  O  O78  1  0.35840000  0.07150000  0.46800000  1
  O  O79  1  0.39260000  0.01520000  0.61240000  1
  O  O80  1  0.44700000  0.38480000  0.76380000  1
  O  O81  1  0.56770000  0.13110000  0.03240000  1
  O  O82  1  0.59820000  0.40770000  0.66960000  1
  O  O83  1  0.65290000  0.83830000  0.16640000  1
  O  O84  1  0.75990000  0.99740000  0.31200000  1
  O  O85  1  0.80590000  0.16900000  0.12710000  1
