# generated using pymatgen
data_Fe3H14C32O15
_symmetry_space_group_name_H-M   'P 1'
_cell_length_a   9.89180000
_cell_length_b   15.36680000
_cell_length_c   23.57000000
_cell_angle_alpha   90.00000000
_cell_angle_beta   90.00000000
_cell_angle_gamma   90.00000000
_symmetry_Int_Tables_number   1
_chemical_formula_structural   Fe3H14C32O15
_chemical_formula_sum   'Fe6 H28 C64 O30'
_cell_volume   3582.76520950
_cell_formula_units_Z   2
loop_
 _symmetry_equiv_pos_site_id
 _symmetry_equiv_pos_as_xyz
  1  'x, y, z'
loop_
 _atom_site_type_symbol
 _atom_site_label
 _atom_site_symmetry_multiplicity
 _atom_site_fract_x
 _atom_site_fract_y
 _atom_site_fract_z
 _atom_site_occupancy
  Fe  Fe0  1  0.70472000  0.86319000  0.56928000  1
  Fe  Fe1  1  0.70472000  0.86319000  0.43072000  1
  Fe  Fe2  1  0.50929000  0.72577000  0.50000000  1
  Fe  Fe3  1  0.49071000  0.22577000  0.00000000  1
  Fe  Fe4  1  0.29528000  0.36319000  0.93072000  1
  Fe  Fe5  1  0.29528000  0.36319000  0.06928000  1
  H  H6  1  0.99550000  0.46250000  0.78990000  1
  H  H7  1  0.99550000  0.46250000  0.21010000  1
  H  H8  1  0.91360000  0.59070000  0.75250000  1
  H  H9  1  0.91360000  0.59070000  0.24750000  1
  H  H10  1  0.86830000  0.68100000  0.67490000  1
  H  H11  1  0.86830000  0.68100000  0.32510000  1
  H  H12  1  0.84260000  0.33670000  0.92670000  1
  H  H13  1  0.84260000  0.33670000  0.07330000  1
  H  H14  1  0.61290000  0.42840000  0.70310000  1
  H  H15  1  0.61290000  0.42840000  0.29690000  1
  H  H16  1  0.59210000  0.42020000  0.80200000  1
  H  H17  1  0.59210000  0.42020000  0.19800000  1
  H  H18  1  0.56760000  0.51870000  0.62550000  1
  H  H19  1  0.56760000  0.51870000  0.37450000  1
  H  H20  1  0.43240000  0.01870000  0.87450000  1
  H  H21  1  0.43240000  0.01870000  0.12550000  1
  H  H22  1  0.40790000  0.92020000  0.69800000  1
  H  H23  1  0.40790000  0.92020000  0.30200000  1
  H  H24  1  0.38710000  0.92840000  0.79690000  1
  H  H25  1  0.38710000  0.92840000  0.20310000  1
  H  H26  1  0.15740000  0.83670000  0.57330000  1
  H  H27  1  0.15740000  0.83670000  0.42670000  1
  H  H28  1  0.13170000  0.18100000  0.82510000  1
  H  H29  1  0.13170000  0.18100000  0.17490000  1
  H  H30  1  0.08640000  0.09070000  0.74750000  1
  H  H31  1  0.08640000  0.09070000  0.25250000  1
  H  H32  1  0.00450000  0.96250000  0.71010000  1
  H  H33  1  0.00450000  0.96250000  0.28990000  1
  C  C34  1  0.93947000  0.39840000  0.86181000  1
  C  C35  1  0.93947000  0.39840000  0.13819000  1
  C  C36  1  0.92360000  0.88800000  0.61325000  1
  C  C37  1  0.92360000  0.88800000  0.38675000  1
  C  C38  1  0.92016000  0.43990000  0.81005000  1
  C  C39  1  0.92016000  0.43990000  0.18995000  1
  C  C40  1  0.84340000  0.57610000  0.72672000  1
  C  C41  1  0.84340000  0.57610000  0.27328000  1
  C  C42  1  0.82937000  0.36500000  0.89128000  1
  C  C43  1  0.82937000  0.36500000  0.10872000  1
  C  C44  1  0.81650000  0.62973000  0.68063000  1
  C  C45  1  0.81650000  0.62973000  0.31937000  1
  C  C46  1  0.79057000  0.44822000  0.78780000  1
  C  C47  1  0.79057000  0.44822000  0.21220000  1
  C  C48  1  0.76748000  0.50100000  0.73517000  1
  C  C49  1  0.76748000  0.50100000  0.26483000  1
  C  C50  1  0.71365000  0.60838000  0.64287000  1
  C  C51  1  0.71365000  0.60838000  0.35713000  1
  C  C52  1  0.69985000  0.37300000  0.86895000  1
  C  C53  1  0.69985000  0.37300000  0.13105000  1
  C  C54  1  0.68650000  0.02680000  0.50000000  1
  C  C55  1  0.68056000  0.41464000  0.81723000  1
  C  C56  1  0.68056000  0.41464000  0.18277000  1
  C  C57  1  0.67410000  0.67350000  0.59939000  1
  C  C58  1  0.67410000  0.67350000  0.40061000  1
  C  C59  1  0.67230000  0.12020000  0.50000000  1
  C  C60  1  0.66473000  0.47966000  0.69741000  1
  C  C61  1  0.66473000  0.47966000  0.30259000  1
  C  C62  1  0.63780000  0.53334000  0.65126000  1
  C  C63  1  0.63780000  0.53334000  0.34874000  1
  C  C64  1  0.57970000  0.34290000  0.90239000  1
  C  C65  1  0.57970000  0.34290000  0.09761000  1
  C  C66  1  0.42030000  0.84290000  0.59761000  1
  C  C67  1  0.42030000  0.84290000  0.40239000  1
  C  C68  1  0.36220000  0.03334000  0.84874000  1
  C  C69  1  0.36220000  0.03334000  0.15126000  1
  C  C70  1  0.33527000  0.97966000  0.80259000  1
  C  C71  1  0.33527000  0.97966000  0.19741000  1
  C  C72  1  0.32770000  0.62020000  0.00000000  1
  C  C73  1  0.32590000  0.17350000  0.90061000  1
  C  C74  1  0.32590000  0.17350000  0.09939000  1
  C  C75  1  0.31944000  0.91464000  0.68277000  1
  C  C76  1  0.31944000  0.91464000  0.31723000  1
  C  C77  1  0.31350000  0.52680000  0.00000000  1
  C  C78  1  0.30015000  0.87300000  0.63105000  1
  C  C79  1  0.30015000  0.87300000  0.36895000  1
  C  C80  1  0.28635000  0.10838000  0.85713000  1
  C  C81  1  0.28635000  0.10838000  0.14287000  1
  C  C82  1  0.23252000  0.00100000  0.76483000  1
  C  C83  1  0.23252000  0.00100000  0.23517000  1
  C  C84  1  0.20943000  0.94822000  0.71220000  1
  C  C85  1  0.20943000  0.94822000  0.28780000  1
  C  C86  1  0.18350000  0.12973000  0.81937000  1
  C  C87  1  0.18350000  0.12973000  0.18063000  1
  C  C88  1  0.17063000  0.86500000  0.60872000  1
  C  C89  1  0.17063000  0.86500000  0.39128000  1
  C  C90  1  0.15660000  0.07610000  0.77328000  1
  C  C91  1  0.15660000  0.07610000  0.22672000  1
  C  C92  1  0.07984000  0.93990000  0.68995000  1
  C  C93  1  0.07984000  0.93990000  0.31005000  1
  C  C94  1  0.07640000  0.38800000  0.88675000  1
  C  C95  1  0.07640000  0.38800000  0.11325000  1
  C  C96  1  0.06053000  0.89840000  0.63819000  1
  C  C97  1  0.06053000  0.89840000  0.36181000  1
  O  O98  1  0.91148000  0.86180000  0.56284000  1
  O  O99  1  0.91148000  0.86180000  0.43716000  1
  O  O100  1  0.81961000  0.90757000  0.64125000  1
  O  O101  1  0.81961000  0.90757000  0.35875000  1
  O  O102  1  0.72880000  0.74803000  0.60440000  1
  O  O103  1  0.72880000  0.74803000  0.39560000  1
  O  O104  1  0.69160000  0.98761000  0.54640000  1
  O  O105  1  0.69160000  0.98761000  0.45360000  1
  O  O106  1  0.64600000  0.81720000  0.50000000  1
  O  O107  1  0.60175000  0.28901000  0.94115000  1
  O  O108  1  0.60175000  0.28901000  0.05885000  1
  O  O109  1  0.59382000  0.65254000  0.56064000  1
  O  O110  1  0.59382000  0.65254000  0.43936000  1
  O  O111  1  0.53125000  0.87630000  0.61034000  1
  O  O112  1  0.53125000  0.87630000  0.38966000  1
  O  O113  1  0.46875000  0.37630000  0.88966000  1
  O  O114  1  0.46875000  0.37630000  0.11034000  1
  O  O115  1  0.40618000  0.15254000  0.93936000  1
  O  O116  1  0.40618000  0.15254000  0.06064000  1
  O  O117  1  0.39825000  0.78901000  0.55885000  1
  O  O118  1  0.39825000  0.78901000  0.44115000  1
  O  O119  1  0.35400000  0.31720000  0.00000000  1
  O  O120  1  0.30840000  0.48761000  0.95360000  1
  O  O121  1  0.30840000  0.48761000  0.04640000  1
  O  O122  1  0.27120000  0.24803000  0.89560000  1
  O  O123  1  0.27120000  0.24803000  0.10440000  1
  O  O124  1  0.18039000  0.40757000  0.85875000  1
  O  O125  1  0.18039000  0.40757000  0.14125000  1
  O  O126  1  0.08852000  0.36180000  0.93716000  1
  O  O127  1  0.08852000  0.36180000  0.06284000  1
