# generated using pymatgen
data_CoH22C24(NO2)2
_symmetry_space_group_name_H-M   'P 1'
_cell_length_a   13.39970000
_cell_length_b   13.66990000
_cell_length_c   46.33900000
_cell_angle_alpha   97.66330000
_cell_angle_beta   90.00000000
_cell_angle_gamma   119.34800000
_symmetry_Int_Tables_number   1
_chemical_formula_structural   CoH22C24(NO2)2
_chemical_formula_sum   'Co12 H264 C288 N24 O48'
_cell_volume   7311.57617298
_cell_formula_units_Z   12
loop_
 _symmetry_equiv_pos_site_id
 _symmetry_equiv_pos_as_xyz
  1  'x, y, z'
loop_
 _atom_site_type_symbol
 _atom_site_label
 _atom_site_symmetry_multiplicity
 _atom_site_fract_x
 _atom_site_fract_y
 _atom_site_fract_z
 _atom_site_occupancy
  Co  Co0  1  0.01310000  0.96410000  0.95622000  1
  Co  Co1  1  0.04900000  0.03590000  0.54378000  1
  Co  Co2  1  0.29064000  0.64284000  0.38000000  1
  Co  Co3  1  0.31888000  0.64344000  0.78988000  1
  Co  Co4  1  0.32456000  0.64344000  0.28988000  1
  Co  Co5  1  0.35220000  0.64284000  0.88000000  1
  Co  Co6  1  0.64780000  0.35716000  0.12000000  1
  Co  Co7  1  0.67544000  0.35656000  0.71012000  1
  Co  Co8  1  0.68112000  0.35656000  0.21012000  1
  Co  Co9  1  0.70936000  0.35716000  0.62000000  1
  Co  Co10  1  0.95100000  0.96410000  0.45622000  1
  Co  Co11  1  0.98690000  0.03590000  0.04377000  1
  H  H12  1  0.00070000  0.19780000  0.68270000  1
  H  H13  1  0.00510000  0.03040000  0.69470000  1
  H  H14  1  0.00810000  0.08260000  0.72710000  1
  H  H15  1  0.01070000  0.21220000  0.45900000  1
  H  H16  1  0.02100000  0.76640000  0.76240000  1
  H  H17  1  0.02480000  0.25980000  0.71500000  1
  H  H18  1  0.02530000  0.03040000  0.19470000  1
  H  H19  1  0.03180000  0.45540000  0.63440000  1
  H  H20  1  0.03670000  0.53380000  0.72110000  1
  H  H21  1  0.04820000  0.10360000  0.14920000  1
  H  H22  1  0.05310000  0.95440000  0.78210000  1
  H  H23  1  0.05540000  0.10360000  0.64920000  1
  H  H24  1  0.05760000  0.53200000  0.78110000  1
  H  H25  1  0.06470000  0.91120000  0.11670000  1
  H  H26  1  0.06650000  0.65340000  0.12140000  1
  H  H27  1  0.06780000  0.34120000  0.22470000  1
  H  H28  1  0.07380000  0.57000000  0.03420000  1
  H  H29  1  0.07450000  0.08260000  0.22710000  1
  H  H30  1  0.07480000  0.21800000  0.38140000  1
  H  H31  1  0.07550000  0.23180000  0.80720000  1
  H  H32  1  0.08980000  0.52100000  0.87920000  1
  H  H33  1  0.09480000  0.73700000  0.80380000  1
  H  H34  1  0.09510000  0.45280000  0.11410000  1
  H  H35  1  0.09870000  0.04560000  0.71790000  1
  H  H36  1  0.10210000  0.39700000  0.38120000  1
  H  H37  1  0.10690000  0.31980000  0.69120000  1
  H  H38  1  0.11020000  0.63420000  0.21840000  1
  H  H39  1  0.11080000  0.28680000  0.24580000  1
  H  H40  1  0.11120000  0.74160000  0.04580000  1
  H  H41  1  0.11370000  0.37820000  0.13410000  1
  H  H42  1  0.12040000  0.49260000  0.14790000  1
  H  H43  1  0.12300000  0.39240000  0.60030000  1
  H  H44  1  0.12670000  0.77040000  0.44730000  1
  H  H45  1  0.12680000  0.88940000  0.19970000  1
  H  H46  1  0.12940000  0.91640000  0.04580000  1
  H  H47  1  0.12970000  0.28300000  0.53190000  1
  H  H48  1  0.13460000  0.91580000  0.38460000  1
  H  H49  1  0.13750000  0.75080000  0.38610000  1
  H  H50  1  0.13970000  0.51320000  0.59850000  1
  H  H51  1  0.14320000  0.21800000  0.88140000  1
  H  H52  1  0.14920000  0.51740000  0.95290000  1
  H  H53  1  0.15330000  0.28300000  0.03190000  1
  H  H54  1  0.15350000  0.08880000  0.38330000  1
  H  H55  1  0.15630000  0.23180000  0.30720000  1
  H  H56  1  0.15830000  0.45020000  0.02880000  1
  H  H57  1  0.16180000  0.39020000  0.45800000  1
  H  H58  1  0.16210000  0.39980000  0.30490000  1
  H  H59  1  0.16560000  0.85500000  0.94940000  1
  H  H60  1  0.16800000  0.69040000  0.95010000  1
  H  H61  1  0.17600000  0.28680000  0.74580000  1
  H  H62  1  0.17970000  0.76300000  0.29030000  1
  H  H63  1  0.18290000  0.84040000  0.88960000  1
  H  H64  1  0.19710000  0.19780000  0.18270000  1
  H  H65  1  0.19860000  0.93820000  0.29020000  1
  H  H66  1  0.20000000  0.82660000  0.13200000  1
  H  H67  1  0.20150000  0.21220000  0.95900000  1
  H  H68  1  0.21290000  0.31980000  0.19120000  1
  H  H69  1  0.21300000  0.08360000  0.45420000  1
  H  H70  1  0.21880000  0.08420000  0.11540000  1
  H  H71  1  0.22380000  0.47660000  0.58370000  1
  H  H72  1  0.22840000  0.39020000  0.95800000  1
  H  H73  1  0.23500000  0.25980000  0.21500000  1
  H  H74  1  0.23740000  0.11060000  0.30030000  1
  H  H75  1  0.23770000  0.39980000  0.80490000  1
  H  H76  1  0.25040000  0.91760000  0.52990000  1
  H  H77  1  0.25280000  0.47660000  0.08370000  1
  H  H78  1  0.25460000  0.23360000  0.73760000  1
  H  H79  1  0.25550000  0.64060000  0.10740000  1
  H  H80  1  0.26040000  0.06180000  0.20980000  1
  H  H81  1  0.26060000  0.58580000  0.18410000  1
  H  H82  1  0.26260000  0.80560000  0.21540000  1
  H  H83  1  0.26450000  0.37820000  0.63410000  1
  H  H84  1  0.26940000  0.39240000  0.10030000  1
  H  H85  1  0.27340000  0.34120000  0.72470000  1
  H  H86  1  0.27540000  0.67320000  0.14150000  1
  H  H87  1  0.29190000  0.45020000  0.52880000  1
  H  H88  1  0.29490000  0.39700000  0.88120000  1
  H  H89  1  0.30270000  0.72060000  0.55690000  1
  H  H90  1  0.30630000  0.84500000  0.01600000  1
  H  H91  1  0.30680000  0.68380000  0.62290000  1
  H  H92  1  0.31060000  0.14500000  0.55060000  1
  H  H93  1  0.31820000  0.69280000  0.03390000  1
  H  H94  1  0.32520000  0.58580000  0.68410000  1
  H  H95  1  0.32890000  0.76100000  0.06490000  1
  H  H96  1  0.33280000  0.08240000  0.97010000  1
  H  H97  1  0.34010000  0.92580000  0.04600000  1
  H  H98  1  0.34250000  0.15960000  0.61040000  1
  H  H99  1  0.34390000  0.91280000  0.57160000  1
  H  H100  1  0.35630000  0.22960000  0.05270000  1
  H  H101  1  0.35770000  0.45280000  0.61410000  1
  H  H102  1  0.35780000  0.26300000  0.69620000  1
  H  H103  1  0.36280000  0.74380000  0.98440000  1
  H  H104  1  0.36820000  0.51740000  0.45290000  1
  H  H105  1  0.36960000  0.25840000  0.45420000  1
  H  H106  1  0.37220000  0.49260000  0.64790000  1
  H  H107  1  0.37340000  0.17340000  0.36800000  1
  H  H108  1  0.37350000  0.51320000  0.09850000  1
  H  H109  1  0.37460000  0.69280000  0.53390000  1
  H  H110  1  0.37700000  0.68380000  0.12290000  1
  H  H111  1  0.37890000  0.88660000  0.78840000  1
  H  H112  1  0.38100000  0.74380000  0.48440000  1
  H  H113  1  0.38510000  0.64060000  0.60740000  1
  H  H114  1  0.38670000  0.24920000  0.11390000  1
  H  H115  1  0.39780000  0.67320000  0.64150000  1
  H  H116  1  0.40360000  0.94280000  0.13600000  1
  H  H117  1  0.41030000  0.99120000  0.94670000  1
  H  H118  1  0.41270000  0.96780000  0.01920000  1
  H  H119  1  0.41310000  0.34660000  0.37860000  1
  H  H120  1  0.41430000  0.07420000  0.45400000  1
  H  H121  1  0.41670000  0.23700000  0.20970000  1
  H  H122  1  0.41790000  0.72060000  0.05690000  1
  H  H123  1  0.41910000  0.00880000  0.55330000  1
  H  H124  1  0.42360000  0.45540000  0.13440000  1
  H  H125  1  0.43110000  0.08720000  0.92840000  1
  H  H126  1  0.43120000  0.52100000  0.37920000  1
  H  H127  1  0.43210000  0.76100000  0.56490000  1
  H  H128  1  0.43350000  0.88960000  0.86680000  1
  H  H129  1  0.44490000  0.03220000  0.48080000  1
  H  H130  1  0.45610000  0.88960000  0.36680000  1
  H  H131  1  0.45700000  0.19440000  0.28460000  1
  H  H132  1  0.46080000  0.05720000  0.36400000  1
  H  H133  1  0.46130000  0.15500000  0.48400000  1
  H  H134  1  0.46490000  0.93500000  0.71290000  1
  H  H135  1  0.47010000  0.93500000  0.21290000  1
  H  H136  1  0.47440000  0.53200000  0.28110000  1
  H  H137  1  0.47600000  0.36580000  0.28160000  1
  H  H138  1  0.47760000  0.30960000  0.54990000  1
  H  H139  1  0.47820000  0.97240000  0.57550000  1
  H  H140  1  0.49230000  0.11340000  0.71160000  1
  H  H141  1  0.49420000  0.97240000  0.07550000  1
  H  H142  1  0.49620000  0.57000000  0.53420000  1
  H  H143  1  0.49710000  0.53380000  0.22110000  1
  H  H144  1  0.50290000  0.46620000  0.77890000  1
  H  H145  1  0.50380000  0.43000000  0.46580000  1
  H  H146  1  0.50580000  0.02760000  0.92450000  1
  H  H147  1  0.50770000  0.88660000  0.28840000  1
  H  H148  1  0.52180000  0.02760000  0.42450000  1
  H  H149  1  0.52240000  0.69040000  0.45010000  1
  H  H150  1  0.52400000  0.63420000  0.71840000  1
  H  H151  1  0.52560000  0.46800000  0.71890000  1
  H  H152  1  0.52990000  0.06500000  0.78710000  1
  H  H153  1  0.53510000  0.06500000  0.28710000  1
  H  H154  1  0.53870000  0.84500000  0.51600000  1
  H  H155  1  0.53920000  0.94280000  0.63600000  1
  H  H156  1  0.54300000  0.80560000  0.71540000  1
  H  H157  1  0.54390000  0.11040000  0.63320000  1
  H  H158  1  0.55510000  0.96780000  0.51920000  1
  H  H159  1  0.56650000  0.11040000  0.13320000  1
  H  H160  1  0.56790000  0.23900000  0.43510000  1
  H  H161  1  0.56880000  0.47900000  0.62080000  1
  H  H162  1  0.56890000  0.91280000  0.07160000  1
  H  H163  1  0.57640000  0.54460000  0.86560000  1
  H  H164  1  0.58090000  0.99120000  0.44670000  1
  H  H165  1  0.58210000  0.27940000  0.94310000  1
  H  H166  1  0.58330000  0.76300000  0.79030000  1
  H  H167  1  0.58570000  0.92580000  0.54600000  1
  H  H168  1  0.58690000  0.65340000  0.62140000  1
  H  H169  1  0.58730000  0.03220000  0.98080000  1
  H  H170  1  0.58970000  0.00880000  0.05330000  1
  H  H171  1  0.59640000  0.05720000  0.86400000  1
  H  H172  1  0.60220000  0.32680000  0.35850000  1
  H  H173  1  0.61330000  0.75080000  0.88610000  1
  H  H174  1  0.61490000  0.35940000  0.39260000  1
  H  H175  1  0.61900000  0.25620000  0.51560000  1
  H  H176  1  0.62110000  0.11340000  0.21160000  1
  H  H177  1  0.62300000  0.31620000  0.87710000  1
  H  H178  1  0.62540000  0.30720000  0.46610000  1
  H  H179  1  0.62650000  0.48680000  0.90150000  1
  H  H180  1  0.62660000  0.82660000  0.63200000  1
  H  H181  1  0.62780000  0.50740000  0.35210000  1
  H  H182  1  0.63040000  0.74160000  0.54580000  1
  H  H183  1  0.63180000  0.48260000  0.54710000  1
  H  H184  1  0.63720000  0.25620000  0.01560000  1
  H  H185  1  0.64220000  0.73700000  0.30380000  1
  H  H186  1  0.64230000  0.54720000  0.38590000  1
  H  H187  1  0.64370000  0.77040000  0.94730000  1
  H  H188  1  0.65610000  0.08720000  0.42840000  1
  H  H189  1  0.65750000  0.84040000  0.38960000  1
  H  H190  1  0.65990000  0.07420000  0.95400000  1
  H  H191  1  0.66720000  0.91760000  0.02990000  1
  H  H192  1  0.67110000  0.23900000  0.93510000  1
  H  H193  1  0.67480000  0.41420000  0.31590000  1
  H  H194  1  0.68180000  0.30720000  0.96610000  1
  H  H195  1  0.68940000  0.85500000  0.44940000  1
  H  H196  1  0.69320000  0.31620000  0.37710000  1
  H  H197  1  0.69370000  0.15500000  0.98400000  1
  H  H198  1  0.69730000  0.27940000  0.44310000  1
  H  H199  1  0.70510000  0.60300000  0.11880000  1
  H  H200  1  0.70810000  0.54980000  0.47120000  1
  H  H201  1  0.72460000  0.32680000  0.85850000  1
  H  H202  1  0.72660000  0.65880000  0.27530000  1
  H  H203  1  0.73060000  0.60760000  0.89970000  1
  H  H204  1  0.73550000  0.62180000  0.36590000  1
  H  H205  1  0.73740000  0.19440000  0.78460000  1
  H  H206  1  0.73940000  0.41420000  0.81590000  1
  H  H207  1  0.73960000  0.93820000  0.79020000  1
  H  H208  1  0.74450000  0.35940000  0.89260000  1
  H  H209  1  0.74540000  0.76640000  0.26240000  1
  H  H210  1  0.74720000  0.52340000  0.91630000  1
  H  H211  1  0.74960000  0.08240000  0.47010000  1
  H  H212  1  0.76230000  0.60020000  0.19510000  1
  H  H213  1  0.76260000  0.88940000  0.69970000  1
  H  H214  1  0.76500000  0.74020000  0.78500000  1
  H  H215  1  0.77160000  0.60980000  0.04200000  1
  H  H216  1  0.77620000  0.52340000  0.41630000  1
  H  H217  1  0.78120000  0.91580000  0.88460000  1
  H  H218  1  0.78700000  0.91640000  0.54580000  1
  H  H219  1  0.78710000  0.68020000  0.80880000  1
  H  H220  1  0.79850000  0.78780000  0.04100000  1
  H  H221  1  0.80000000  0.17340000  0.86800000  1
  H  H222  1  0.80140000  0.06180000  0.70980000  1
  H  H223  1  0.80290000  0.80220000  0.81730000  1
  H  H224  1  0.81710000  0.15960000  0.11040000  1
  H  H225  1  0.82030000  0.23700000  0.70970000  1
  H  H226  1  0.82400000  0.71320000  0.25420000  1
  H  H227  1  0.83200000  0.30960000  0.04990000  1
  H  H228  1  0.83440000  0.14500000  0.05060000  1
  H  H229  1  0.83790000  0.60020000  0.69510000  1
  H  H230  1  0.83820000  0.60980000  0.54200000  1
  H  H231  1  0.84170000  0.54980000  0.97120000  1
  H  H232  1  0.84370000  0.76820000  0.69280000  1
  H  H233  1  0.84650000  0.91120000  0.61670000  1
  H  H234  1  0.84670000  0.71700000  0.96810000  1
  H  H235  1  0.85080000  0.48260000  0.04710000  1
  H  H236  1  0.85680000  0.78200000  0.11860000  1
  H  H237  1  0.86030000  0.48680000  0.40150000  1
  H  H238  1  0.86250000  0.24920000  0.61390000  1
  H  H239  1  0.86540000  0.08420000  0.61540000  1
  H  H240  1  0.87030000  0.71700000  0.46810000  1
  H  H241  1  0.87060000  0.08360000  0.95420000  1
  H  H242  1  0.87320000  0.11060000  0.80030000  1
  H  H243  1  0.87330000  0.22960000  0.55270000  1
  H  H244  1  0.87700000  0.60760000  0.39970000  1
  H  H245  1  0.87960000  0.50740000  0.85210000  1
  H  H246  1  0.88630000  0.62180000  0.86590000  1
  H  H247  1  0.88880000  0.25840000  0.95420000  1
  H  H248  1  0.88920000  0.71320000  0.75420000  1
  H  H249  1  0.88980000  0.36580000  0.78160000  1
  H  H250  1  0.89310000  0.68020000  0.30880000  1
  H  H251  1  0.89790000  0.60300000  0.61880000  1
  H  H252  1  0.90130000  0.95440000  0.28210000  1
  H  H253  1  0.90490000  0.54720000  0.88590000  1
  H  H254  1  0.90520000  0.26300000  0.19620000  1
  H  H255  1  0.91020000  0.47900000  0.12080000  1
  H  H256  1  0.92450000  0.76820000  0.19280000  1
  H  H257  1  0.92520000  0.78200000  0.61860000  1
  H  H258  1  0.92550000  0.91740000  0.77290000  1
  H  H259  1  0.92620000  0.43000000  0.96580000  1
  H  H260  1  0.93220000  0.65880000  0.77530000  1
  H  H261  1  0.93350000  0.34660000  0.87860000  1
  H  H262  1  0.93530000  0.08880000  0.88330000  1
  H  H263  1  0.94240000  0.46800000  0.21890000  1
  H  H264  1  0.94460000  0.89640000  0.35080000  1
  H  H265  1  0.94690000  0.04560000  0.21790000  1
  H  H266  1  0.95180000  0.89640000  0.85080000  1
  H  H267  1  0.96330000  0.46620000  0.27890000  1
  H  H268  1  0.96820000  0.54460000  0.36560000  1
  H  H269  1  0.97470000  0.96960000  0.80530000  1
  H  H270  1  0.97520000  0.74020000  0.28500000  1
  H  H271  1  0.97900000  0.23360000  0.23760000  1
  H  H272  1  0.98930000  0.78780000  0.54100000  1
  H  H273  1  0.99190000  0.91740000  0.27290000  1
  H  H274  1  0.99490000  0.96960000  0.30530000  1
  H  H275  1  0.99930000  0.80220000  0.31730000  1
  C  C276  1  0.00221000  0.86782000  0.84946000  1
  C  C277  1  0.00354000  0.51228000  0.03860000  1
  C  C278  1  0.00377000  0.59854000  0.96061000  1
  C  C279  1  0.00645000  0.35430000  0.87903000  1
  C  C280  1  0.01018000  0.81456000  0.82254000  1
  C  C281  1  0.01447000  0.48514000  0.67751000  1
  C  C282  1  0.01883000  0.25906000  0.87914000  1
  C  C283  1  0.02360000  0.07780000  0.21173000  1
  C  C284  1  0.03767000  0.72234000  0.20572000  1
  C  C285  1  0.04043000  0.62946000  0.21349000  1
  C  C286  1  0.04570000  0.74860000  0.04477000  1
  C  C287  1  0.05235000  0.93350000  0.90345000  1
  C  C288  1  0.05410000  0.27120000  0.23056000  1
  C  C289  1  0.05420000  0.07780000  0.71173000  1
  C  C290  1  0.05598000  0.85376000  0.04475000  1
  C  C291  1  0.05960000  0.24820000  0.69774000  1
  C  C292  1  0.06099000  0.46998000  0.78606000  1
  C  C293  1  0.06138000  0.34656000  0.95670000  1
  C  C294  1  0.06170000  0.19560000  0.20463000  1
  C  C295  1  0.06734000  0.87988000  0.87449000  1
  C  C296  1  0.06969000  0.29158000  0.80146000  1
  C  C297  1  0.07234000  0.48268000  0.65259000  1
  C  C298  1  0.07473000  0.53006000  0.70457000  1
  C  C299  1  0.07725000  0.46050000  0.95658000  1
  C  C300  1  0.07962000  0.85484000  0.12097000  1
  C  C301  1  0.08407000  0.22134000  0.45789000  1
  C  C302  1  0.08597000  0.77154000  0.82160000  1
  C  C303  1  0.08760000  0.28820000  0.03539000  1
  C  C304  1  0.09155000  0.38950000  0.03372000  1
  C  C305  1  0.09883000  0.79186000  0.95343000  1
  C  C306  1  0.10101000  0.45922000  0.87950000  1
  C  C307  1  0.10153000  0.69366000  0.95405000  1
  C  C308  1  0.10675000  0.91110000  0.48949000  1
  C  C309  1  0.11303000  0.56086000  0.32541000  1
  C  C310  1  0.11885000  0.06650000  0.59655000  1
  C  C311  1  0.12965000  0.27810000  0.88057000  1
  C  C312  1  0.13390000  0.19560000  0.70463000  1
  C  C313  1  0.13439000  0.13218000  0.65054000  1
  C  C314  1  0.13670000  0.45460000  0.13120000  1
  C  C315  1  0.13727000  0.22134000  0.95789000  1
  C  C316  1  0.13961000  0.83282000  0.20495000  1
  C  C317  1  0.14012000  0.83404000  0.87294000  1
  C  C318  1  0.14845000  0.27810000  0.38057000  1
  C  C319  1  0.14857000  0.77914000  0.84661000  1
  C  C320  1  0.15433000  0.32926000  0.95759000  1
  C  C321  1  0.16573000  0.38666000  0.38079000  1
  C  C322  1  0.16690000  0.39320000  0.80015000  1
  C  C323  1  0.17493000  0.32926000  0.45759000  1
  C  C324  1  0.17810000  0.78740000  0.46319000  1
  C  C325  1  0.17850000  0.47060000  0.60008000  1
  C  C326  1  0.17938000  0.85496000  0.48844000  1
  C  C327  1  0.18746000  0.12012000  0.62551000  1
  C  C328  1  0.18770000  0.88340000  0.12668000  1
  C  C329  1  0.18860000  0.24820000  0.19774000  1
  C  C330  1  0.18999000  0.52058000  0.65457000  1
  C  C331  1  0.19219000  0.56978000  0.70709000  1
  C  C332  1  0.19562000  0.18544000  0.67746000  1
  C  C333  1  0.19565000  0.08890000  0.01051000  1
  C  C334  1  0.20060000  0.28820000  0.53539000  1
  C  C335  1  0.20132000  0.91284000  0.38080000  1
  C  C336  1  0.20222000  0.14624000  0.45525000  1
  C  C337  1  0.20387000  0.81374000  0.38183000  1
  C  C338  1  0.21710000  0.27120000  0.73056000  1
  C  C339  1  0.22093000  0.38666000  0.88079000  1
  C  C340  1  0.22189000  0.29158000  0.30146000  1
  C  C341  1  0.22478000  0.14516000  0.37903000  1
  C  C342  1  0.22526000  0.72732000  0.84478000  1
  C  C343  1  0.22630000  0.39320000  0.30015000  1
  C  C344  1  0.24023000  0.25906000  0.37914000  1
  C  C345  1  0.24720000  0.56220000  0.68218000  1
  C  C346  1  0.24738000  0.86136000  0.21082000  1
  C  C347  1  0.25276000  0.87532000  0.51270000  1
  C  C348  1  0.25279000  0.82478000  0.28985000  1
  C  C349  1  0.25366000  0.74532000  0.46164000  1
  C  C350  1  0.25400000  0.51660000  0.62734000  1
  C  C351  1  0.25489000  0.61378000  0.73674000  1
  C  C352  1  0.26161000  0.68462000  0.43310000  1
  C  C353  1  0.26260000  0.51660000  0.12734000  1
  C  C354  1  0.26371000  0.93042000  0.28988000  1
  C  C355  1  0.28518000  0.34656000  0.45670000  1
  C  C356  1  0.28848000  0.08716000  0.11920000  1
  C  C357  1  0.29007000  0.99194000  0.12582000  1
  C  C358  1  0.29210000  0.47060000  0.10008000  1
  C  C359  1  0.29580000  0.64020000  0.12452000  1
  C  C360  1  0.29710000  0.25140000  0.45523000  1
  C  C361  1  0.29795000  0.38950000  0.53372000  1
  C  C362  1  0.29813000  0.00806000  0.37418000  1
  C  C363  1  0.30430000  0.11660000  0.37332000  1
  C  C364  1  0.30608000  0.16596000  0.62706000  1
  C  C365  1  0.30679000  0.16718000  0.29505000  1
  C  C366  1  0.30697000  0.20814000  0.54657000  1
  C  C367  1  0.31443000  0.22846000  0.67840000  1
  C  C368  1  0.31500000  0.56220000  0.18218000  1
  C  C369  1  0.31533000  0.27766000  0.29428000  1
  C  C370  1  0.31790000  0.45460000  0.63120000  1
  C  C371  1  0.32442000  0.14504000  0.01156000  1
  C  C372  1  0.32895000  0.77050000  0.48577000  1
  C  C373  1  0.32909000  0.83398000  0.51183000  1
  C  C374  1  0.33059000  0.52058000  0.15457000  1
  C  C375  1  0.33329000  0.06958000  0.21012000  1
  C  C376  1  0.34440000  0.64020000  0.62452000  1
  C  C377  1  0.34511000  0.97562000  0.21058000  1
  C  C378  1  0.34785000  0.35430000  0.37903000  1
  C  C379  1  0.35821000  0.45922000  0.37950000  1
  C  C380  1  0.35889000  0.61378000  0.23674000  1
  C  C381  1  0.36920000  0.90340000  0.02899000  1
  C  C382  1  0.36943000  0.22086000  0.65339000  1
  C  C383  1  0.36949000  0.02438000  0.28942000  1
  C  C384  1  0.37100000  0.74820000  0.04949000  1
  C  C385  1  0.37720000  0.74820000  0.54949000  1
  C  C386  1  0.37744000  0.12468000  0.98730000  1
  C  C387  1  0.37759000  0.56978000  0.20709000  1
  C  C388  1  0.38325000  0.46050000  0.45658000  1
  C  C389  1  0.38602000  0.13864000  0.28918000  1
  C  C390  1  0.39013000  0.18626000  0.11817000  1
  C  C391  1  0.39046000  0.89472000  0.37041000  1
  C  C392  1  0.39070000  0.21260000  0.03681000  1
  C  C393  1  0.39394000  0.99628000  0.36875000  1
  C  C394  1  0.39766000  0.00372000  0.13125000  1
  C  C395  1  0.40523000  0.40146000  0.53939000  1
  C  C396  1  0.40787000  0.30634000  0.54595000  1
  C  C397  1  0.40899000  0.46998000  0.28606000  1
  C  C398  1  0.41034000  0.48268000  0.15259000  1
  C  C399  1  0.41097000  0.37054000  0.28651000  1
  C  C400  1  0.41170000  0.85820000  0.53809000  1
  C  C401  1  0.41340000  0.94600000  0.56177000  1
  C  C402  1  0.42301000  0.68462000  0.93310000  1
  C  C403  1  0.42801000  0.17522000  0.21015000  1
  C  C404  1  0.44155000  0.77050000  0.98577000  1
  C  C405  1  0.44410000  0.89700000  0.28859000  1
  C  C406  1  0.44650000  0.85820000  0.03809000  1
  C  C407  1  0.44783000  0.56086000  0.82541000  1
  C  C408  1  0.45290000  0.89700000  0.78859000  1
  C  C409  1  0.45533000  0.53006000  0.20457000  1
  C  C410  1  0.45630000  0.99480000  0.21180000  1
  C  C411  1  0.46150000  0.00520000  0.28820000  1
  C  C412  1  0.46580000  0.09660000  0.47101000  1
  C  C413  1  0.46740000  0.05400000  0.93823000  1
  C  C414  1  0.47067000  0.48514000  0.17751000  1
  C  C415  1  0.49126000  0.48772000  0.46140000  1
  C  C416  1  0.49166000  0.74532000  0.96164000  1
  C  C417  1  0.49511000  0.16602000  0.98817000  1
  C  C418  1  0.49574000  0.10528000  0.12959000  1
  C  C419  1  0.49794000  0.27268000  0.65522000  1
  C  C420  1  0.50206000  0.72732000  0.34478000  1
  C  C421  1  0.50426000  0.89472000  0.87041000  1
  C  C422  1  0.50489000  0.83398000  0.01183000  1
  C  C423  1  0.50834000  0.25468000  0.03836000  1
  C  C424  1  0.50874000  0.51228000  0.53860000  1
  C  C425  1  0.52933000  0.51486000  0.82249000  1
  C  C426  1  0.53260000  0.94600000  0.06177000  1
  C  C427  1  0.53420000  0.90340000  0.52899000  1
  C  C428  1  0.53850000  0.99480000  0.71180000  1
  C  C429  1  0.54370000  0.00520000  0.78820000  1
  C  C430  1  0.54467000  0.46994000  0.79543000  1
  C  C431  1  0.54710000  0.10300000  0.21141000  1
  C  C432  1  0.55217000  0.43914000  0.17459000  1
  C  C433  1  0.55350000  0.14180000  0.96191000  1
  C  C434  1  0.55590000  0.10300000  0.71141000  1
  C  C435  1  0.55845000  0.22950000  0.01423000  1
  C  C436  1  0.57199000  0.82478000  0.78985000  1
  C  C437  1  0.57699000  0.31538000  0.06690000  1
  C  C438  1  0.58660000  0.05400000  0.43823000  1
  C  C439  1  0.58830000  0.14180000  0.46191000  1
  C  C440  1  0.58903000  0.62946000  0.71349000  1
  C  C441  1  0.58966000  0.51732000  0.84741000  1
  C  C442  1  0.59101000  0.53002000  0.71394000  1
  C  C443  1  0.59213000  0.69366000  0.45405000  1
  C  C444  1  0.59477000  0.59854000  0.46061000  1
  C  C445  1  0.60234000  0.99628000  0.86875000  1
  C  C446  1  0.60606000  0.00372000  0.63125000  1
  C  C447  1  0.60930000  0.78740000  0.96319000  1
  C  C448  1  0.60954000  0.10528000  0.62959000  1
  C  C449  1  0.60987000  0.81374000  0.88183000  1
  C  C450  1  0.61398000  0.86136000  0.71082000  1
  C  C451  1  0.61675000  0.53950000  0.54342000  1
  C  C452  1  0.62241000  0.43022000  0.79291000  1
  C  C453  1  0.62256000  0.87532000  0.01270000  1
  C  C454  1  0.62280000  0.25180000  0.45051000  1
  C  C455  1  0.62900000  0.25180000  0.95051000  1
  C  C456  1  0.63051000  0.97562000  0.71058000  1
  C  C457  1  0.63057000  0.77914000  0.34661000  1
  C  C458  1  0.63080000  0.09660000  0.97101000  1
  C  C459  1  0.64111000  0.38622000  0.76326000  1
  C  C460  1  0.64179000  0.54078000  0.62050000  1
  C  C461  1  0.65215000  0.64570000  0.62097000  1
  C  C462  1  0.65489000  0.02438000  0.78942000  1
  C  C463  1  0.65560000  0.35980000  0.37548000  1
  C  C464  1  0.66666667  0.93042000  0.78988000  1
  C  C465  1  0.66941000  0.47942000  0.84543000  1
  C  C466  1  0.67091000  0.16602000  0.48817000  1
  C  C467  1  0.67105000  0.22950000  0.51423000  1
  C  C468  1  0.67558000  0.85496000  0.98844000  1
  C  C469  1  0.68210000  0.54540000  0.36880000  1
  C  C470  1  0.68467000  0.72234000  0.70572000  1
  C  C471  1  0.68500000  0.43780000  0.81782000  1
  C  C472  1  0.68557000  0.77154000  0.32160000  1
  C  C473  1  0.69303000  0.79186000  0.45343000  1
  C  C474  1  0.69321000  0.83282000  0.70495000  1
  C  C475  1  0.69392000  0.83404000  0.37294000  1
  C  C476  1  0.69570000  0.88340000  0.62668000  1
  C  C477  1  0.70187000  0.99194000  0.62582000  1
  C  C478  1  0.70205000  0.61050000  0.46628000  1
  C  C479  1  0.70290000  0.74860000  0.54477000  1
  C  C480  1  0.70420000  0.35980000  0.87548000  1
  C  C481  1  0.70790000  0.52940000  0.89992000  1
  C  C482  1  0.70993000  0.00806000  0.87418000  1
  C  C483  1  0.71152000  0.91284000  0.88080000  1
  C  C484  1  0.71482000  0.65344000  0.54330000  1
  C  C485  1  0.73629000  0.06958000  0.71012000  1
  C  C486  1  0.73740000  0.48340000  0.87266000  1
  C  C487  1  0.73839000  0.31538000  0.56690000  1
  C  C488  1  0.74511000  0.38622000  0.26326000  1
  C  C489  1  0.74600000  0.48340000  0.37266000  1
  C  C490  1  0.74634000  0.25468000  0.53836000  1
  C  C491  1  0.74721000  0.17522000  0.71015000  1
  C  C492  1  0.74724000  0.12468000  0.48730000  1
  C  C493  1  0.75262000  0.13864000  0.78918000  1
  C  C494  1  0.75280000  0.43780000  0.31782000  1
  C  C495  1  0.75977000  0.74094000  0.62086000  1
  C  C496  1  0.77370000  0.60680000  0.69985000  1
  C  C497  1  0.77474000  0.27268000  0.15522000  1
  C  C498  1  0.77522000  0.85484000  0.62097000  1
  C  C499  1  0.77811000  0.70842000  0.69854000  1
  C  C500  1  0.77907000  0.61334000  0.11921000  1
  C  C501  1  0.78290000  0.72880000  0.26944000  1
  C  C502  1  0.79613000  0.18626000  0.61817000  1
  C  C503  1  0.79778000  0.85376000  0.54475000  1
  C  C504  1  0.79868000  0.08716000  0.61920000  1
  C  C505  1  0.79940000  0.71180000  0.46461000  1
  C  C506  1  0.80435000  0.91110000  0.98949000  1
  C  C507  1  0.80438000  0.81456000  0.32254000  1
  C  C508  1  0.80781000  0.43022000  0.29291000  1
  C  C509  1  0.81001000  0.47942000  0.34543000  1
  C  C510  1  0.81140000  0.75180000  0.80226000  1
  C  C511  1  0.81230000  0.11660000  0.87332000  1
  C  C512  1  0.81254000  0.87988000  0.37449000  1
  C  C513  1  0.82062000  0.14504000  0.51156000  1
  C  C514  1  0.82150000  0.52940000  0.39992000  1
  C  C515  1  0.82190000  0.21260000  0.53681000  1
  C  C516  1  0.82507000  0.67074000  0.54241000  1
  C  C517  1  0.83310000  0.60680000  0.19985000  1
  C  C518  1  0.83427000  0.61334000  0.61921000  1
  C  C519  1  0.84567000  0.67074000  0.04241000  1
  C  C520  1  0.85143000  0.22086000  0.15339000  1
  C  C521  1  0.85155000  0.72190000  0.61943000  1
  C  C522  1  0.85988000  0.16596000  0.12706000  1
  C  C523  1  0.86039000  0.16718000  0.79505000  1
  C  C524  1  0.86273000  0.77866000  0.04211000  1
  C  C525  1  0.86330000  0.54540000  0.86880000  1
  C  C526  1  0.86561000  0.86782000  0.34946000  1
  C  C527  1  0.86610000  0.80440000  0.29537000  1
  C  C528  1  0.87035000  0.72190000  0.11943000  1
  C  C529  1  0.88115000  0.93350000  0.40345000  1
  C  C530  1  0.88697000  0.43914000  0.67459000  1
  C  C531  1  0.89325000  0.08890000  0.51051000  1
  C  C532  1  0.89847000  0.30634000  0.04595000  1
  C  C533  1  0.89899000  0.54078000  0.12050000  1
  C  C534  1  0.90117000  0.20814000  0.04657000  1
  C  C535  1  0.90845000  0.61050000  0.96628000  1
  C  C536  1  0.91240000  0.71180000  0.96461000  1
  C  C537  1  0.91403000  0.22846000  0.17840000  1
  C  C538  1  0.91593000  0.77866000  0.54211000  1
  C  C539  1  0.92038000  0.14516000  0.87903000  1
  C  C540  1  0.92275000  0.53950000  0.04342000  1
  C  C541  1  0.92527000  0.46994000  0.29543000  1
  C  C542  1  0.92766000  0.51732000  0.34741000  1
  C  C543  1  0.93031000  0.70842000  0.19854000  1
  C  C544  1  0.93266000  0.12012000  0.12551000  1
  C  C545  1  0.93830000  0.80440000  0.79537000  1
  C  C546  1  0.93862000  0.65344000  0.04330000  1
  C  C547  1  0.93901000  0.53002000  0.21394000  1
  C  C548  1  0.94040000  0.75180000  0.30226000  1
  C  C549  1  0.94402000  0.14624000  0.95525000  1
  C  C550  1  0.94580000  0.92220000  0.28827000  1
  C  C551  1  0.94590000  0.72880000  0.76944000  1
  C  C552  1  0.94765000  0.06650000  0.09655000  1
  C  C553  1  0.95430000  0.25140000  0.95523000  1
  C  C554  1  0.95957000  0.37054000  0.78651000  1
  C  C555  1  0.96233000  0.27766000  0.79428000  1
  C  C556  1  0.97640000  0.92220000  0.78827000  1
  C  C557  1  0.98117000  0.74094000  0.12086000  1
  C  C558  1  0.98553000  0.51486000  0.32249000  1
  C  C559  1  0.98982000  0.18544000  0.17746000  1
  C  C560  1  0.99355000  0.64570000  0.12097000  1
  C  C561  1  0.99623000  0.40146000  0.03939000  1
  C  C562  1  0.99646000  0.48772000  0.96140000  1
  C  C563  1  0.99779000  0.13218000  0.15054000  1
  N  N564  1  0.00582000  0.80324000  0.95824000  1
  N  N565  1  0.03357000  0.12914000  0.95665000  1
  N  N566  1  0.09557000  0.12914000  0.45665000  1
  N  N567  1  0.16539000  0.48258000  0.79249000  1
  N  N568  1  0.20258000  0.19676000  0.54176000  1
  N  N569  1  0.20814000  0.47728000  0.88043000  1
  N  N570  1  0.26914000  0.47728000  0.38043000  1
  N  N571  1  0.29709000  0.80338000  0.37697000  1
  N  N572  1  0.31719000  0.48258000  0.29249000  1
  N  N573  1  0.34155000  0.80730000  0.28922000  1
  N  N574  1  0.46575000  0.80730000  0.78922000  1
  N  N575  1  0.49371000  0.19662000  0.12303000  1
  N  N576  1  0.50629000  0.80338000  0.87697000  1
  N  N577  1  0.53425000  0.19270000  0.21078000  1
  N  N578  1  0.65845000  0.19270000  0.71078000  1
  N  N579  1  0.68281000  0.51742000  0.70751000  1
  N  N580  1  0.70291000  0.19662000  0.62303000  1
  N  N581  1  0.73086000  0.52272000  0.61957000  1
  N  N582  1  0.79186000  0.52272000  0.11957000  1
  N  N583  1  0.79742000  0.80324000  0.45824000  1
  N  N584  1  0.83461000  0.51742000  0.20751000  1
  N  N585  1  0.90443000  0.87086000  0.54335000  1
  N  N586  1  0.96643000  0.87086000  0.04335000  1
  N  N587  1  0.99418000  0.19676000  0.04176000  1
  O  O588  1  0.03718000  0.08196000  0.59084000  1
  O  O589  1  0.04478000  0.08196000  0.09084000  1
  O  O590  1  0.04720000  0.89554000  0.46668000  1
  O  O591  1  0.11344000  0.97242000  0.51260000  1
  O  O592  1  0.13652000  0.98708000  0.92204000  1
  O  O593  1  0.14102000  0.02758000  0.98740000  1
  O  O594  1  0.14944000  0.01292000  0.57796000  1
  O  O595  1  0.15166000  0.10446000  0.03332000  1
  O  O596  1  0.15730000  0.56918000  0.34977000  1
  O  O597  1  0.16457000  0.58628000  0.30257000  1
  O  O598  1  0.17445000  0.62806000  0.41536000  1
  O  O599  1  0.22223000  0.66326000  0.75594000  1
  O  O600  1  0.24771000  0.70010000  0.86761000  1
  O  O601  1  0.26041000  0.59602000  0.24256000  1
  O  O602  1  0.26223000  0.71736000  0.82059000  1
  O  O603  1  0.33561000  0.59602000  0.74256000  1
  O  O604  1  0.34029000  0.69786000  0.92608000  1
  O  O605  1  0.35757000  0.69786000  0.42608000  1
  O  O606  1  0.41188000  0.56918000  0.84977000  1
  O  O607  1  0.42171000  0.58628000  0.80257000  1
  O  O608  1  0.44103000  0.66326000  0.25594000  1
  O  O609  1  0.45239000  0.70010000  0.36761000  1
  O  O610  1  0.45361000  0.62806000  0.91536000  1
  O  O611  1  0.45513000  0.71736000  0.32059000  1
  O  O612  1  0.54487000  0.28264000  0.67941000  1
  O  O613  1  0.54639000  0.37194000  0.08464000  1
  O  O614  1  0.54761000  0.29990000  0.63239000  1
  O  O615  1  0.55897000  0.33674000  0.74406000  1
  O  O616  1  0.57829000  0.41372000  0.19743000  1
  O  O617  1  0.58812000  0.43082000  0.15023000  1
  O  O618  1  0.64243000  0.30214000  0.57392000  1
  O  O619  1  0.65971000  0.30214000  0.07392000  1
  O  O620  1  0.66439000  0.40398000  0.25744000  1
  O  O621  1  0.73777000  0.28264000  0.17941000  1
  O  O622  1  0.73959000  0.40398000  0.75744000  1
  O  O623  1  0.75229000  0.29990000  0.13239000  1
  O  O624  1  0.77777000  0.33674000  0.24406000  1
  O  O625  1  0.82555000  0.37194000  0.58464000  1
  O  O626  1  0.83543000  0.41372000  0.69743000  1
  O  O627  1  0.84270000  0.43082000  0.65023000  1
  O  O628  1  0.84834000  0.89554000  0.96668000  1
  O  O629  1  0.85056000  0.98708000  0.42204000  1
  O  O630  1  0.85898000  0.97242000  0.01260000  1
  O  O631  1  0.86348000  0.01292000  0.07796000  1
  O  O632  1  0.88656000  0.02758000  0.48740000  1
  O  O633  1  0.95280000  0.10446000  0.53332000  1
  O  O634  1  0.95522000  0.91804000  0.90916000  1
  O  O635  1  0.96282000  0.91804000  0.40916000  1
