# generated using pymatgen
data_Zn2H24(C11O4)3
_symmetry_space_group_name_H-M   'P 1'
_cell_length_a   12.45800000
_cell_length_b   17.20890000
_cell_length_c   28.38730000
_cell_angle_alpha   81.60040000
_cell_angle_beta   77.32450000
_cell_angle_gamma   68.77910000
_symmetry_Int_Tables_number   1
_chemical_formula_structural   Zn2H24(C11O4)3
_chemical_formula_sum   'Zn8 H96 C132 O48'
_cell_volume   5520.08683356
_cell_formula_units_Z   4
loop_
 _symmetry_equiv_pos_site_id
 _symmetry_equiv_pos_as_xyz
  1  'x, y, z'
loop_
 _atom_site_type_symbol
 _atom_site_label
 _atom_site_symmetry_multiplicity
 _atom_site_fract_x
 _atom_site_fract_y
 _atom_site_fract_z
 _atom_site_occupancy
  Zn  Zn0  1  0.20372000  0.56916000  0.74378000  1
  Zn  Zn1  1  0.27945000  0.13631000  0.17179000  1
  Zn  Zn2  1  0.41245000  0.63631000  0.67179000  1
  Zn  Zn3  1  0.48334000  0.06916000  0.24378000  1
  Zn  Zn4  1  0.51666000  0.93084000  0.75622000  1
  Zn  Zn5  1  0.58755000  0.36369000  0.32821000  1
  Zn  Zn6  1  0.72055000  0.86369000  0.82821000  1
  Zn  Zn7  1  0.79628000  0.43084000  0.25622000  1
  H  H8  1  0.00130000  0.77410000  0.35610000  1
  H  H9  1  0.01380000  0.44300000  0.44940000  1
  H  H10  1  0.01800000  0.27520000  0.07020000  1
  H  H11  1  0.02770000  0.79420000  0.81280000  1
  H  H12  1  0.02830000  0.49280000  0.26600000  1
  H  H13  1  0.04280000  0.70910000  0.31490000  1
  H  H14  1  0.04570000  0.54790000  0.62390000  1
  H  H15  1  0.05280000  0.07860000  0.15300000  1
  H  H16  1  0.05290000  0.97950000  0.10650000  1
  H  H17  1  0.05800000  0.72340000  0.43500000  1
  H  H18  1  0.05900000  0.84210000  0.27950000  1
  H  H19  1  0.06270000  0.09390000  0.91570000  1
  H  H20  1  0.06600000  0.70010000  0.00010000  1
  H  H21  1  0.06680000  0.79090000  0.18510000  1
  H  H22  1  0.07230000  0.40610000  0.58430000  1
  H  H23  1  0.08270000  0.15340000  0.86800000  1
  H  H24  1  0.09380000  0.94300000  0.94940000  1
  H  H25  1  0.10410000  0.34660000  0.63200000  1
  H  H26  1  0.11180000  0.36420000  0.23180000  1
  H  H27  1  0.11860000  0.95270000  0.23950000  1
  H  H28  1  0.13150000  0.72590000  0.14390000  1
  H  H29  1  0.13670000  0.93390000  0.14530000  1
  H  H30  1  0.13890000  0.52050000  0.39350000  1
  H  H31  1  0.18060000  0.65790000  0.22050000  1
  H  H32  1  0.18100000  0.65030000  0.42050000  1
  H  H33  1  0.18660000  0.09080000  0.94940000  1
  H  H34  1  0.21290000  0.99280000  0.76600000  1
  H  H35  1  0.21590000  0.56610000  0.35470000  1
  H  H36  1  0.21640000  0.77660000  0.06500000  1
  H  H37  1  0.21750000  0.95210000  0.87610000  1
  H  H38  1  0.21850000  0.67060000  0.48520000  1
  H  H39  1  0.22680000  0.40920000  0.55060000  1
  H  H40  1  0.23380000  0.20010000  0.50010000  1
  H  H41  1  0.25180000  0.84970000  0.07950000  1
  H  H42  1  0.26320000  0.06610000  0.01910000  1
  H  H43  1  0.28010000  0.65930000  0.55810000  1
  H  H44  1  0.28440000  0.42140000  0.34700000  1
  H  H45  1  0.29220000  0.86420000  0.73180000  1
  H  H46  1  0.31080000  0.54730000  0.26050000  1
  H  H47  1  0.34840000  0.43390000  0.48090000  1
  H  H48  1  0.35880000  0.74840000  0.33540000  1
  H  H49  1  0.36340000  0.22480000  0.42980000  1
  H  H50  1  0.36530000  0.29420000  0.31280000  1
  H  H51  1  0.37430000  0.82940000  0.01480000  1
  H  H52  1  0.41560000  0.86010000  0.29490000  1
  H  H53  1  0.42940000  0.36010000  0.79490000  1
  H  H54  1  0.44260000  0.75160000  0.16460000  1
  H  H55  1  0.49750000  0.84070000  0.94190000  1
  H  H56  1  0.50250000  0.15930000  0.05810000  1
  H  H57  1  0.55740000  0.24840000  0.83540000  1
  H  H58  1  0.57060000  0.63990000  0.20510000  1
  H  H59  1  0.58440000  0.13990000  0.70510000  1
  H  H60  1  0.62570000  0.17060000  0.98520000  1
  H  H61  1  0.63470000  0.70580000  0.68720000  1
  H  H62  1  0.63660000  0.77520000  0.57020000  1
  H  H63  1  0.64120000  0.25160000  0.66460000  1
  H  H64  1  0.65160000  0.56610000  0.51910000  1
  H  H65  1  0.68920000  0.45270000  0.73950000  1
  H  H66  1  0.70780000  0.13580000  0.26820000  1
  H  H67  1  0.71560000  0.57860000  0.65300000  1
  H  H68  1  0.71990000  0.34070000  0.44190000  1
  H  H69  1  0.73680000  0.93390000  0.98090000  1
  H  H70  1  0.74820000  0.15030000  0.92050000  1
  H  H71  1  0.76620000  0.79990000  0.49990000  1
  H  H72  1  0.77320000  0.59080000  0.44940000  1
  H  H73  1  0.78150000  0.32940000  0.51480000  1
  H  H74  1  0.78250000  0.04790000  0.12390000  1
  H  H75  1  0.78360000  0.22340000  0.93500000  1
  H  H76  1  0.78410000  0.43390000  0.64530000  1
  H  H77  1  0.78710000  0.00720000  0.23400000  1
  H  H78  1  0.81340000  0.90920000  0.05060000  1
  H  H79  1  0.81900000  0.34970000  0.57950000  1
  H  H80  1  0.81940000  0.34210000  0.77950000  1
  H  H81  1  0.86110000  0.47950000  0.60650000  1
  H  H82  1  0.86330000  0.06610000  0.85470000  1
  H  H83  1  0.86850000  0.27410000  0.85610000  1
  H  H84  1  0.88140000  0.04730000  0.76050000  1
  H  H85  1  0.88820000  0.63580000  0.76820000  1
  H  H86  1  0.89590000  0.65340000  0.36800000  1
  H  H87  1  0.90620000  0.05700000  0.05060000  1
  H  H88  1  0.91730000  0.84660000  0.13200000  1
  H  H89  1  0.92770000  0.59390000  0.41570000  1
  H  H90  1  0.93320000  0.20910000  0.81490000  1
  H  H91  1  0.93400000  0.29990000  0.99990000  1
  H  H92  1  0.93730000  0.90610000  0.08430000  1
  H  H93  1  0.94100000  0.15790000  0.72050000  1
  H  H94  1  0.94200000  0.27660000  0.56500000  1
  H  H95  1  0.94710000  0.02050000  0.89350000  1
  H  H96  1  0.94720000  0.92140000  0.84700000  1
  H  H97  1  0.95430000  0.45210000  0.37610000  1
  H  H98  1  0.95720000  0.29090000  0.68510000  1
  H  H99  1  0.97170000  0.50720000  0.73400000  1
  H  H100  1  0.97230000  0.20580000  0.18720000  1
  H  H101  1  0.98200000  0.72480000  0.92980000  1
  H  H102  1  0.98620000  0.55700000  0.55060000  1
  H  H103  1  0.99870000  0.22590000  0.64390000  1
  C  C104  1  0.00153000  0.25236000  0.00358000  1
  C  C105  1  0.01746000  0.91000000  0.82368000  1
  C  C106  1  0.02656000  0.14773000  0.89775000  1
  C  C107  1  0.04643000  0.57763000  0.55211000  1
  C  C108  1  0.05153000  0.23695000  0.04559000  1
  C  C109  1  0.05315000  0.19694000  0.96816000  1
  C  C110  1  0.05364000  0.64926000  0.38446000  1
  C  C111  1  0.05919000  0.72003000  0.34539000  1
  C  C112  1  0.06574000  0.83446000  0.80346000  1
  C  C113  1  0.06684000  0.93555000  0.13337000  1
  C  C114  1  0.07092000  0.96923000  0.81013000  1
  C  C115  1  0.07204000  0.35227000  0.60225000  1
  C  C116  1  0.08168000  0.57237000  0.59567000  1
  C  C117  1  0.08736000  0.85074000  0.11554000  1
  C  C118  1  0.09497000  0.66398000  0.42768000  1
  C  C119  1  0.09682000  0.45229000  0.27547000  1
  C  C120  1  0.09855000  0.61268000  0.51062000  1
  C  C121  1  0.12461000  0.77997000  0.15461000  1
  C  C122  1  0.13085000  0.84612000  0.28298000  1
  C  C123  1  0.13576000  0.56445000  0.36663000  1
  C  C124  1  0.14624000  0.37565000  0.25547000  1
  C  C125  1  0.14741000  0.16773000  0.05145000  1
  C  C126  1  0.14972000  0.46923000  0.31013000  1
  C  C127  1  0.15062000  0.12853000  0.97423000  1
  C  C128  1  0.16720000  0.91121000  0.25899000  1
  C  C129  1  0.16864000  0.60232000  0.59860000  1
  C  C130  1  0.16970000  0.81513000  0.76947000  1
  C  C131  1  0.17542000  0.95229000  0.77547000  1
  C  C132  1  0.17617000  0.92237000  0.94789000  1
  C  C133  1  0.18437000  0.64459000  0.51327000  1
  C  C134  1  0.18663000  0.83602000  0.07232000  1
  C  C135  1  0.19631000  0.11413000  0.01545000  1
  C  C136  1  0.20200000  0.78706000  0.31214000  1
  C  C137  1  0.20279000  0.14959000  0.09703000  1
  C  C138  1  0.20670000  0.59879000  0.64521000  1
  C  C139  1  0.21825000  0.30306000  0.53184000  1
  C  C140  1  0.22000000  0.63854000  0.55666000  1
  C  C141  1  0.22185000  0.88732000  0.98938000  1
  C  C142  1  0.22264000  0.87565000  0.75547000  1
  C  C143  1  0.22402000  0.73277000  0.74839000  1
  C  C144  1  0.24570000  0.31513000  0.26947000  1
  C  C145  1  0.24886000  0.41000000  0.32368000  1
  C  C146  1  0.24972000  0.92763000  0.90433000  1
  C  C147  1  0.25338000  0.37147000  0.52577000  1
  C  C148  1  0.25747000  0.24764000  0.49642000  1
  C  C149  1  0.25995000  0.65388000  0.21702000  1
  C  C150  1  0.27331000  0.91650000  0.26308000  1
  C  C151  1  0.29482000  0.23277000  0.24839000  1
  C  C152  1  0.29634000  0.33446000  0.30346000  1
  C  C153  1  0.30120000  0.71294000  0.18786000  1
  C  C154  1  0.30949000  0.79036000  0.31626000  1
  C  C155  1  0.31108000  0.98796000  0.23868000  1
  C  C156  1  0.32589000  0.38587000  0.48455000  1
  C  C157  1  0.33407000  0.26305000  0.45441000  1
  C  C158  1  0.33740000  0.58879000  0.24101000  1
  C  C159  1  0.34223000  0.85541000  0.98673000  1
  C  C160  1  0.34331000  0.85637000  0.29181000  1
  C  C161  1  0.36659000  0.33227000  0.44855000  1
  C  C162  1  0.36956000  0.89768000  0.90140000  1
  C  C163  1  0.41520000  0.86146000  0.94334000  1
  C  C164  1  0.41611000  0.70964000  0.18374000  1
  C  C165  1  0.44941000  0.35041000  0.40297000  1
  C  C166  1  0.45070000  0.90121000  0.85479000  1
  C  C167  1  0.45289000  0.58350000  0.23692000  1
  C  C168  1  0.46228000  0.48796000  0.73868000  1
  C  C169  1  0.49149000  0.64363000  0.20819000  1
  C  C170  1  0.50851000  0.35637000  0.79181000  1
  C  C171  1  0.53772000  0.51204000  0.26132000  1
  C  C172  1  0.54711000  0.41650000  0.76308000  1
  C  C173  1  0.54930000  0.09879000  0.14521000  1
  C  C174  1  0.55059000  0.64959000  0.59703000  1
  C  C175  1  0.58389000  0.29036000  0.81626000  1
  C  C176  1  0.58480000  0.13854000  0.05666000  1
  C  C177  1  0.63044000  0.10232000  0.09860000  1
  C  C178  1  0.63341000  0.66773000  0.55145000  1
  C  C179  1  0.65669000  0.14363000  0.70819000  1
  C  C180  1  0.65777000  0.14459000  0.01327000  1
  C  C181  1  0.66260000  0.41121000  0.75899000  1
  C  C182  1  0.66593000  0.73695000  0.54559000  1
  C  C183  1  0.67411000  0.61413000  0.51545000  1
  C  C184  1  0.68892000  0.01204000  0.76132000  1
  C  C185  1  0.69051000  0.20964000  0.68374000  1
  C  C186  1  0.69880000  0.28706000  0.81214000  1
  C  C187  1  0.70366000  0.66554000  0.69654000  1
  C  C188  1  0.70518000  0.76723000  0.75161000  1
  C  C189  1  0.72669000  0.08350000  0.73692000  1
  C  C190  1  0.74005000  0.34612000  0.78298000  1
  C  C191  1  0.74253000  0.75236000  0.50358000  1
  C  C192  1  0.74662000  0.62853000  0.47423000  1
  C  C193  1  0.75028000  0.07237000  0.09567000  1
  C  C194  1  0.75114000  0.59000000  0.67632000  1
  C  C195  1  0.75430000  0.68487000  0.73053000  1
  C  C196  1  0.77598000  0.26723000  0.25161000  1
  C  C197  1  0.77736000  0.12435000  0.24453000  1
  C  C198  1  0.77815000  0.11268000  0.01062000  1
  C  C199  1  0.78000000  0.36146000  0.44334000  1
  C  C200  1  0.78175000  0.69694000  0.46816000  1
  C  C201  1  0.79330000  0.40121000  0.35479000  1
  C  C202  1  0.79721000  0.85041000  0.90297000  1
  C  C203  1  0.79800000  0.21294000  0.68786000  1
  C  C204  1  0.80369000  0.88587000  0.98455000  1
  C  C205  1  0.81337000  0.16398000  0.92768000  1
  C  C206  1  0.81563000  0.35541000  0.48673000  1
  C  C207  1  0.82383000  0.07763000  0.05211000  1
  C  C208  1  0.82458000  0.04771000  0.22453000  1
  C  C209  1  0.83030000  0.18487000  0.23053000  1
  C  C210  1  0.83136000  0.39768000  0.40140000  1
  C  C211  1  0.83280000  0.08879000  0.74101000  1
  C  C212  1  0.84938000  0.87147000  0.02577000  1
  C  C213  1  0.85028000  0.53077000  0.68987000  1
  C  C214  1  0.85259000  0.83227000  0.94855000  1
  C  C215  1  0.85376000  0.62435000  0.74453000  1
  C  C216  1  0.86424000  0.43555000  0.63337000  1
  C  C217  1  0.86915000  0.15388000  0.71702000  1
  C  C218  1  0.87539000  0.22003000  0.84539000  1
  C  C219  1  0.90145000  0.38732000  0.48938000  1
  C  C220  1  0.90318000  0.54771000  0.72453000  1
  C  C221  1  0.90503000  0.33602000  0.57232000  1
  C  C222  1  0.91264000  0.14926000  0.88446000  1
  C  C223  1  0.91832000  0.42763000  0.40433000  1
  C  C224  1  0.92796000  0.64773000  0.39775000  1
  C  C225  1  0.92908000  0.03077000  0.18987000  1
  C  C226  1  0.93316000  0.06445000  0.86663000  1
  C  C227  1  0.93426000  0.16554000  0.19654000  1
  C  C228  1  0.94081000  0.27997000  0.65461000  1
  C  C229  1  0.94636000  0.35074000  0.61554000  1
  C  C230  1  0.94685000  0.80306000  0.03184000  1
  C  C231  1  0.94847000  0.76305000  0.95441000  1
  C  C232  1  0.95357000  0.42237000  0.44789000  1
  C  C233  1  0.97344000  0.85227000  0.10225000  1
  C  C234  1  0.98254000  0.09000000  0.17632000  1
  C  C235  1  0.99847000  0.74764000  0.99642000  1
  O  O236  1  0.00022000  0.21578000  0.92738000  1
  O  O237  1  0.03284000  0.04615000  0.82835000  1
  O  O238  1  0.06288000  0.61102000  0.46878000  1
  O  O239  1  0.09266000  0.54615000  0.32835000  1
  O  O240  1  0.14268000  0.88898000  0.03122000  1
  O  O241  1  0.14338000  0.28422000  0.57262000  1
  O  O242  1  0.16071000  0.56483000  0.68237000  1
  O  O243  1  0.16763000  0.20372000  0.12662000  1
  O  O244  1  0.17050000  0.67987000  0.76193000  1
  O  O245  1  0.17563000  0.72142000  0.33858000  1
  O  O246  1  0.23563000  0.77858000  0.16142000  1
  O  O247  1  0.24092000  0.21976000  0.21960000  1
  O  O248  1  0.24759000  0.04143000  0.21147000  1
  O  O249  1  0.28084000  0.08130000  0.10242000  1
  O  O250  1  0.28153000  0.63215000  0.64505000  1
  O  O251  1  0.31972000  0.71976000  0.71960000  1
  O  O252  1  0.35770000  0.48938000  0.74682000  1
  O  O253  1  0.38770000  0.17987000  0.26193000  1
  O  O254  1  0.40610000  0.98938000  0.24682000  1
  O  O255  1  0.40791000  0.93517000  0.81763000  1
  O  O256  1  0.44127000  0.13215000  0.14505000  1
  O  O257  1  0.46456000  0.41870000  0.39758000  1
  O  O258  1  0.49797000  0.29628000  0.37338000  1
  O  O259  1  0.49951000  0.54143000  0.71147000  1
  O  O260  1  0.50049000  0.45857000  0.28853000  1
  O  O261  1  0.50203000  0.70372000  0.62662000  1
  O  O262  1  0.53544000  0.58130000  0.60242000  1
  O  O263  1  0.55873000  0.86785000  0.85495000  1
  O  O264  1  0.59209000  0.06483000  0.18237000  1
  O  O265  1  0.59390000  0.01062000  0.75318000  1
  O  O266  1  0.61230000  0.82013000  0.73807000  1
  O  O267  1  0.64230000  0.51062000  0.25318000  1
  O  O268  1  0.68028000  0.28024000  0.28040000  1
  O  O269  1  0.71847000  0.36785000  0.35495000  1
  O  O270  1  0.71916000  0.91870000  0.89758000  1
  O  O271  1  0.75241000  0.95857000  0.78853000  1
  O  O272  1  0.75908000  0.78024000  0.78040000  1
  O  O273  1  0.76437000  0.22142000  0.83858000  1
  O  O274  1  0.82437000  0.27858000  0.66142000  1
  O  O275  1  0.82950000  0.32013000  0.23807000  1
  O  O276  1  0.83237000  0.79628000  0.87338000  1
  O  O277  1  0.83929000  0.43517000  0.31763000  1
  O  O278  1  0.85662000  0.71578000  0.42738000  1
  O  O279  1  0.85732000  0.11102000  0.96878000  1
  O  O280  1  0.90734000  0.45385000  0.67165000  1
  O  O281  1  0.93712000  0.38898000  0.53122000  1
  O  O282  1  0.96716000  0.95385000  0.17165000  1
  O  O283  1  0.99978000  0.78422000  0.07262000  1
