# generated using pymatgen
data_Nd4B4H158C139N2O31
_symmetry_space_group_name_H-M   'P 1'
_cell_length_a   18.21510000
_cell_length_b   27.28600000
_cell_length_c   37.61400000
_cell_angle_alpha   90.00000000
_cell_angle_beta   90.00000000
_cell_angle_gamma   90.00000000
_symmetry_Int_Tables_number   1
_chemical_formula_structural   Nd4B4H158C139N2O31
_chemical_formula_sum   'Nd16 B16 H632 C556 N8 O124'
_cell_volume   18694.80566042
_cell_formula_units_Z   4
loop_
 _symmetry_equiv_pos_site_id
 _symmetry_equiv_pos_as_xyz
  1  'x, y, z'
loop_
 _atom_site_type_symbol
 _atom_site_label
 _atom_site_symmetry_multiplicity
 _atom_site_fract_x
 _atom_site_fract_y
 _atom_site_fract_z
 _atom_site_occupancy
  Nd  Nd0  1  0.12156000  0.25160000  0.90436000  1
  Nd  Nd1  1  0.12156000  0.74840000  0.59564000  1
  Nd  Nd2  1  0.12616000  0.25543000  0.02671000  1
  Nd  Nd3  1  0.12616000  0.74457000  0.47329000  1
  Nd  Nd4  1  0.37384000  0.24457000  0.02671000  1
  Nd  Nd5  1  0.37384000  0.75543000  0.47329000  1
  Nd  Nd6  1  0.37844000  0.24840000  0.90436000  1
  Nd  Nd7  1  0.37844000  0.75160000  0.59564000  1
  Nd  Nd8  1  0.62156000  0.24840000  0.40436000  1
  Nd  Nd9  1  0.62156000  0.75160000  0.09564000  1
  Nd  Nd10  1  0.62616000  0.24457000  0.52671000  1
  Nd  Nd11  1  0.62616000  0.75543000  0.97329000  1
  Nd  Nd12  1  0.87384000  0.25543000  0.52671000  1
  Nd  Nd13  1  0.87384000  0.74457000  0.97329000  1
  Nd  Nd14  1  0.87844000  0.25160000  0.40436000  1
  Nd  Nd15  1  0.87844000  0.74840000  0.09564000  1
  B  B16  1  0.24430000  0.06250000  0.46800000  1
  B  B17  1  0.24430000  0.93750000  0.03200000  1
  B  B18  1  0.25000000  0.25000000  0.25550000  1
  B  B19  1  0.25000000  0.25000000  0.67740000  1
  B  B20  1  0.25000000  0.75000000  0.24450000  1
  B  B21  1  0.25000000  0.75000000  0.82260000  1
  B  B22  1  0.25570000  0.43750000  0.46800000  1
  B  B23  1  0.25570000  0.56250000  0.03200000  1
  B  B24  1  0.74430000  0.43750000  0.96800000  1
  B  B25  1  0.74430000  0.56250000  0.53200000  1
  B  B26  1  0.75000000  0.25000000  0.17740000  1
  B  B27  1  0.75000000  0.25000000  0.75550000  1
  B  B28  1  0.75000000  0.75000000  0.32260000  1
  B  B29  1  0.75000000  0.75000000  0.74450000  1
  B  B30  1  0.75570000  0.06250000  0.96800000  1
  B  B31  1  0.75570000  0.93750000  0.53200000  1
  H  H32  1  0.00160000  0.07670000  0.88880000  1
  H  H33  1  0.00160000  0.92330000  0.61120000  1
  H  H34  1  0.00600000  0.40700000  0.39610000  1
  H  H35  1  0.00600000  0.59300000  0.10390000  1
  H  H36  1  0.01230000  0.07320000  0.02510000  1
  H  H37  1  0.01230000  0.92680000  0.47490000  1
  H  H38  1  0.01440000  0.31300000  0.17560000  1
  H  H39  1  0.01440000  0.68700000  0.32440000  1
  H  H40  1  0.01510000  0.05700000  0.92740000  1
  H  H41  1  0.01510000  0.94300000  0.57260000  1
  H  H42  1  0.02220000  0.19450000  0.76130000  1
  H  H43  1  0.02220000  0.80550000  0.73870000  1
  H  H44  1  0.02700000  0.43770000  0.92740000  1
  H  H45  1  0.02700000  0.56230000  0.57260000  1
  H  H46  1  0.03120000  0.12910000  0.02710000  1
  H  H47  1  0.03120000  0.87090000  0.47290000  1
  H  H48  1  0.03760000  0.31500000  0.13550000  1
  H  H49  1  0.03760000  0.68500000  0.36450000  1
  H  H50  1  0.04120000  0.19300000  0.80190000  1
  H  H51  1  0.04120000  0.80700000  0.69810000  1
  H  H52  1  0.04740000  0.38220000  0.92330000  1
  H  H53  1  0.04740000  0.61780000  0.57670000  1
  H  H54  1  0.04810000  0.02900000  0.89470000  1
  H  H55  1  0.04810000  0.97100000  0.60530000  1
  H  H56  1  0.05960000  0.26980000  0.15890000  1
  H  H57  1  0.05960000  0.73020000  0.34110000  1
  H  H58  1  0.06060000  0.18460000  0.23470000  1
  H  H59  1  0.06060000  0.81540000  0.26530000  1
  H  H60  1  0.06130000  0.09720000  0.99570000  1
  H  H61  1  0.06130000  0.90280000  0.50430000  1
  H  H62  1  0.06180000  0.23910000  0.77920000  1
  H  H63  1  0.06180000  0.76090000  0.72080000  1
  H  H64  1  0.06260000  0.29320000  0.52700000  1
  H  H65  1  0.06260000  0.70680000  0.97300000  1
  H  H66  1  0.06290000  0.18120000  0.55910000  1
  H  H67  1  0.06290000  0.81880000  0.94090000  1
  H  H68  1  0.06680000  0.21580000  0.40880000  1
  H  H69  1  0.06680000  0.78420000  0.09120000  1
  H  H70  1  0.07180000  0.30010000  0.71140000  1
  H  H71  1  0.07180000  0.69990000  0.78860000  1
  H  H72  1  0.07390000  0.01850000  0.51170000  1
  H  H73  1  0.07390000  0.98150000  0.98830000  1
  H  H74  1  0.07930000  0.14580000  0.86990000  1
  H  H75  1  0.07930000  0.85420000  0.63010000  1
  H  H76  1  0.07960000  0.34710000  0.36260000  1
  H  H77  1  0.07960000  0.65290000  0.13740000  1
  H  H78  1  0.09020000  0.46550000  0.40400000  1
  H  H79  1  0.09020000  0.53450000  0.09600000  1
  H  H80  1  0.10290000  0.26480000  0.49650000  1
  H  H81  1  0.10290000  0.73520000  0.00350000  1
  H  H82  1  0.10600000  0.09150000  0.08280000  1
  H  H83  1  0.10600000  0.90850000  0.41720000  1
  H  H84  1  0.10710000  0.33920000  0.68610000  1
  H  H85  1  0.10710000  0.66080000  0.81390000  1
  H  H86  1  0.10760000  0.24140000  0.44050000  1
  H  H87  1  0.10760000  0.75860000  0.05950000  1
  H  H88  1  0.10950000  0.30180000  0.38390000  1
  H  H89  1  0.10950000  0.69820000  0.11610000  1
  H  H90  1  0.11230000  0.00380000  0.08620000  1
  H  H91  1  0.11230000  0.99620000  0.41380000  1
  H  H92  1  0.11370000  0.05260000  0.53920000  1
  H  H93  1  0.11370000  0.94740000  0.96080000  1
  H  H94  1  0.11780000  0.21800000  0.21510000  1
  H  H95  1  0.11780000  0.78200000  0.28490000  1
  H  H96  1  0.11800000  0.14440000  0.57670000  1
  H  H97  1  0.11800000  0.85560000  0.92330000  1
  H  H98  1  0.14430000  0.49180000  0.43020000  1
  H  H99  1  0.14430000  0.50820000  0.06980000  1
  H  H100  1  0.14480000  0.17450000  0.23900000  1
  H  H101  1  0.14480000  0.82550000  0.26100000  1
  H  H102  1  0.14530000  0.47490000  0.51650000  1
  H  H103  1  0.14530000  0.52510000  0.98350000  1
  H  H104  1  0.14720000  0.07200000  0.95490000  1
  H  H105  1  0.14720000  0.92800000  0.54510000  1
  H  H106  1  0.14770000  0.18920000  0.55500000  1
  H  H107  1  0.14770000  0.81080000  0.94500000  1
  H  H108  1  0.14850000  0.15600000  0.72630000  1
  H  H109  1  0.14850000  0.84400000  0.77370000  1
  H  H110  1  0.14860000  0.29020000  0.52660000  1
  H  H111  1  0.14860000  0.70980000  0.97340000  1
  H  H112  1  0.15030000  0.34510000  0.20930000  1
  H  H113  1  0.15030000  0.65490000  0.29070000  1
  H  H114  1  0.15260000  0.37650000  0.98180000  1
  H  H115  1  0.15260000  0.62350000  0.51820000  1
  H  H116  1  0.15280000  0.21550000  0.41040000  1
  H  H117  1  0.15280000  0.78450000  0.08960000  1
  H  H118  1  0.15350000  0.34340000  0.14020000  1
  H  H119  1  0.15350000  0.65660000  0.35980000  1
  H  H120  1  0.15420000  0.15450000  0.79050000  1
  H  H121  1  0.15420000  0.84550000  0.70950000  1
  H  H122  1  0.15750000  0.30440000  0.70860000  1
  H  H123  1  0.15750000  0.69560000  0.79140000  1
  H  H124  1  0.15980000  0.02250000  0.51150000  1
  H  H125  1  0.15980000  0.97750000  0.98850000  1
  H  H126  1  0.16010000  0.13590000  0.07910000  1
  H  H127  1  0.16010000  0.86410000  0.42090000  1
  H  H128  1  0.16200000  0.48140000  0.95770000  1
  H  H129  1  0.16200000  0.51860000  0.54230000  1
  H  H130  1  0.16380000  0.42180000  0.95680000  1
  H  H131  1  0.16380000  0.57820000  0.54320000  1
  H  H132  1  0.16440000  0.33850000  0.36580000  1
  H  H133  1  0.16440000  0.66150000  0.13420000  1
  H  H134  1  0.17030000  0.03860000  0.41570000  1
  H  H135  1  0.17030000  0.96140000  0.08430000  1
  H  H136  1  0.17430000  0.45330000  0.40290000  1
  H  H137  1  0.17430000  0.54670000  0.09710000  1
  H  H138  1  0.17620000  0.09420000  0.10680000  1
  H  H139  1  0.17620000  0.90580000  0.39320000  1
  H  H140  1  0.18010000  0.04100000  0.92370000  1
  H  H141  1  0.18010000  0.95900000  0.57630000  1
  H  H142  1  0.18410000  0.00670000  0.10920000  1
  H  H143  1  0.18410000  0.99330000  0.39080000  1
  H  H144  1  0.20000000  0.16790000  0.69400000  1
  H  H145  1  0.20000000  0.83210000  0.80600000  1
  H  H146  1  0.20220000  0.33060000  0.24080000  1
  H  H147  1  0.20220000  0.66940000  0.25920000  1
  H  H148  1  0.20570000  0.09530000  0.92940000  1
  H  H149  1  0.20570000  0.90470000  0.57060000  1
  H  H150  1  0.20800000  0.35960000  0.54260000  1
  H  H151  1  0.20800000  0.64040000  0.95740000  1
  H  H152  1  0.20830000  0.16880000  0.82120000  1
  H  H153  1  0.20830000  0.83120000  0.67880000  1
  H  H154  1  0.20940000  0.32800000  0.11060000  1
  H  H155  1  0.20940000  0.67200000  0.38940000  1
  H  H156  1  0.21510000  0.17570000  0.40470000  1
  H  H157  1  0.21510000  0.82430000  0.09530000  1
  H  H158  1  0.21790000  0.47510000  0.53880000  1
  H  H159  1  0.21790000  0.52490000  0.96120000  1
  H  H160  1  0.22090000  0.18330000  0.29900000  1
  H  H161  1  0.22090000  0.30210000  0.61410000  1
  H  H162  1  0.22090000  0.69790000  0.88590000  1
  H  H163  1  0.22090000  0.81670000  0.20100000  1
  H  H164  1  0.22430000  0.38100000  0.95900000  1
  H  H165  1  0.22430000  0.61900000  0.54100000  1
  H  H166  1  0.22460000  0.16120000  0.59590000  1
  H  H167  1  0.22460000  0.83880000  0.90410000  1
  H  H168  1  0.22560000  0.35550000  0.31540000  1
  H  H169  1  0.22560000  0.64450000  0.18460000  1
  H  H170  1  0.22670000  0.35190000  0.42800000  1
  H  H171  1  0.22670000  0.64810000  0.07200000  1
  H  H172  1  0.22720000  0.11930000  0.39970000  1
  H  H173  1  0.22720000  0.88070000  0.10030000  1
  H  H174  1  0.22880000  0.13540000  0.72550000  1
  H  H175  1  0.22880000  0.86460000  0.77450000  1
  H  H176  1  0.23020000  0.12140000  0.51700000  1
  H  H177  1  0.23020000  0.87860000  0.98300000  1
  H  H178  1  0.23140000  0.36440000  0.21020000  1
  H  H179  1  0.23140000  0.63560000  0.28980000  1
  H  H180  1  0.23420000  0.36330000  0.14120000  1
  H  H181  1  0.23420000  0.63670000  0.35880000  1
  H  H182  1  0.23550000  0.13580000  0.78970000  1
  H  H183  1  0.23550000  0.86420000  0.71030000  1
  H  H184  1  0.24100000  0.18580000  0.33940000  1
  H  H185  1  0.24100000  0.81420000  0.16060000  1
  H  H186  1  0.24350000  0.15550000  0.63630000  1
  H  H187  1  0.24350000  0.84450000  0.86370000  1
  H  H188  1  0.24650000  0.32330000  0.51620000  1
  H  H189  1  0.24650000  0.67670000  0.98380000  1
  H  H190  1  0.25350000  0.17670000  0.51620000  1
  H  H191  1  0.25350000  0.82330000  0.98380000  1
  H  H192  1  0.25650000  0.34450000  0.63630000  1
  H  H193  1  0.25650000  0.65550000  0.86370000  1
  H  H194  1  0.25900000  0.31420000  0.33940000  1
  H  H195  1  0.25900000  0.68580000  0.16060000  1
  H  H196  1  0.26450000  0.36420000  0.78970000  1
  H  H197  1  0.26450000  0.63580000  0.71030000  1
  H  H198  1  0.26580000  0.13670000  0.14120000  1
  H  H199  1  0.26580000  0.86330000  0.35880000  1
  H  H200  1  0.26860000  0.13560000  0.21020000  1
  H  H201  1  0.26860000  0.86440000  0.28980000  1
  H  H202  1  0.26980000  0.37860000  0.51700000  1
  H  H203  1  0.26980000  0.62140000  0.98300000  1
  H  H204  1  0.27120000  0.36460000  0.72550000  1
  H  H205  1  0.27120000  0.63540000  0.77450000  1
  H  H206  1  0.27280000  0.38070000  0.39970000  1
  H  H207  1  0.27280000  0.61930000  0.10030000  1
  H  H208  1  0.27330000  0.14810000  0.42800000  1
  H  H209  1  0.27330000  0.85190000  0.07200000  1
  H  H210  1  0.27440000  0.14450000  0.31540000  1
  H  H211  1  0.27440000  0.85550000  0.18460000  1
  H  H212  1  0.27540000  0.33880000  0.59590000  1
  H  H213  1  0.27540000  0.66120000  0.90410000  1
  H  H214  1  0.27570000  0.11900000  0.95900000  1
  H  H215  1  0.27570000  0.88100000  0.54100000  1
  H  H216  1  0.27910000  0.19790000  0.61410000  1
  H  H217  1  0.27910000  0.31670000  0.29900000  1
  H  H218  1  0.27910000  0.68330000  0.20100000  1
  H  H219  1  0.27910000  0.80210000  0.88590000  1
  H  H220  1  0.28210000  0.02490000  0.53880000  1
  H  H221  1  0.28210000  0.97510000  0.96120000  1
  H  H222  1  0.28490000  0.32430000  0.40470000  1
  H  H223  1  0.28490000  0.67570000  0.09530000  1
  H  H224  1  0.29060000  0.17200000  0.11060000  1
  H  H225  1  0.29060000  0.82800000  0.38940000  1
  H  H226  1  0.29170000  0.33120000  0.82120000  1
  H  H227  1  0.29170000  0.66880000  0.67880000  1
  H  H228  1  0.29200000  0.14040000  0.54260000  1
  H  H229  1  0.29200000  0.85960000  0.95740000  1
  H  H230  1  0.29430000  0.40470000  0.92940000  1
  H  H231  1  0.29430000  0.59530000  0.57060000  1
  H  H232  1  0.29780000  0.16940000  0.24080000  1
  H  H233  1  0.29780000  0.83060000  0.25920000  1
  H  H234  1  0.30000000  0.33210000  0.69400000  1
  H  H235  1  0.30000000  0.66790000  0.80600000  1
  H  H236  1  0.31590000  0.49330000  0.10920000  1
  H  H237  1  0.31590000  0.50670000  0.39080000  1
  H  H238  1  0.31990000  0.45900000  0.92370000  1
  H  H239  1  0.31990000  0.54100000  0.57630000  1
  H  H240  1  0.32380000  0.40580000  0.10680000  1
  H  H241  1  0.32380000  0.59420000  0.39320000  1
  H  H242  1  0.32570000  0.04670000  0.40290000  1
  H  H243  1  0.32570000  0.95330000  0.09710000  1
  H  H244  1  0.32970000  0.46140000  0.41570000  1
  H  H245  1  0.32970000  0.53860000  0.08430000  1
  H  H246  1  0.33560000  0.16150000  0.36580000  1
  H  H247  1  0.33560000  0.83850000  0.13420000  1
  H  H248  1  0.33620000  0.07820000  0.95680000  1
  H  H249  1  0.33620000  0.92180000  0.54320000  1
  H  H250  1  0.33800000  0.01860000  0.95770000  1
  H  H251  1  0.33800000  0.98140000  0.54230000  1
  H  H252  1  0.33990000  0.36410000  0.07910000  1
  H  H253  1  0.33990000  0.63590000  0.42090000  1
  H  H254  1  0.34020000  0.47750000  0.51150000  1
  H  H255  1  0.34020000  0.52250000  0.98850000  1
  H  H256  1  0.34250000  0.19560000  0.70860000  1
  H  H257  1  0.34250000  0.80440000  0.79140000  1
  H  H258  1  0.34580000  0.34550000  0.79050000  1
  H  H259  1  0.34580000  0.65450000  0.70950000  1
  H  H260  1  0.34650000  0.15660000  0.14020000  1
  H  H261  1  0.34650000  0.84340000  0.35980000  1
  H  H262  1  0.34720000  0.28450000  0.41040000  1
  H  H263  1  0.34720000  0.71550000  0.08960000  1
  H  H264  1  0.34740000  0.12350000  0.98180000  1
  H  H265  1  0.34740000  0.87650000  0.51820000  1
  H  H266  1  0.34970000  0.15490000  0.20930000  1
  H  H267  1  0.34970000  0.84510000  0.29070000  1
  H  H268  1  0.35140000  0.20980000  0.52660000  1
  H  H269  1  0.35140000  0.79020000  0.97340000  1
  H  H270  1  0.35150000  0.34400000  0.72630000  1
  H  H271  1  0.35150000  0.65600000  0.77370000  1
  H  H272  1  0.35230000  0.31080000  0.55500000  1
  H  H273  1  0.35230000  0.68920000  0.94500000  1
  H  H274  1  0.35280000  0.42800000  0.95490000  1
  H  H275  1  0.35280000  0.57200000  0.54510000  1
  H  H276  1  0.35470000  0.02510000  0.51650000  1
  H  H277  1  0.35470000  0.97490000  0.98350000  1
  H  H278  1  0.35520000  0.32550000  0.23900000  1
  H  H279  1  0.35520000  0.67450000  0.26100000  1
  H  H280  1  0.35570000  0.00820000  0.43020000  1
  H  H281  1  0.35570000  0.99180000  0.06980000  1
  H  H282  1  0.38200000  0.35560000  0.57670000  1
  H  H283  1  0.38200000  0.64440000  0.92330000  1
  H  H284  1  0.38220000  0.28200000  0.21510000  1
  H  H285  1  0.38220000  0.71800000  0.28490000  1
  H  H286  1  0.38630000  0.44740000  0.53920000  1
  H  H287  1  0.38630000  0.55260000  0.96080000  1
  H  H288  1  0.38770000  0.49620000  0.08620000  1
  H  H289  1  0.38770000  0.50380000  0.41380000  1
  H  H290  1  0.39050000  0.19820000  0.38390000  1
  H  H291  1  0.39050000  0.80180000  0.11610000  1
  H  H292  1  0.39240000  0.25860000  0.44050000  1
  H  H293  1  0.39240000  0.74140000  0.05950000  1
  H  H294  1  0.39290000  0.16080000  0.68610000  1
  H  H295  1  0.39290000  0.83920000  0.81390000  1
  H  H296  1  0.39400000  0.40850000  0.08280000  1
  H  H297  1  0.39400000  0.59150000  0.41720000  1
  H  H298  1  0.39710000  0.23520000  0.49650000  1
  H  H299  1  0.39710000  0.76480000  0.00350000  1
  H  H300  1  0.40980000  0.03450000  0.40400000  1
  H  H301  1  0.40980000  0.96550000  0.09600000  1
  H  H302  1  0.42040000  0.15290000  0.36260000  1
  H  H303  1  0.42040000  0.84710000  0.13740000  1
  H  H304  1  0.42070000  0.35420000  0.86990000  1
  H  H305  1  0.42070000  0.64580000  0.63010000  1
  H  H306  1  0.42610000  0.48150000  0.51170000  1
  H  H307  1  0.42610000  0.51850000  0.98830000  1
  H  H308  1  0.42820000  0.19990000  0.71140000  1
  H  H309  1  0.42820000  0.80010000  0.78860000  1
  H  H310  1  0.43320000  0.28420000  0.40880000  1
  H  H311  1  0.43320000  0.71580000  0.09120000  1
  H  H312  1  0.43710000  0.31880000  0.55910000  1
  H  H313  1  0.43710000  0.68120000  0.94090000  1
  H  H314  1  0.43740000  0.20680000  0.52700000  1
  H  H315  1  0.43740000  0.79320000  0.97300000  1
  H  H316  1  0.43820000  0.26090000  0.77920000  1
  H  H317  1  0.43820000  0.73910000  0.72080000  1
  H  H318  1  0.43870000  0.40280000  0.99570000  1
  H  H319  1  0.43870000  0.59720000  0.50430000  1
  H  H320  1  0.43940000  0.31540000  0.23470000  1
  H  H321  1  0.43940000  0.68460000  0.26530000  1
  H  H322  1  0.44040000  0.23020000  0.15890000  1
  H  H323  1  0.44040000  0.76980000  0.34110000  1
  H  H324  1  0.45190000  0.47100000  0.89470000  1
  H  H325  1  0.45190000  0.52900000  0.60530000  1
  H  H326  1  0.45260000  0.11780000  0.92330000  1
  H  H327  1  0.45260000  0.88220000  0.57670000  1
  H  H328  1  0.45880000  0.30700000  0.80190000  1
  H  H329  1  0.45880000  0.69300000  0.69810000  1
  H  H330  1  0.46240000  0.18500000  0.13550000  1
  H  H331  1  0.46240000  0.81500000  0.36450000  1
  H  H332  1  0.46880000  0.37090000  0.02710000  1
  H  H333  1  0.46880000  0.62910000  0.47290000  1
  H  H334  1  0.47300000  0.06230000  0.92740000  1
  H  H335  1  0.47300000  0.93770000  0.57260000  1
  H  H336  1  0.47780000  0.30550000  0.76130000  1
  H  H337  1  0.47780000  0.69450000  0.73870000  1
  H  H338  1  0.48490000  0.44300000  0.92740000  1
  H  H339  1  0.48490000  0.55700000  0.57260000  1
  H  H340  1  0.48560000  0.18700000  0.17560000  1
  H  H341  1  0.48560000  0.81300000  0.32440000  1
  H  H342  1  0.48770000  0.42680000  0.02510000  1
  H  H343  1  0.48770000  0.57320000  0.47490000  1
  H  H344  1  0.49400000  0.09300000  0.39610000  1
  H  H345  1  0.49400000  0.90700000  0.10390000  1
  H  H346  1  0.49840000  0.42330000  0.88880000  1
  H  H347  1  0.49840000  0.57670000  0.61120000  1
  H  H348  1  0.50160000  0.42330000  0.38880000  1
  H  H349  1  0.50160000  0.57670000  0.11120000  1
  H  H350  1  0.50600000  0.09300000  0.89610000  1
  H  H351  1  0.50600000  0.90700000  0.60390000  1
  H  H352  1  0.51230000  0.42680000  0.52510000  1
  H  H353  1  0.51230000  0.57320000  0.97490000  1
  H  H354  1  0.51440000  0.18700000  0.67560000  1
  H  H355  1  0.51440000  0.81300000  0.82440000  1
  H  H356  1  0.51510000  0.44300000  0.42740000  1
  H  H357  1  0.51510000  0.55700000  0.07260000  1
  H  H358  1  0.52220000  0.30550000  0.26130000  1
  H  H359  1  0.52220000  0.69450000  0.23870000  1
  H  H360  1  0.52700000  0.06230000  0.42740000  1
  H  H361  1  0.52700000  0.93770000  0.07260000  1
  H  H362  1  0.53120000  0.37090000  0.52710000  1
  H  H363  1  0.53120000  0.62910000  0.97290000  1
  H  H364  1  0.53760000  0.18500000  0.63550000  1
  H  H365  1  0.53760000  0.81500000  0.86450000  1
  H  H366  1  0.54120000  0.30700000  0.30190000  1
  H  H367  1  0.54120000  0.69300000  0.19810000  1
  H  H368  1  0.54740000  0.11780000  0.42330000  1
  H  H369  1  0.54740000  0.88220000  0.07670000  1
  H  H370  1  0.54810000  0.47100000  0.39470000  1
  H  H371  1  0.54810000  0.52900000  0.10530000  1
  H  H372  1  0.55960000  0.23020000  0.65890000  1
  H  H373  1  0.55960000  0.76980000  0.84110000  1
  H  H374  1  0.56060000  0.31540000  0.73470000  1
  H  H375  1  0.56060000  0.68460000  0.76530000  1
  H  H376  1  0.56130000  0.40280000  0.49570000  1
  H  H377  1  0.56130000  0.59720000  0.00430000  1
  H  H378  1  0.56180000  0.26090000  0.27920000  1
  H  H379  1  0.56180000  0.73910000  0.22080000  1
  H  H380  1  0.56260000  0.20680000  0.02700000  1
  H  H381  1  0.56260000  0.79320000  0.47300000  1
  H  H382  1  0.56290000  0.31880000  0.05910000  1
  H  H383  1  0.56290000  0.68120000  0.44090000  1
  H  H384  1  0.56680000  0.28420000  0.90880000  1
  H  H385  1  0.56680000  0.71580000  0.59120000  1
  H  H386  1  0.57180000  0.19990000  0.21140000  1
  H  H387  1  0.57180000  0.80010000  0.28860000  1
  H  H388  1  0.57390000  0.48150000  0.01170000  1
  H  H389  1  0.57390000  0.51850000  0.48830000  1
  H  H390  1  0.57930000  0.35420000  0.36990000  1
  H  H391  1  0.57930000  0.64580000  0.13010000  1
  H  H392  1  0.57960000  0.15290000  0.86260000  1
  H  H393  1  0.57960000  0.84710000  0.63740000  1
  H  H394  1  0.59020000  0.03450000  0.90400000  1
  H  H395  1  0.59020000  0.96550000  0.59600000  1
  H  H396  1  0.60290000  0.23520000  0.99650000  1
  H  H397  1  0.60290000  0.76480000  0.50350000  1
  H  H398  1  0.60600000  0.40850000  0.58280000  1
  H  H399  1  0.60600000  0.59150000  0.91720000  1
  H  H400  1  0.60710000  0.16080000  0.18610000  1
  H  H401  1  0.60710000  0.83920000  0.31390000  1
  H  H402  1  0.60760000  0.25860000  0.94050000  1
  H  H403  1  0.60760000  0.74140000  0.55950000  1
  H  H404  1  0.60950000  0.19820000  0.88390000  1
  H  H405  1  0.60950000  0.80180000  0.61610000  1
  H  H406  1  0.61230000  0.49620000  0.58620000  1
  H  H407  1  0.61230000  0.50380000  0.91380000  1
  H  H408  1  0.61370000  0.44740000  0.03920000  1
  H  H409  1  0.61370000  0.55260000  0.46080000  1
  H  H410  1  0.61780000  0.28200000  0.71510000  1
  H  H411  1  0.61780000  0.71800000  0.78490000  1
  H  H412  1  0.61800000  0.35560000  0.07670000  1
  H  H413  1  0.61800000  0.64440000  0.42330000  1
  H  H414  1  0.64430000  0.00820000  0.93020000  1
  H  H415  1  0.64430000  0.99180000  0.56980000  1
  H  H416  1  0.64480000  0.32550000  0.73900000  1
  H  H417  1  0.64480000  0.67450000  0.76100000  1
  H  H418  1  0.64530000  0.02510000  0.01650000  1
  H  H419  1  0.64530000  0.97490000  0.48350000  1
  H  H420  1  0.64720000  0.42800000  0.45490000  1
  H  H421  1  0.64720000  0.57200000  0.04510000  1
  H  H422  1  0.64770000  0.31080000  0.05500000  1
  H  H423  1  0.64770000  0.68920000  0.44500000  1
  H  H424  1  0.64850000  0.34400000  0.22630000  1
  H  H425  1  0.64850000  0.65600000  0.27370000  1
  H  H426  1  0.64860000  0.20980000  0.02660000  1
  H  H427  1  0.64860000  0.79020000  0.47340000  1
  H  H428  1  0.65030000  0.15490000  0.70930000  1
  H  H429  1  0.65030000  0.84510000  0.79070000  1
  H  H430  1  0.65260000  0.12350000  0.48180000  1
  H  H431  1  0.65260000  0.87650000  0.01820000  1
  H  H432  1  0.65280000  0.28450000  0.91040000  1
  H  H433  1  0.65280000  0.71550000  0.58960000  1
  H  H434  1  0.65350000  0.15660000  0.64020000  1
  H  H435  1  0.65350000  0.84340000  0.85980000  1
  H  H436  1  0.65420000  0.34550000  0.29050000  1
  H  H437  1  0.65420000  0.65450000  0.20950000  1
  H  H438  1  0.65750000  0.19560000  0.20860000  1
  H  H439  1  0.65750000  0.80440000  0.29140000  1
  H  H440  1  0.65980000  0.47750000  0.01150000  1
  H  H441  1  0.65980000  0.52250000  0.48850000  1
  H  H442  1  0.66010000  0.36410000  0.57910000  1
  H  H443  1  0.66010000  0.63590000  0.92090000  1
  H  H444  1  0.66200000  0.01860000  0.45770000  1
  H  H445  1  0.66200000  0.98140000  0.04230000  1
  H  H446  1  0.66380000  0.07820000  0.45680000  1
  H  H447  1  0.66380000  0.92180000  0.04320000  1
  H  H448  1  0.66440000  0.16150000  0.86580000  1
  H  H449  1  0.66440000  0.83850000  0.63420000  1
  H  H450  1  0.67030000  0.46140000  0.91570000  1
  H  H451  1  0.67030000  0.53860000  0.58430000  1
  H  H452  1  0.67430000  0.04670000  0.90290000  1
  H  H453  1  0.67430000  0.95330000  0.59710000  1
  H  H454  1  0.67620000  0.40580000  0.60680000  1
  H  H455  1  0.67620000  0.59420000  0.89320000  1
  H  H456  1  0.68010000  0.45900000  0.42370000  1
  H  H457  1  0.68010000  0.54100000  0.07630000  1
  H  H458  1  0.68410000  0.49330000  0.60920000  1
  H  H459  1  0.68410000  0.50670000  0.89080000  1
  H  H460  1  0.70000000  0.33210000  0.19400000  1
  H  H461  1  0.70000000  0.66790000  0.30600000  1
  H  H462  1  0.70220000  0.16940000  0.74080000  1
  H  H463  1  0.70220000  0.83060000  0.75920000  1
  H  H464  1  0.70570000  0.40470000  0.42940000  1
  H  H465  1  0.70570000  0.59530000  0.07060000  1
  H  H466  1  0.70800000  0.14040000  0.04260000  1
  H  H467  1  0.70800000  0.85960000  0.45740000  1
  H  H468  1  0.70830000  0.33120000  0.32120000  1
  H  H469  1  0.70830000  0.66880000  0.17880000  1
  H  H470  1  0.70940000  0.17200000  0.61060000  1
  H  H471  1  0.70940000  0.82800000  0.88940000  1
  H  H472  1  0.71510000  0.32430000  0.90470000  1
  H  H473  1  0.71510000  0.67570000  0.59530000  1
  H  H474  1  0.71790000  0.02490000  0.03880000  1
  H  H475  1  0.71790000  0.97510000  0.46120000  1
  H  H476  1  0.72090000  0.19790000  0.11410000  1
  H  H477  1  0.72090000  0.31670000  0.79900000  1
  H  H478  1  0.72090000  0.68330000  0.70100000  1
  H  H479  1  0.72090000  0.80210000  0.38590000  1
  H  H480  1  0.72430000  0.11900000  0.45900000  1
  H  H481  1  0.72430000  0.88100000  0.04100000  1
  H  H482  1  0.72460000  0.33880000  0.09590000  1
  H  H483  1  0.72460000  0.66120000  0.40410000  1
  H  H484  1  0.72560000  0.14450000  0.81540000  1
  H  H485  1  0.72560000  0.85550000  0.68460000  1
  H  H486  1  0.72670000  0.14810000  0.92800000  1
  H  H487  1  0.72670000  0.85190000  0.57200000  1
  H  H488  1  0.72720000  0.38070000  0.89970000  1
  H  H489  1  0.72720000  0.61930000  0.60030000  1
  H  H490  1  0.72880000  0.36460000  0.22550000  1
  H  H491  1  0.72880000  0.63540000  0.27450000  1
  H  H492  1  0.73020000  0.37860000  0.01700000  1
  H  H493  1  0.73020000  0.62140000  0.48300000  1
  H  H494  1  0.73140000  0.13560000  0.71020000  1
  H  H495  1  0.73140000  0.86440000  0.78980000  1
  H  H496  1  0.73420000  0.13670000  0.64120000  1
  H  H497  1  0.73420000  0.86330000  0.85880000  1
  H  H498  1  0.73550000  0.36420000  0.28970000  1
  H  H499  1  0.73550000  0.63580000  0.21030000  1
  H  H500  1  0.74100000  0.31420000  0.83940000  1
  H  H501  1  0.74100000  0.68580000  0.66060000  1
  H  H502  1  0.74350000  0.34450000  0.13630000  1
  H  H503  1  0.74350000  0.65550000  0.36370000  1
  H  H504  1  0.74650000  0.17670000  0.01620000  1
  H  H505  1  0.74650000  0.82330000  0.48380000  1
  H  H506  1  0.75350000  0.32330000  0.01620000  1
  H  H507  1  0.75350000  0.67670000  0.48380000  1
  H  H508  1  0.75650000  0.15550000  0.13630000  1
  H  H509  1  0.75650000  0.84450000  0.36370000  1
  H  H510  1  0.75900000  0.18580000  0.83940000  1
  H  H511  1  0.75900000  0.81420000  0.66060000  1
  H  H512  1  0.76450000  0.13580000  0.28970000  1
  H  H513  1  0.76450000  0.86420000  0.21030000  1
  H  H514  1  0.76580000  0.36330000  0.64120000  1
  H  H515  1  0.76580000  0.63670000  0.85880000  1
  H  H516  1  0.76860000  0.36440000  0.71020000  1
  H  H517  1  0.76860000  0.63560000  0.78980000  1
  H  H518  1  0.76980000  0.12140000  0.01700000  1
  H  H519  1  0.76980000  0.87860000  0.48300000  1
  H  H520  1  0.77120000  0.13540000  0.22550000  1
  H  H521  1  0.77120000  0.86460000  0.27450000  1
  H  H522  1  0.77280000  0.11930000  0.89970000  1
  H  H523  1  0.77280000  0.88070000  0.60030000  1
  H  H524  1  0.77330000  0.35190000  0.92800000  1
  H  H525  1  0.77330000  0.64810000  0.57200000  1
  H  H526  1  0.77440000  0.35550000  0.81540000  1
  H  H527  1  0.77440000  0.64450000  0.68460000  1
  H  H528  1  0.77540000  0.16120000  0.09590000  1
  H  H529  1  0.77540000  0.83880000  0.40410000  1
  H  H530  1  0.77570000  0.38100000  0.45900000  1
  H  H531  1  0.77570000  0.61900000  0.04100000  1
  H  H532  1  0.77910000  0.18330000  0.79900000  1
  H  H533  1  0.77910000  0.30210000  0.11410000  1
  H  H534  1  0.77910000  0.69790000  0.38590000  1
  H  H535  1  0.77910000  0.81670000  0.70100000  1
  H  H536  1  0.78210000  0.47510000  0.03880000  1
  H  H537  1  0.78210000  0.52490000  0.46120000  1
  H  H538  1  0.78490000  0.17570000  0.90470000  1
  H  H539  1  0.78490000  0.82430000  0.59530000  1
  H  H540  1  0.79060000  0.32800000  0.61060000  1
  H  H541  1  0.79060000  0.67200000  0.88940000  1
  H  H542  1  0.79170000  0.16880000  0.32120000  1
  H  H543  1  0.79170000  0.83120000  0.17880000  1
  H  H544  1  0.79200000  0.35960000  0.04260000  1
  H  H545  1  0.79200000  0.64040000  0.45740000  1
  H  H546  1  0.79430000  0.09530000  0.42940000  1
  H  H547  1  0.79430000  0.90470000  0.07060000  1
  H  H548  1  0.79780000  0.33060000  0.74080000  1
  H  H549  1  0.79780000  0.66940000  0.75920000  1
  H  H550  1  0.80000000  0.16790000  0.19400000  1
  H  H551  1  0.80000000  0.83210000  0.30600000  1
  H  H552  1  0.81590000  0.00670000  0.60920000  1
  H  H553  1  0.81590000  0.99330000  0.89080000  1
  H  H554  1  0.81990000  0.04100000  0.42370000  1
  H  H555  1  0.81990000  0.95900000  0.07630000  1
  H  H556  1  0.82380000  0.09420000  0.60680000  1
  H  H557  1  0.82380000  0.90580000  0.89320000  1
  H  H558  1  0.82570000  0.45330000  0.90290000  1
  H  H559  1  0.82570000  0.54670000  0.59710000  1
  H  H560  1  0.82970000  0.03860000  0.91570000  1
  H  H561  1  0.82970000  0.96140000  0.58430000  1
  H  H562  1  0.83560000  0.33850000  0.86580000  1
  H  H563  1  0.83560000  0.66150000  0.63420000  1
  H  H564  1  0.83620000  0.42180000  0.45680000  1
  H  H565  1  0.83620000  0.57820000  0.04320000  1
  H  H566  1  0.83800000  0.48140000  0.45770000  1
  H  H567  1  0.83800000  0.51860000  0.04230000  1
  H  H568  1  0.83990000  0.13590000  0.57910000  1
  H  H569  1  0.83990000  0.86410000  0.92090000  1
  H  H570  1  0.84020000  0.02250000  0.01150000  1
  H  H571  1  0.84020000  0.97750000  0.48850000  1
  H  H572  1  0.84250000  0.30440000  0.20860000  1
  H  H573  1  0.84250000  0.69560000  0.29140000  1
  H  H574  1  0.84580000  0.15450000  0.29050000  1
  H  H575  1  0.84580000  0.84550000  0.20950000  1
  H  H576  1  0.84650000  0.34340000  0.64020000  1
  H  H577  1  0.84650000  0.65660000  0.85980000  1
  H  H578  1  0.84720000  0.21550000  0.91040000  1
  H  H579  1  0.84720000  0.78450000  0.58960000  1
  H  H580  1  0.84740000  0.37650000  0.48180000  1
  H  H581  1  0.84740000  0.62350000  0.01820000  1
  H  H582  1  0.84970000  0.34510000  0.70930000  1
  H  H583  1  0.84970000  0.65490000  0.79070000  1
  H  H584  1  0.85140000  0.29020000  0.02660000  1
  H  H585  1  0.85140000  0.70980000  0.47340000  1
  H  H586  1  0.85150000  0.15600000  0.22630000  1
  H  H587  1  0.85150000  0.84400000  0.27370000  1
  H  H588  1  0.85230000  0.18920000  0.05500000  1
  H  H589  1  0.85230000  0.81080000  0.44500000  1
  H  H590  1  0.85280000  0.07200000  0.45490000  1
  H  H591  1  0.85280000  0.92800000  0.04510000  1
  H  H592  1  0.85470000  0.47490000  0.01650000  1
  H  H593  1  0.85470000  0.52510000  0.48350000  1
  H  H594  1  0.85520000  0.17450000  0.73900000  1
  H  H595  1  0.85520000  0.82550000  0.76100000  1
  H  H596  1  0.85570000  0.49180000  0.93020000  1
  H  H597  1  0.85570000  0.50820000  0.56980000  1
  H  H598  1  0.88200000  0.14440000  0.07670000  1
  H  H599  1  0.88200000  0.85560000  0.42330000  1
  H  H600  1  0.88220000  0.21800000  0.71510000  1
  H  H601  1  0.88220000  0.78200000  0.78490000  1
  H  H602  1  0.88630000  0.05260000  0.03920000  1
  H  H603  1  0.88630000  0.94740000  0.46080000  1
  H  H604  1  0.88770000  0.00380000  0.58620000  1
  H  H605  1  0.88770000  0.99620000  0.91380000  1
  H  H606  1  0.89050000  0.30180000  0.88390000  1
  H  H607  1  0.89050000  0.69820000  0.61610000  1
  H  H608  1  0.89240000  0.24140000  0.94050000  1
  H  H609  1  0.89240000  0.75860000  0.55950000  1
  H  H610  1  0.89290000  0.33920000  0.18610000  1
  H  H611  1  0.89290000  0.66080000  0.31390000  1
  H  H612  1  0.89400000  0.09150000  0.58280000  1
  H  H613  1  0.89400000  0.90850000  0.91720000  1
  H  H614  1  0.89710000  0.26480000  0.99650000  1
  H  H615  1  0.89710000  0.73520000  0.50350000  1
  H  H616  1  0.90980000  0.46550000  0.90400000  1
  H  H617  1  0.90980000  0.53450000  0.59600000  1
  H  H618  1  0.92040000  0.34710000  0.86260000  1
  H  H619  1  0.92040000  0.65290000  0.63740000  1
  H  H620  1  0.92070000  0.14580000  0.36990000  1
  H  H621  1  0.92070000  0.85420000  0.13010000  1
  H  H622  1  0.92610000  0.01850000  0.01170000  1
  H  H623  1  0.92610000  0.98150000  0.48830000  1
  H  H624  1  0.92820000  0.30010000  0.21140000  1
  H  H625  1  0.92820000  0.69990000  0.28860000  1
  H  H626  1  0.93320000  0.21580000  0.90880000  1
  H  H627  1  0.93320000  0.78420000  0.59120000  1
  H  H628  1  0.93710000  0.18120000  0.05910000  1
  H  H629  1  0.93710000  0.81880000  0.44090000  1
  H  H630  1  0.93740000  0.29320000  0.02700000  1
  H  H631  1  0.93740000  0.70680000  0.47300000  1
  H  H632  1  0.93820000  0.23910000  0.27920000  1
  H  H633  1  0.93820000  0.76090000  0.22080000  1
  H  H634  1  0.93870000  0.09720000  0.49570000  1
  H  H635  1  0.93870000  0.90280000  0.00430000  1
  H  H636  1  0.93940000  0.18460000  0.73470000  1
  H  H637  1  0.93940000  0.81540000  0.76530000  1
  H  H638  1  0.94040000  0.26980000  0.65890000  1
  H  H639  1  0.94040000  0.73020000  0.84110000  1
  H  H640  1  0.95190000  0.02900000  0.39470000  1
  H  H641  1  0.95190000  0.97100000  0.10530000  1
  H  H642  1  0.95260000  0.38220000  0.42330000  1
  H  H643  1  0.95260000  0.61780000  0.07670000  1
  H  H644  1  0.95880000  0.19300000  0.30190000  1
  H  H645  1  0.95880000  0.80700000  0.19810000  1
  H  H646  1  0.96240000  0.31500000  0.63550000  1
  H  H647  1  0.96240000  0.68500000  0.86450000  1
  H  H648  1  0.96880000  0.12910000  0.52710000  1
  H  H649  1  0.96880000  0.87090000  0.97290000  1
  H  H650  1  0.97300000  0.43770000  0.42740000  1
  H  H651  1  0.97300000  0.56230000  0.07260000  1
  H  H652  1  0.97780000  0.19450000  0.26130000  1
  H  H653  1  0.97780000  0.80550000  0.23870000  1
  H  H654  1  0.98490000  0.05700000  0.42740000  1
  H  H655  1  0.98490000  0.94300000  0.07260000  1
  H  H656  1  0.98560000  0.31300000  0.67560000  1
  H  H657  1  0.98560000  0.68700000  0.82440000  1
  H  H658  1  0.98770000  0.07320000  0.52510000  1
  H  H659  1  0.98770000  0.92680000  0.97490000  1
  H  H660  1  0.99400000  0.40700000  0.89610000  1
  H  H661  1  0.99400000  0.59300000  0.60390000  1
  H  H662  1  0.99840000  0.07670000  0.38880000  1
  H  H663  1  0.99840000  0.92330000  0.11120000  1
  C  C664  1  0.00910000  0.40600000  0.92050000  1
  C  C665  1  0.00910000  0.59400000  0.57950000  1
  C  C666  1  0.01160000  0.26120000  0.85020000  1
  C  C667  1  0.01160000  0.73880000  0.64980000  1
  C  C668  1  0.01280000  0.23730000  0.08880000  1
  C  C669  1  0.01280000  0.76270000  0.41120000  1
  C  C670  1  0.01740000  0.18930000  0.96750000  1
  C  C671  1  0.01740000  0.81070000  0.53250000  1
  C  C672  1  0.01840000  0.32110000  0.96730000  1
  C  C673  1  0.01840000  0.67890000  0.53270000  1
  C  C674  1  0.02060000  0.10230000  0.01140000  1
  C  C675  1  0.02060000  0.89770000  0.48860000  1
  C  C676  1  0.02230000  0.29390000  0.15450000  1
  C  C677  1  0.02230000  0.70610000  0.34550000  1
  C  C678  1  0.02620000  0.21370000  0.78260000  1
  C  C679  1  0.02620000  0.78630000  0.71740000  1
  C  C680  1  0.03600000  0.06070000  0.90420000  1
  C  C681  1  0.03600000  0.93930000  0.59580000  1
  C  C682  1  0.04760000  0.15563000  0.46761000  1
  C  C683  1  0.04760000  0.84437000  0.03239000  1
  C  C684  1  0.04890000  0.23800000  0.61400000  1
  C  C685  1  0.04890000  0.76200000  0.88600000  1
  C  C686  1  0.04940000  0.11430000  0.48923000  1
  C  C687  1  0.04940000  0.88570000  0.01077000  1
  C  C688  1  0.04990000  0.26780000  0.64400000  1
  C  C689  1  0.04990000  0.73220000  0.85600000  1
  C  C690  1  0.05000000  0.23710000  0.29140000  1
  C  C691  1  0.05000000  0.76290000  0.20860000  1
  C  C692  1  0.05200000  0.35117000  0.46697000  1
  C  C693  1  0.05200000  0.64883000  0.03303000  1
  C  C694  1  0.05260000  0.26600000  0.32182000  1
  C  C695  1  0.05260000  0.73400000  0.17818000  1
  C  C696  1  0.05860000  0.39150000  0.44466000  1
  C  C697  1  0.05860000  0.60850000  0.05534000  1
  C  C698  1  0.10540000  0.29260000  0.51210000  1
  C  C699  1  0.10540000  0.70740000  0.98790000  1
  C  C700  1  0.10650000  0.16608000  0.44536000  1
  C  C701  1  0.10650000  0.83392000  0.05464000  1
  C  C702  1  0.10820000  0.19950000  0.23640000  1
  C  C703  1  0.10820000  0.80050000  0.26360000  1
  C  C704  1  0.10850000  0.33933000  0.49027000  1
  C  C705  1  0.10850000  0.66067000  0.00973000  1
  C  C706  1  0.10860000  0.21420000  0.42430000  1
  C  C707  1  0.10860000  0.78580000  0.07570000  1
  C  C708  1  0.10960000  0.17810000  0.57070000  1
  C  C709  1  0.10960000  0.82190000  0.92930000  1
  C  C710  1  0.11000000  0.20990000  0.60543000  1
  C  C711  1  0.11000000  0.79010000  0.89457000  1
  C  C712  1  0.11020000  0.08349000  0.48860000  1
  C  C713  1  0.11020000  0.91651000  0.01140000  1
  C  C714  1  0.11060000  0.23430000  0.26911000  1
  C  C715  1  0.11060000  0.76570000  0.23089000  1
  C  C716  1  0.11200000  0.13700000  0.88760000  1
  C  C717  1  0.11200000  0.86300000  0.61240000  1
  C  C718  1  0.11210000  0.26950000  0.66541000  1
  C  C719  1  0.11210000  0.30680000  0.69570000  1
  C  C720  1  0.11210000  0.69320000  0.80430000  1
  C  C721  1  0.11210000  0.73050000  0.83459000  1
  C  C722  1  0.11480000  0.04010000  0.51530000  1
  C  C723  1  0.11480000  0.95990000  0.98470000  1
  C  C724  1  0.11600000  0.29210000  0.32991000  1
  C  C725  1  0.11600000  0.70790000  0.17009000  1
  C  C726  1  0.11750000  0.32270000  0.36370000  1
  C  C727  1  0.11750000  0.67730000  0.13630000  1
  C  C728  1  0.12180000  0.42008000  0.44566000  1
  C  C729  1  0.12180000  0.57992000  0.05434000  1
  C  C730  1  0.13380000  0.46160000  0.41810000  1
  C  C731  1  0.13380000  0.53840000  0.08190000  1
  C  C732  1  0.15650000  0.10130000  0.08360000  1
  C  C733  1  0.15650000  0.89870000  0.41640000  1
  C  C734  1  0.16380000  0.00380000  0.41310000  1
  C  C735  1  0.16380000  0.99620000  0.08690000  1
  C  C736  1  0.16500000  0.07310000  0.93090000  1
  C  C737  1  0.16500000  0.92690000  0.56910000  1
  C  C738  1  0.16720000  0.13520000  0.44474000  1
  C  C739  1  0.16720000  0.86480000  0.05526000  1
  C  C740  1  0.16900000  0.09394000  0.46636000  1
  C  C741  1  0.16900000  0.90606000  0.03364000  1
  C  C742  1  0.17170000  0.36790000  0.49127000  1
  C  C743  1  0.17170000  0.63210000  0.00873000  1
  C  C744  1  0.17220000  0.21160000  0.62680000  1
  C  C745  1  0.17220000  0.78840000  0.87320000  1
  C  C746  1  0.17320000  0.24130000  0.65681000  1
  C  C747  1  0.17320000  0.75870000  0.84319000  1
  C  C748  1  0.17400000  0.26040000  0.27719000  1
  C  C749  1  0.17400000  0.73960000  0.22281000  1
  C  C750  1  0.17670000  0.28930000  0.30759000  1
  C  C751  1  0.17670000  0.71070000  0.19241000  1
  C  C752  1  0.17830000  0.40820000  0.46897000  1
  C  C753  1  0.17830000  0.59180000  0.03103000  1
  C  C754  1  0.18330000  0.49520000  0.52620000  1
  C  C755  1  0.18330000  0.50480000  0.97380000  1
  C  C756  1  0.18800000  0.39890000  0.97220000  1
  C  C757  1  0.18800000  0.60110000  0.52780000  1
  C  C758  1  0.19810000  0.16270000  0.71930000  1
  C  C759  1  0.19810000  0.83730000  0.78070000  1
  C  C760  1  0.19980000  0.07338000  0.05557000  1
  C  C761  1  0.19980000  0.92662000  0.44443000  1
  C  C762  1  0.19990000  0.33720000  0.21570000  1
  C  C763  1  0.19990000  0.66280000  0.28430000  1
  C  C764  1  0.20270000  0.02249000  0.05661000  1
  C  C765  1  0.20270000  0.97751000  0.44339000  1
  C  C766  1  0.20390000  0.33560000  0.13540000  1
  C  C767  1  0.20390000  0.66440000  0.36460000  1
  C  C768  1  0.20410000  0.16260000  0.79620000  1
  C  C769  1  0.20410000  0.83740000  0.70380000  1
  C  C770  1  0.22260000  0.47771000  0.00382000  1
  C  C771  1  0.22260000  0.52229000  0.49618000  1
  C  C772  1  0.22520000  0.20830000  0.73830000  1
  C  C773  1  0.22520000  0.79170000  0.76170000  1
  C  C774  1  0.22540000  0.42682000  0.00278000  1
  C  C775  1  0.22540000  0.57318000  0.49722000  1
  C  C776  1  0.22550000  0.29120000  0.19470000  1
  C  C777  1  0.22550000  0.70880000  0.30530000  1
  C  C778  1  0.22620000  0.14550000  0.41660000  1
  C  C779  1  0.22620000  0.85450000  0.08340000  1
  C  C780  1  0.22670000  0.20810000  0.77570000  1
  C  C781  1  0.22670000  0.79190000  0.72430000  1
  C  C782  1  0.22680000  0.29220000  0.15740000  1
  C  C783  1  0.22680000  0.70780000  0.34260000  1
  C  C784  1  0.22930000  0.35630000  0.51940000  1
  C  C785  1  0.22930000  0.64370000  0.98060000  1
  C  C786  1  0.23440000  0.15370000  0.02770000  1
  C  C787  1  0.23440000  0.84630000  0.47230000  1
  C  C788  1  0.23560000  0.17850000  0.61740000  1
  C  C789  1  0.23560000  0.82150000  0.88260000  1
  C  C790  1  0.23580000  0.09872000  0.02865000  1
  C  C791  1  0.23580000  0.90128000  0.47135000  1
  C  C792  1  0.24090000  0.32190000  0.31610000  1
  C  C793  1  0.24090000  0.67810000  0.18390000  1
  C  C794  1  0.24150000  0.00305000  0.46926000  1
  C  C795  1  0.24150000  0.99695000  0.03074000  1
  C  C796  1  0.25000000  0.25000000  0.09970000  1
  C  C797  1  0.25000000  0.25000000  0.13930000  1
  C  C798  1  0.25000000  0.25000000  0.21360000  1
  C  C799  1  0.25000000  0.25000000  0.71980000  1
  C  C800  1  0.25000000  0.25000000  0.79380000  1
  C  C801  1  0.25000000  0.25000000  0.83340000  1
  C  C802  1  0.25000000  0.25000000  0.95510000  1
  C  C803  1  0.25000000  0.75000000  0.28640000  1
  C  C804  1  0.25000000  0.75000000  0.36070000  1
  C  C805  1  0.25000000  0.75000000  0.40030000  1
  C  C806  1  0.25000000  0.75000000  0.54490000  1
  C  C807  1  0.25000000  0.75000000  0.66666667  1
  C  C808  1  0.25000000  0.75000000  0.70620000  1
  C  C809  1  0.25000000  0.75000000  0.78020000  1
  C  C810  1  0.25850000  0.49695000  0.46926000  1
  C  C811  1  0.25850000  0.50305000  0.03074000  1
  C  C812  1  0.25910000  0.17810000  0.31610000  1
  C  C813  1  0.25910000  0.82190000  0.18390000  1
  C  C814  1  0.26420000  0.40128000  0.02865000  1
  C  C815  1  0.26420000  0.59872000  0.47135000  1
  C  C816  1  0.26440000  0.32150000  0.61740000  1
  C  C817  1  0.26440000  0.67850000  0.88260000  1
  C  C818  1  0.26560000  0.34630000  0.02770000  1
  C  C819  1  0.26560000  0.65370000  0.47230000  1
  C  C820  1  0.27070000  0.14370000  0.51940000  1
  C  C821  1  0.27070000  0.85630000  0.98060000  1
  C  C822  1  0.27320000  0.20780000  0.15740000  1
  C  C823  1  0.27320000  0.79220000  0.34260000  1
  C  C824  1  0.27330000  0.29190000  0.77570000  1
  C  C825  1  0.27330000  0.70810000  0.72430000  1
  C  C826  1  0.27380000  0.35450000  0.41660000  1
  C  C827  1  0.27380000  0.64550000  0.08340000  1
  C  C828  1  0.27450000  0.20880000  0.19470000  1
  C  C829  1  0.27450000  0.79120000  0.30530000  1
  C  C830  1  0.27460000  0.07318000  0.00278000  1
  C  C831  1  0.27460000  0.92682000  0.49722000  1
  C  C832  1  0.27480000  0.29170000  0.73830000  1
  C  C833  1  0.27480000  0.70830000  0.76170000  1
  C  C834  1  0.27740000  0.02229000  0.00382000  1
  C  C835  1  0.27740000  0.97771000  0.49618000  1
  C  C836  1  0.29590000  0.33740000  0.79620000  1
  C  C837  1  0.29590000  0.66260000  0.70380000  1
  C  C838  1  0.29610000  0.16440000  0.13540000  1
  C  C839  1  0.29610000  0.83560000  0.36460000  1
  C  C840  1  0.29730000  0.47751000  0.05661000  1
  C  C841  1  0.29730000  0.52249000  0.44339000  1
  C  C842  1  0.30010000  0.16280000  0.21570000  1
  C  C843  1  0.30010000  0.83720000  0.28430000  1
  C  C844  1  0.30020000  0.42662000  0.05557000  1
  C  C845  1  0.30020000  0.57338000  0.44443000  1
  C  C846  1  0.30190000  0.33730000  0.71930000  1
  C  C847  1  0.30190000  0.66270000  0.78070000  1
  C  C848  1  0.31200000  0.10110000  0.97220000  1
  C  C849  1  0.31200000  0.89890000  0.52780000  1
  C  C850  1  0.31670000  0.00480000  0.52620000  1
  C  C851  1  0.31670000  0.99520000  0.97380000  1
  C  C852  1  0.32170000  0.09180000  0.46897000  1
  C  C853  1  0.32170000  0.90820000  0.03103000  1
  C  C854  1  0.32330000  0.21070000  0.30759000  1
  C  C855  1  0.32330000  0.78930000  0.19241000  1
  C  C856  1  0.32600000  0.23960000  0.27719000  1
  C  C857  1  0.32600000  0.76040000  0.22281000  1
  C  C858  1  0.32680000  0.25870000  0.65681000  1
  C  C859  1  0.32680000  0.74130000  0.84319000  1
  C  C860  1  0.32780000  0.28840000  0.62680000  1
  C  C861  1  0.32780000  0.71160000  0.87320000  1
  C  C862  1  0.32830000  0.13210000  0.49127000  1
  C  C863  1  0.32830000  0.86790000  0.00873000  1
  C  C864  1  0.33100000  0.40606000  0.46636000  1
  C  C865  1  0.33100000  0.59394000  0.03364000  1
  C  C866  1  0.33280000  0.36480000  0.44474000  1
  C  C867  1  0.33280000  0.63520000  0.05526000  1
  C  C868  1  0.33500000  0.42690000  0.93090000  1
  C  C869  1  0.33500000  0.57310000  0.56910000  1
  C  C870  1  0.33620000  0.49620000  0.41310000  1
  C  C871  1  0.33620000  0.50380000  0.08690000  1
  C  C872  1  0.34350000  0.39870000  0.08360000  1
  C  C873  1  0.34350000  0.60130000  0.41640000  1
  C  C874  1  0.36620000  0.03840000  0.41810000  1
  C  C875  1  0.36620000  0.96160000  0.08190000  1
  C  C876  1  0.37820000  0.07992000  0.44566000  1
  C  C877  1  0.37820000  0.92008000  0.05434000  1
  C  C878  1  0.38250000  0.17730000  0.36370000  1
  C  C879  1  0.38250000  0.82270000  0.13630000  1
  C  C880  1  0.38400000  0.20790000  0.32991000  1
  C  C881  1  0.38400000  0.79210000  0.17009000  1
  C  C882  1  0.38520000  0.45990000  0.51530000  1
  C  C883  1  0.38520000  0.54010000  0.98470000  1
  C  C884  1  0.38790000  0.19320000  0.69570000  1
  C  C885  1  0.38790000  0.23050000  0.66541000  1
  C  C886  1  0.38790000  0.76950000  0.83459000  1
  C  C887  1  0.38790000  0.80680000  0.80430000  1
  C  C888  1  0.38800000  0.36300000  0.88760000  1
  C  C889  1  0.38800000  0.63700000  0.61240000  1
  C  C890  1  0.38940000  0.26570000  0.26911000  1
  C  C891  1  0.38940000  0.73430000  0.23089000  1
  C  C892  1  0.38980000  0.41651000  0.48860000  1
  C  C893  1  0.38980000  0.58349000  0.01140000  1
  C  C894  1  0.39000000  0.29010000  0.60543000  1
  C  C895  1  0.39000000  0.70990000  0.89457000  1
  C  C896  1  0.39040000  0.32190000  0.57070000  1
  C  C897  1  0.39040000  0.67810000  0.92930000  1
  C  C898  1  0.39140000  0.28580000  0.42430000  1
  C  C899  1  0.39140000  0.71420000  0.07570000  1
  C  C900  1  0.39150000  0.16067000  0.49027000  1
  C  C901  1  0.39150000  0.83933000  0.00973000  1
  C  C902  1  0.39180000  0.30050000  0.23640000  1
  C  C903  1  0.39180000  0.69950000  0.26360000  1
  C  C904  1  0.39350000  0.33392000  0.44536000  1
  C  C905  1  0.39350000  0.66608000  0.05464000  1
  C  C906  1  0.39460000  0.20740000  0.51210000  1
  C  C907  1  0.39460000  0.79260000  0.98790000  1
  C  C908  1  0.44140000  0.10850000  0.44466000  1
  C  C909  1  0.44140000  0.89150000  0.05534000  1
  C  C910  1  0.44740000  0.23400000  0.32182000  1
  C  C911  1  0.44740000  0.76600000  0.17818000  1
  C  C912  1  0.44800000  0.14883000  0.46697000  1
  C  C913  1  0.44800000  0.85117000  0.03303000  1
  C  C914  1  0.45000000  0.26290000  0.29140000  1
  C  C915  1  0.45000000  0.73710000  0.20860000  1
  C  C916  1  0.45010000  0.23220000  0.64400000  1
  C  C917  1  0.45010000  0.76780000  0.85600000  1
  C  C918  1  0.45060000  0.38570000  0.48923000  1
  C  C919  1  0.45060000  0.61430000  0.01077000  1
  C  C920  1  0.45110000  0.26200000  0.61400000  1
  C  C921  1  0.45110000  0.73800000  0.88600000  1
  C  C922  1  0.45240000  0.34437000  0.46761000  1
  C  C923  1  0.45240000  0.65563000  0.03239000  1
  C  C924  1  0.46400000  0.43930000  0.90420000  1
  C  C925  1  0.46400000  0.56070000  0.59580000  1
  C  C926  1  0.47380000  0.28630000  0.78260000  1
  C  C927  1  0.47380000  0.71370000  0.71740000  1
  C  C928  1  0.47770000  0.20610000  0.15450000  1
  C  C929  1  0.47770000  0.79390000  0.34550000  1
  C  C930  1  0.47940000  0.39770000  0.01140000  1
  C  C931  1  0.47940000  0.60230000  0.48860000  1
  C  C932  1  0.48160000  0.17890000  0.96730000  1
  C  C933  1  0.48160000  0.82110000  0.53270000  1
  C  C934  1  0.48260000  0.31070000  0.96750000  1
  C  C935  1  0.48260000  0.68930000  0.53250000  1
  C  C936  1  0.48720000  0.26270000  0.08880000  1
  C  C937  1  0.48720000  0.73730000  0.41120000  1
  C  C938  1  0.48840000  0.23880000  0.85020000  1
  C  C939  1  0.48840000  0.76120000  0.64980000  1
  C  C940  1  0.49090000  0.09400000  0.92050000  1
  C  C941  1  0.49090000  0.90600000  0.57950000  1
  C  C942  1  0.50910000  0.09400000  0.42050000  1
  C  C943  1  0.50910000  0.90600000  0.07950000  1
  C  C944  1  0.51160000  0.23880000  0.35020000  1
  C  C945  1  0.51160000  0.76120000  0.14980000  1
  C  C946  1  0.51280000  0.26270000  0.58880000  1
  C  C947  1  0.51280000  0.73730000  0.91120000  1
  C  C948  1  0.51740000  0.31070000  0.46750000  1
  C  C949  1  0.51740000  0.68930000  0.03250000  1
  C  C950  1  0.51840000  0.17890000  0.46730000  1
  C  C951  1  0.51840000  0.82110000  0.03270000  1
  C  C952  1  0.52060000  0.39770000  0.51140000  1
  C  C953  1  0.52060000  0.60230000  0.98860000  1
  C  C954  1  0.52230000  0.20610000  0.65450000  1
  C  C955  1  0.52230000  0.79390000  0.84550000  1
  C  C956  1  0.52620000  0.28630000  0.28260000  1
  C  C957  1  0.52620000  0.71370000  0.21740000  1
  C  C958  1  0.53600000  0.43930000  0.40420000  1
  C  C959  1  0.53600000  0.56070000  0.09580000  1
  C  C960  1  0.54760000  0.34437000  0.96761000  1
  C  C961  1  0.54760000  0.65563000  0.53239000  1
  C  C962  1  0.54890000  0.26200000  0.11400000  1
  C  C963  1  0.54890000  0.73800000  0.38600000  1
  C  C964  1  0.54940000  0.38570000  0.98923000  1
  C  C965  1  0.54940000  0.61430000  0.51077000  1
  C  C966  1  0.54990000  0.23220000  0.14400000  1
  C  C967  1  0.54990000  0.76780000  0.35600000  1
  C  C968  1  0.55000000  0.26290000  0.79140000  1
  C  C969  1  0.55000000  0.73710000  0.70860000  1
  C  C970  1  0.55200000  0.14883000  0.96697000  1
  C  C971  1  0.55200000  0.85117000  0.53303000  1
  C  C972  1  0.55260000  0.23400000  0.82182000  1
  C  C973  1  0.55260000  0.76600000  0.67818000  1
  C  C974  1  0.55860000  0.10850000  0.94466000  1
  C  C975  1  0.55860000  0.89150000  0.55534000  1
  C  C976  1  0.60540000  0.20740000  0.01210000  1
  C  C977  1  0.60540000  0.79260000  0.48790000  1
  C  C978  1  0.60650000  0.33392000  0.94536000  1
  C  C979  1  0.60650000  0.66608000  0.55464000  1
  C  C980  1  0.60820000  0.30050000  0.73640000  1
  C  C981  1  0.60820000  0.69950000  0.76360000  1
  C  C982  1  0.60850000  0.16067000  0.99027000  1
  C  C983  1  0.60850000  0.83933000  0.50973000  1
  C  C984  1  0.60860000  0.28580000  0.92430000  1
  C  C985  1  0.60860000  0.71420000  0.57570000  1
  C  C986  1  0.60960000  0.32190000  0.07070000  1
  C  C987  1  0.60960000  0.67810000  0.42930000  1
  C  C988  1  0.61000000  0.29010000  0.10543000  1
  C  C989  1  0.61000000  0.70990000  0.39457000  1
  C  C990  1  0.61020000  0.41651000  0.98860000  1
  C  C991  1  0.61020000  0.58349000  0.51140000  1
  C  C992  1  0.61060000  0.26570000  0.76911000  1
  C  C993  1  0.61060000  0.73430000  0.73089000  1
  C  C994  1  0.61200000  0.36300000  0.38760000  1
  C  C995  1  0.61200000  0.63700000  0.11240000  1
  C  C996  1  0.61210000  0.19320000  0.19570000  1
  C  C997  1  0.61210000  0.23050000  0.16541000  1
  C  C998  1  0.61210000  0.76950000  0.33459000  1
  C  C999  1  0.61210000  0.80680000  0.30430000  1
  C  C1000  1  0.61480000  0.45990000  0.01530000  1
  C  C1001  1  0.61480000  0.54010000  0.48470000  1
  C  C1002  1  0.61600000  0.20790000  0.82991000  1
  C  C1003  1  0.61600000  0.79210000  0.67009000  1
  C  C1004  1  0.61750000  0.17730000  0.86370000  1
  C  C1005  1  0.61750000  0.82270000  0.63630000  1
  C  C1006  1  0.62180000  0.07992000  0.94566000  1
  C  C1007  1  0.62180000  0.92008000  0.55434000  1
  C  C1008  1  0.63380000  0.03840000  0.91810000  1
  C  C1009  1  0.63380000  0.96160000  0.58190000  1
  C  C1010  1  0.65650000  0.39870000  0.58360000  1
  C  C1011  1  0.65650000  0.60130000  0.91640000  1
  C  C1012  1  0.66380000  0.49620000  0.91310000  1
  C  C1013  1  0.66380000  0.50380000  0.58690000  1
  C  C1014  1  0.66500000  0.42690000  0.43090000  1
  C  C1015  1  0.66500000  0.57310000  0.06910000  1
  C  C1016  1  0.66720000  0.36480000  0.94474000  1
  C  C1017  1  0.66720000  0.63520000  0.55526000  1
  C  C1018  1  0.66900000  0.40606000  0.96636000  1
  C  C1019  1  0.66900000  0.59394000  0.53364000  1
  C  C1020  1  0.67170000  0.13210000  0.99127000  1
  C  C1021  1  0.67170000  0.86790000  0.50873000  1
  C  C1022  1  0.67220000  0.28840000  0.12680000  1
  C  C1023  1  0.67220000  0.71160000  0.37320000  1
  C  C1024  1  0.67320000  0.25870000  0.15681000  1
  C  C1025  1  0.67320000  0.74130000  0.34319000  1
  C  C1026  1  0.67400000  0.23960000  0.77719000  1
  C  C1027  1  0.67400000  0.76040000  0.72281000  1
  C  C1028  1  0.67670000  0.21070000  0.80759000  1
  C  C1029  1  0.67670000  0.78930000  0.69241000  1
  C  C1030  1  0.67830000  0.09180000  0.96897000  1
  C  C1031  1  0.67830000  0.90820000  0.53103000  1
  C  C1032  1  0.68330000  0.00480000  0.02620000  1
  C  C1033  1  0.68330000  0.99520000  0.47380000  1
  C  C1034  1  0.68800000  0.10110000  0.47220000  1
  C  C1035  1  0.68800000  0.89890000  0.02780000  1
  C  C1036  1  0.69810000  0.33730000  0.21930000  1
  C  C1037  1  0.69810000  0.66270000  0.28070000  1
  C  C1038  1  0.69980000  0.42662000  0.55557000  1
  C  C1039  1  0.69980000  0.57338000  0.94443000  1
  C  C1040  1  0.69990000  0.16280000  0.71570000  1
  C  C1041  1  0.69990000  0.83720000  0.78430000  1
  C  C1042  1  0.70270000  0.47751000  0.55661000  1
  C  C1043  1  0.70270000  0.52249000  0.94339000  1
  C  C1044  1  0.70390000  0.16440000  0.63540000  1
  C  C1045  1  0.70390000  0.83560000  0.86460000  1
  C  C1046  1  0.70410000  0.33740000  0.29620000  1
  C  C1047  1  0.70410000  0.66260000  0.20380000  1
  C  C1048  1  0.72260000  0.02229000  0.50382000  1
  C  C1049  1  0.72260000  0.97771000  0.99618000  1
  C  C1050  1  0.72520000  0.29170000  0.23830000  1
  C  C1051  1  0.72520000  0.70830000  0.26170000  1
  C  C1052  1  0.72540000  0.07318000  0.50278000  1
  C  C1053  1  0.72540000  0.92682000  0.99722000  1
  C  C1054  1  0.72550000  0.20880000  0.69470000  1
  C  C1055  1  0.72550000  0.79120000  0.80530000  1
  C  C1056  1  0.72620000  0.35450000  0.91660000  1
  C  C1057  1  0.72620000  0.64550000  0.58340000  1
  C  C1058  1  0.72670000  0.29190000  0.27570000  1
  C  C1059  1  0.72670000  0.70810000  0.22430000  1
  C  C1060  1  0.72680000  0.20780000  0.65740000  1
  C  C1061  1  0.72680000  0.79220000  0.84260000  1
  C  C1062  1  0.72930000  0.14370000  0.01940000  1
  C  C1063  1  0.72930000  0.85630000  0.48060000  1
  C  C1064  1  0.73440000  0.34630000  0.52770000  1
  C  C1065  1  0.73440000  0.65370000  0.97230000  1
  C  C1066  1  0.73560000  0.32150000  0.11740000  1
  C  C1067  1  0.73560000  0.67850000  0.38260000  1
  C  C1068  1  0.73580000  0.40128000  0.52865000  1
  C  C1069  1  0.73580000  0.59872000  0.97135000  1
  C  C1070  1  0.74090000  0.17810000  0.81610000  1
  C  C1071  1  0.74090000  0.82190000  0.68390000  1
  C  C1072  1  0.74150000  0.49695000  0.96926000  1
  C  C1073  1  0.74150000  0.50305000  0.53074000  1
  C  C1074  1  0.75000000  0.25000000  0.21980000  1
  C  C1075  1  0.75000000  0.25000000  0.29380000  1
  C  C1076  1  0.75000000  0.25000000  0.33340000  1
  C  C1077  1  0.75000000  0.25000000  0.45510000  1
  C  C1078  1  0.75000000  0.25000000  0.59970000  1
  C  C1079  1  0.75000000  0.25000000  0.63930000  1
  C  C1080  1  0.75000000  0.25000000  0.71360000  1
  C  C1081  1  0.75000000  0.75000000  0.04490000  1
  C  C1082  1  0.75000000  0.75000000  0.16660000  1
  C  C1083  1  0.75000000  0.75000000  0.20620000  1
  C  C1084  1  0.75000000  0.75000000  0.28020000  1
  C  C1085  1  0.75000000  0.75000000  0.78640000  1
  C  C1086  1  0.75000000  0.75000000  0.86070000  1
  C  C1087  1  0.75000000  0.75000000  0.90030000  1
  C  C1088  1  0.75850000  0.00305000  0.96926000  1
  C  C1089  1  0.75850000  0.99695000  0.53074000  1
  C  C1090  1  0.75910000  0.32190000  0.81610000  1
  C  C1091  1  0.75910000  0.67810000  0.68390000  1
  C  C1092  1  0.76420000  0.09872000  0.52865000  1
  C  C1093  1  0.76420000  0.90128000  0.97135000  1
  C  C1094  1  0.76440000  0.17850000  0.11740000  1
  C  C1095  1  0.76440000  0.82150000  0.38260000  1
  C  C1096  1  0.76560000  0.15370000  0.52770000  1
  C  C1097  1  0.76560000  0.84630000  0.97230000  1
  C  C1098  1  0.77070000  0.35630000  0.01940000  1
  C  C1099  1  0.77070000  0.64370000  0.48060000  1
  C  C1100  1  0.77320000  0.29220000  0.65740000  1
  C  C1101  1  0.77320000  0.70780000  0.84260000  1
  C  C1102  1  0.77330000  0.20810000  0.27570000  1
  C  C1103  1  0.77330000  0.79190000  0.22430000  1
  C  C1104  1  0.77380000  0.14550000  0.91660000  1
  C  C1105  1  0.77380000  0.85450000  0.58340000  1
  C  C1106  1  0.77450000  0.29120000  0.69470000  1
  C  C1107  1  0.77450000  0.70880000  0.80530000  1
  C  C1108  1  0.77460000  0.42682000  0.50278000  1
  C  C1109  1  0.77460000  0.57318000  0.99722000  1
  C  C1110  1  0.77480000  0.20830000  0.23830000  1
  C  C1111  1  0.77480000  0.79170000  0.26170000  1
  C  C1112  1  0.77740000  0.47771000  0.50382000  1
  C  C1113  1  0.77740000  0.52229000  0.99618000  1
  C  C1114  1  0.79590000  0.16260000  0.29620000  1
  C  C1115  1  0.79590000  0.83740000  0.20380000  1
  C  C1116  1  0.79610000  0.33560000  0.63540000  1
  C  C1117  1  0.79610000  0.66440000  0.86460000  1
  C  C1118  1  0.79730000  0.02249000  0.55661000  1
  C  C1119  1  0.79730000  0.97751000  0.94339000  1
  C  C1120  1  0.80010000  0.33720000  0.71570000  1
  C  C1121  1  0.80010000  0.66280000  0.78430000  1
  C  C1122  1  0.80020000  0.07338000  0.55557000  1
  C  C1123  1  0.80020000  0.92662000  0.94443000  1
  C  C1124  1  0.80190000  0.16270000  0.21930000  1
  C  C1125  1  0.80190000  0.83730000  0.28070000  1
  C  C1126  1  0.81200000  0.39890000  0.47220000  1
  C  C1127  1  0.81200000  0.60110000  0.02780000  1
  C  C1128  1  0.81670000  0.49520000  0.02620000  1
  C  C1129  1  0.81670000  0.50480000  0.47380000  1
  C  C1130  1  0.82170000  0.40820000  0.96897000  1
  C  C1131  1  0.82170000  0.59180000  0.53103000  1
  C  C1132  1  0.82330000  0.28930000  0.80759000  1
  C  C1133  1  0.82330000  0.71070000  0.69241000  1
  C  C1134  1  0.82600000  0.26040000  0.77719000  1
  C  C1135  1  0.82600000  0.73960000  0.72281000  1
  C  C1136  1  0.82680000  0.24130000  0.15681000  1
  C  C1137  1  0.82680000  0.75870000  0.34319000  1
  C  C1138  1  0.82780000  0.21160000  0.12680000  1
  C  C1139  1  0.82780000  0.78840000  0.37320000  1
  C  C1140  1  0.82830000  0.36790000  0.99127000  1
  C  C1141  1  0.82830000  0.63210000  0.50873000  1
  C  C1142  1  0.83100000  0.09394000  0.96636000  1
  C  C1143  1  0.83100000  0.90606000  0.53364000  1
  C  C1144  1  0.83280000  0.13520000  0.94474000  1
  C  C1145  1  0.83280000  0.86480000  0.55526000  1
  C  C1146  1  0.83500000  0.07310000  0.43090000  1
  C  C1147  1  0.83500000  0.92690000  0.06910000  1
  C  C1148  1  0.83620000  0.00380000  0.91310000  1
  C  C1149  1  0.83620000  0.99620000  0.58690000  1
  C  C1150  1  0.84350000  0.10130000  0.58360000  1
  C  C1151  1  0.84350000  0.89870000  0.91640000  1
  C  C1152  1  0.86620000  0.46160000  0.91810000  1
  C  C1153  1  0.86620000  0.53840000  0.58190000  1
  C  C1154  1  0.87820000  0.42008000  0.94566000  1
  C  C1155  1  0.87820000  0.57992000  0.55434000  1
  C  C1156  1  0.88250000  0.32270000  0.86370000  1
  C  C1157  1  0.88250000  0.67730000  0.63630000  1
  C  C1158  1  0.88400000  0.29210000  0.82991000  1
  C  C1159  1  0.88400000  0.70790000  0.67009000  1
  C  C1160  1  0.88520000  0.04010000  0.01530000  1
  C  C1161  1  0.88520000  0.95990000  0.48470000  1
  C  C1162  1  0.88790000  0.26950000  0.16541000  1
  C  C1163  1  0.88790000  0.30680000  0.19570000  1
  C  C1164  1  0.88790000  0.69320000  0.30430000  1
  C  C1165  1  0.88790000  0.73050000  0.33459000  1
  C  C1166  1  0.88800000  0.13700000  0.38760000  1
  C  C1167  1  0.88800000  0.86300000  0.11240000  1
  C  C1168  1  0.88940000  0.23430000  0.76911000  1
  C  C1169  1  0.88940000  0.76570000  0.73089000  1
  C  C1170  1  0.88980000  0.08349000  0.98860000  1
  C  C1171  1  0.88980000  0.91651000  0.51140000  1
  C  C1172  1  0.89000000  0.20990000  0.10543000  1
  C  C1173  1  0.89000000  0.79010000  0.39457000  1
  C  C1174  1  0.89040000  0.17810000  0.07070000  1
  C  C1175  1  0.89040000  0.82190000  0.42930000  1
  C  C1176  1  0.89140000  0.21420000  0.92430000  1
  C  C1177  1  0.89140000  0.78580000  0.57570000  1
  C  C1178  1  0.89150000  0.33933000  0.99027000  1
  C  C1179  1  0.89150000  0.66067000  0.50973000  1
  C  C1180  1  0.89180000  0.19950000  0.73640000  1
  C  C1181  1  0.89180000  0.80050000  0.76360000  1
  C  C1182  1  0.89350000  0.16608000  0.94536000  1
  C  C1183  1  0.89350000  0.83392000  0.55464000  1
  C  C1184  1  0.89460000  0.29260000  0.01210000  1
  C  C1185  1  0.89460000  0.70740000  0.48790000  1
  C  C1186  1  0.94140000  0.39150000  0.94466000  1
  C  C1187  1  0.94140000  0.60850000  0.55534000  1
  C  C1188  1  0.94740000  0.26600000  0.82182000  1
  C  C1189  1  0.94740000  0.73400000  0.67818000  1
  C  C1190  1  0.94800000  0.35117000  0.96697000  1
  C  C1191  1  0.94800000  0.64883000  0.53303000  1
  C  C1192  1  0.95000000  0.23710000  0.79140000  1
  C  C1193  1  0.95000000  0.76290000  0.70860000  1
  C  C1194  1  0.95010000  0.26780000  0.14400000  1
  C  C1195  1  0.95010000  0.73220000  0.35600000  1
  C  C1196  1  0.95060000  0.11430000  0.98923000  1
  C  C1197  1  0.95060000  0.88570000  0.51077000  1
  C  C1198  1  0.95110000  0.23800000  0.11400000  1
  C  C1199  1  0.95110000  0.76200000  0.38600000  1
  C  C1200  1  0.95240000  0.15563000  0.96761000  1
  C  C1201  1  0.95240000  0.84437000  0.53239000  1
  C  C1202  1  0.96400000  0.06070000  0.40420000  1
  C  C1203  1  0.96400000  0.93930000  0.09580000  1
  C  C1204  1  0.97380000  0.21370000  0.28260000  1
  C  C1205  1  0.97380000  0.78630000  0.21740000  1
  C  C1206  1  0.97770000  0.29390000  0.65450000  1
  C  C1207  1  0.97770000  0.70610000  0.84550000  1
  C  C1208  1  0.97940000  0.10230000  0.51140000  1
  C  C1209  1  0.97940000  0.89770000  0.98860000  1
  C  C1210  1  0.98160000  0.32110000  0.46730000  1
  C  C1211  1  0.98160000  0.67890000  0.03270000  1
  C  C1212  1  0.98260000  0.18930000  0.46750000  1
  C  C1213  1  0.98260000  0.81070000  0.03250000  1
  C  C1214  1  0.98720000  0.23730000  0.58880000  1
  C  C1215  1  0.98720000  0.76270000  0.91120000  1
  C  C1216  1  0.98840000  0.26120000  0.35020000  1
  C  C1217  1  0.98840000  0.73880000  0.14980000  1
  C  C1218  1  0.99090000  0.40600000  0.42050000  1
  C  C1219  1  0.99090000  0.59400000  0.07950000  1
  N  N1220  1  0.10400000  0.09080000  0.90670000  1
  N  N1221  1  0.10400000  0.90920000  0.59330000  1
  N  N1222  1  0.39600000  0.40920000  0.90670000  1
  N  N1223  1  0.39600000  0.59080000  0.59330000  1
  N  N1224  1  0.60400000  0.40920000  0.40670000  1
  N  N1225  1  0.60400000  0.59080000  0.09330000  1
  N  N1226  1  0.89600000  0.09080000  0.40670000  1
  N  N1227  1  0.89600000  0.90920000  0.09330000  1
  O  O1228  1  0.02500000  0.22030000  0.86280000  1
  O  O1229  1  0.02500000  0.77970000  0.63720000  1
  O  O1230  1  0.03190000  0.21110000  0.99629000  1
  O  O1231  1  0.03190000  0.78890000  0.50371000  1
  O  O1232  1  0.03220000  0.27770000  0.07280000  1
  O  O1233  1  0.03220000  0.72230000  0.42720000  1
  O  O1234  1  0.03530000  0.30060000  0.93840000  1
  O  O1235  1  0.03530000  0.69940000  0.56160000  1
  O  O1236  1  0.04230000  0.20430000  0.07240000  1
  O  O1237  1  0.04230000  0.79570000  0.42760000  1
  O  O1238  1  0.04440000  0.29930000  0.85720000  1
  O  O1239  1  0.04440000  0.70070000  0.64280000  1
  O  O1240  1  0.05330000  0.19370000  0.93950000  1
  O  O1241  1  0.05330000  0.31770000  0.99500000  1
  O  O1242  1  0.05330000  0.68230000  0.50500000  1
  O  O1243  1  0.05330000  0.80630000  0.56050000  1
  O  O1244  1  0.16500000  0.16450000  0.89540000  1
  O  O1245  1  0.16500000  0.83550000  0.60460000  1
  O  O1246  1  0.17500000  0.17410000  0.02210000  1
  O  O1247  1  0.17500000  0.82590000  0.47790000  1
  O  O1248  1  0.17530000  0.33700000  0.89650000  1
  O  O1249  1  0.17530000  0.66300000  0.60350000  1
  O  O1250  1  0.18880000  0.25550000  0.96896000  1
  O  O1251  1  0.18880000  0.74450000  0.53104000  1
  O  O1252  1  0.18960000  0.25040000  0.84890000  1
  O  O1253  1  0.18960000  0.74960000  0.65110000  1
  O  O1254  1  0.19100000  0.24190000  0.08398000  1
  O  O1255  1  0.19100000  0.75810000  0.41602000  1
  O  O1256  1  0.20460000  0.32510000  0.03320000  1
  O  O1257  1  0.20460000  0.67490000  0.46680000  1
  O  O1258  1  0.25000000  0.25000000  0.92000000  1
  O  O1259  1  0.25000000  0.75000000  0.58000000  1
  O  O1260  1  0.29540000  0.17490000  0.03320000  1
  O  O1261  1  0.29540000  0.82510000  0.46680000  1
  O  O1262  1  0.30900000  0.25810000  0.08398000  1
  O  O1263  1  0.30900000  0.74190000  0.41602000  1
  O  O1264  1  0.31040000  0.24960000  0.84890000  1
  O  O1265  1  0.31040000  0.75040000  0.65110000  1
  O  O1266  1  0.31120000  0.24450000  0.96896000  1
  O  O1267  1  0.31120000  0.75550000  0.53104000  1
  O  O1268  1  0.32470000  0.16300000  0.89650000  1
  O  O1269  1  0.32470000  0.83700000  0.60350000  1
  O  O1270  1  0.32500000  0.32590000  0.02210000  1
  O  O1271  1  0.32500000  0.67410000  0.47790000  1
  O  O1272  1  0.33500000  0.33550000  0.89540000  1
  O  O1273  1  0.33500000  0.66450000  0.60460000  1
  O  O1274  1  0.44670000  0.18230000  0.99500000  1
  O  O1275  1  0.44670000  0.30630000  0.93950000  1
  O  O1276  1  0.44670000  0.69370000  0.56050000  1
  O  O1277  1  0.44670000  0.81770000  0.50500000  1
  O  O1278  1  0.45560000  0.20070000  0.85720000  1
  O  O1279  1  0.45560000  0.79930000  0.64280000  1
  O  O1280  1  0.45770000  0.29570000  0.07240000  1
  O  O1281  1  0.45770000  0.70430000  0.42760000  1
  O  O1282  1  0.46470000  0.19940000  0.93840000  1
  O  O1283  1  0.46470000  0.80060000  0.56160000  1
  O  O1284  1  0.46780000  0.22230000  0.07280000  1
  O  O1285  1  0.46780000  0.77770000  0.42720000  1
  O  O1286  1  0.46810000  0.28890000  0.99629000  1
  O  O1287  1  0.46810000  0.71110000  0.50371000  1
  O  O1288  1  0.47500000  0.27970000  0.86280000  1
  O  O1289  1  0.47500000  0.72030000  0.63720000  1
  O  O1290  1  0.52500000  0.27970000  0.36280000  1
  O  O1291  1  0.52500000  0.72030000  0.13720000  1
  O  O1292  1  0.53190000  0.28890000  0.49629000  1
  O  O1293  1  0.53190000  0.71110000  0.00371000  1
  O  O1294  1  0.53220000  0.22230000  0.57280000  1
  O  O1295  1  0.53220000  0.77770000  0.92720000  1
  O  O1296  1  0.53530000  0.19940000  0.43840000  1
  O  O1297  1  0.53530000  0.80060000  0.06160000  1
  O  O1298  1  0.54230000  0.29570000  0.57240000  1
  O  O1299  1  0.54230000  0.70430000  0.92760000  1
  O  O1300  1  0.54440000  0.20070000  0.35720000  1
  O  O1301  1  0.54440000  0.79930000  0.14280000  1
  O  O1302  1  0.55330000  0.18230000  0.49500000  1
  O  O1303  1  0.55330000  0.30630000  0.43950000  1
  O  O1304  1  0.55330000  0.69370000  0.06050000  1
  O  O1305  1  0.55330000  0.81770000  0.00500000  1
  O  O1306  1  0.66500000  0.33550000  0.39540000  1
  O  O1307  1  0.66500000  0.66450000  0.10460000  1
  O  O1308  1  0.67500000  0.32590000  0.52210000  1
  O  O1309  1  0.67500000  0.67410000  0.97790000  1
  O  O1310  1  0.67530000  0.16300000  0.39650000  1
  O  O1311  1  0.67530000  0.83700000  0.10350000  1
  O  O1312  1  0.68880000  0.24450000  0.46896000  1
  O  O1313  1  0.68880000  0.75550000  0.03104000  1
  O  O1314  1  0.68960000  0.24960000  0.34890000  1
  O  O1315  1  0.68960000  0.75040000  0.15110000  1
  O  O1316  1  0.69100000  0.25810000  0.58398000  1
  O  O1317  1  0.69100000  0.74190000  0.91602000  1
  O  O1318  1  0.70460000  0.17490000  0.53320000  1
  O  O1319  1  0.70460000  0.82510000  0.96680000  1
  O  O1320  1  0.75000000  0.25000000  0.42000000  1
  O  O1321  1  0.75000000  0.75000000  0.08000000  1
  O  O1322  1  0.79540000  0.32510000  0.53320000  1
  O  O1323  1  0.79540000  0.67490000  0.96680000  1
  O  O1324  1  0.80900000  0.24190000  0.58398000  1
  O  O1325  1  0.80900000  0.75810000  0.91602000  1
  O  O1326  1  0.81040000  0.25040000  0.34890000  1
  O  O1327  1  0.81040000  0.74960000  0.15110000  1
  O  O1328  1  0.81120000  0.25550000  0.46896000  1
  O  O1329  1  0.81120000  0.74450000  0.03104000  1
  O  O1330  1  0.82470000  0.33700000  0.39650000  1
  O  O1331  1  0.82470000  0.66300000  0.10350000  1
  O  O1332  1  0.82500000  0.17410000  0.52210000  1
  O  O1333  1  0.82500000  0.82590000  0.97790000  1
  O  O1334  1  0.83500000  0.16450000  0.39540000  1
  O  O1335  1  0.83500000  0.83550000  0.10460000  1
  O  O1336  1  0.94670000  0.19370000  0.43950000  1
  O  O1337  1  0.94670000  0.31770000  0.49500000  1
  O  O1338  1  0.94670000  0.68230000  0.00500000  1
  O  O1339  1  0.94670000  0.80630000  0.06050000  1
  O  O1340  1  0.95560000  0.29930000  0.35720000  1
  O  O1341  1  0.95560000  0.70070000  0.14280000  1
  O  O1342  1  0.95770000  0.20430000  0.57240000  1
  O  O1343  1  0.95770000  0.79570000  0.92760000  1
  O  O1344  1  0.96470000  0.30060000  0.43840000  1
  O  O1345  1  0.96470000  0.69940000  0.06160000  1
  O  O1346  1  0.96780000  0.27770000  0.57280000  1
  O  O1347  1  0.96780000  0.72230000  0.92720000  1
  O  O1348  1  0.96810000  0.21110000  0.49629000  1
  O  O1349  1  0.96810000  0.78890000  0.00371000  1
  O  O1350  1  0.97500000  0.22030000  0.36280000  1
  O  O1351  1  0.97500000  0.77970000  0.13720000  1
