# generated using pymatgen
data_Fe3SiH24C32O15
_symmetry_space_group_name_H-M   'P 1'
_cell_length_a   23.09000000
_cell_length_b   23.97000000
_cell_length_c   24.24000000
_cell_angle_alpha   104.27400000
_cell_angle_beta   90.00000000
_cell_angle_gamma   90.00000000
_symmetry_Int_Tables_number   1
_chemical_formula_structural   Fe3SiH24C32O15
_chemical_formula_sum   'Fe24 Si8 H192 C256 O120'
_cell_volume   13001.86333106
_cell_formula_units_Z   8
loop_
 _symmetry_equiv_pos_site_id
 _symmetry_equiv_pos_as_xyz
  1  'x, y, z'
loop_
 _atom_site_type_symbol
 _atom_site_label
 _atom_site_symmetry_multiplicity
 _atom_site_fract_x
 _atom_site_fract_y
 _atom_site_fract_z
 _atom_site_occupancy
  Fe  Fe0  1  0.92317000  0.25331000  0.53142000  1
  Fe  Fe1  1  0.80301000  0.27230000  0.60794000  1
  Fe  Fe2  1  0.79485000  0.23867000  0.46810000  1
  Fe  Fe3  1  0.78930000  0.34230000  0.85483000  1
  Fe  Fe4  1  0.76700000  0.43953000  0.97561000  1
  Fe  Fe5  1  0.76340000  0.30158000  0.97477000  1
  Fe  Fe6  1  0.73660000  0.80158000  0.97477000  1
  Fe  Fe7  1  0.73300000  0.93953000  0.97561000  1
  Fe  Fe8  1  0.71070000  0.84230000  0.85483000  1
  Fe  Fe9  1  0.70515000  0.73867000  0.46810000  1
  Fe  Fe10  1  0.69699000  0.77230000  0.60794000  1
  Fe  Fe11  1  0.57683000  0.75331000  0.53142000  1
  Fe  Fe12  1  0.42317000  0.24669000  0.46858000  1
  Fe  Fe13  1  0.30301000  0.22770000  0.39206000  1
  Fe  Fe14  1  0.29485000  0.26133000  0.53190000  1
  Fe  Fe15  1  0.28930000  0.15770000  0.14517000  1
  Fe  Fe16  1  0.26700000  0.06047000  0.02439000  1
  Fe  Fe17  1  0.26340000  0.19842000  0.02523000  1
  Fe  Fe18  1  0.23660000  0.69842000  0.02523000  1
  Fe  Fe19  1  0.23300000  0.56047000  0.02439000  1
  Fe  Fe20  1  0.21070000  0.65770000  0.14517000  1
  Fe  Fe21  1  0.20515000  0.76133000  0.53190000  1
  Fe  Fe22  1  0.19699000  0.72770000  0.39206000  1
  Fe  Fe23  1  0.07683000  0.74669000  0.46858000  1
  Si  Si24  1  0.99900000  0.96710000  0.23900000  1
  Si  Si25  1  0.99260000  0.59460000  0.74960000  1
  Si  Si26  1  0.50740000  0.09460000  0.74960000  1
  Si  Si27  1  0.50100000  0.46710000  0.23900000  1
  Si  Si28  1  0.49900000  0.53290000  0.76100000  1
  Si  Si29  1  0.49260000  0.90540000  0.25040000  1
  Si  Si30  1  0.00740000  0.40540000  0.25040000  1
  Si  Si31  1  0.00100000  0.03290000  0.76100000  1
  H  H32  1  0.99960000  0.34850000  0.42890000  1
  H  H33  1  0.99680000  0.10430000  0.42370000  1
  H  H34  1  0.99330000  0.59150000  0.38030000  1
  H  H35  1  0.98820000  0.84620000  0.37050000  1
  H  H36  1  0.97230000  0.72030000  0.44590000  1
  H  H37  1  0.96040000  0.96640000  0.64880000  1
  H  H38  1  0.95910000  0.50120000  0.33050000  1
  H  H39  1  0.95730000  0.45700000  0.86520000  1
  H  H40  1  0.95710000  0.61200000  0.64010000  1
  H  H41  1  0.95260000  0.49520000  0.19480000  1
  H  H42  1  0.95160000  0.06420000  0.87230000  1
  H  H43  1  0.94870000  0.90550000  0.31670000  1
  H  H44  1  0.94820000  0.32280000  0.17800000  1
  H  H45  1  0.94330000  0.62670000  0.86540000  1
  H  H46  1  0.94190000  0.20360000  0.90050000  1
  H  H47  1  0.94180000  0.85240000  0.18210000  1
  H  H48  1  0.93960000  0.01510000  0.16140000  1
  H  H49  1  0.93210000  0.51860000  0.89770000  1
  H  H50  1  0.92830000  0.20340000  0.83570000  1
  H  H51  1  0.91940000  0.94310000  0.72640000  1
  H  H52  1  0.91480000  0.49100000  0.83270000  1
  H  H53  1  0.91080000  0.66960000  0.71680000  1
  H  H54  1  0.89950000  0.09970000  0.76840000  1
  H  H55  1  0.89420000  0.36310000  0.26810000  1
  H  H56  1  0.89360000  0.16120000  0.86580000  1
  H  H57  1  0.89220000  0.02210000  0.25830000  1
  H  H58  1  0.88940000  0.52900000  0.75600000  1
  H  H59  1  0.88920000  0.48490000  0.11760000  1
  H  H60  1  0.88480000  0.31240000  0.10080000  1
  H  H61  1  0.87310000  0.03060000  0.91590000  1
  H  H62  1  0.87310000  0.82480000  0.10960000  1
  H  H63  1  0.87090000  0.98750000  0.08890000  1
  H  H64  1  0.86710000  0.68590000  0.90870000  1
  H  H65  1  0.86000000  0.15900000  0.71450000  1
  H  H66  1  0.85920000  0.65090000  0.52920000  1
  H  H67  1  0.85620000  0.88060000  0.56490000  1
  H  H68  1  0.85520000  0.43870000  0.70630000  1
  H  H69  1  0.85090000  0.32360000  0.33710000  1
  H  H70  1  0.84930000  0.09290000  0.33090000  1
  H  H71  1  0.84080000  0.90950000  0.77010000  1
  H  H72  1  0.83460000  0.72880000  0.76000000  1
  H  H73  1  0.83050000  0.64010000  0.58580000  1
  H  H74  1  0.82160000  0.89370000  0.51230000  1
  H  H75  1  0.81290000  0.60030000  0.52480000  1
  H  H76  1  0.79990000  0.92080000  0.57590000  1
  H  H77  1  0.77160000  0.74360000  0.04090000  1
  H  H78  1  0.76040000  0.19420000  0.36820000  1
  H  H79  1  0.75880000  0.03390000  0.04410000  1
  H  H80  1  0.74120000  0.53390000  0.04410000  1
  H  H81  1  0.73960000  0.69420000  0.36820000  1
  H  H82  1  0.72840000  0.24360000  0.04090000  1
  H  H83  1  0.70010000  0.42080000  0.57590000  1
  H  H84  1  0.68710000  0.10030000  0.52480000  1
  H  H85  1  0.67840000  0.39370000  0.51230000  1
  H  H86  1  0.66950000  0.14010000  0.58580000  1
  H  H87  1  0.66540000  0.22880000  0.76000000  1
  H  H88  1  0.65920000  0.40950000  0.77010000  1
  H  H89  1  0.65070000  0.59290000  0.33090000  1
  H  H90  1  0.64910000  0.82360000  0.33710000  1
  H  H91  1  0.64480000  0.93870000  0.70630000  1
  H  H92  1  0.64380000  0.38060000  0.56490000  1
  H  H93  1  0.64080000  0.15090000  0.52920000  1
  H  H94  1  0.64000000  0.65900000  0.71450000  1
  H  H95  1  0.63290000  0.18590000  0.90870000  1
  H  H96  1  0.62910000  0.48750000  0.08890000  1
  H  H97  1  0.62690000  0.53060000  0.91590000  1
  H  H98  1  0.62690000  0.32480000  0.10960000  1
  H  H99  1  0.61520000  0.81240000  0.10080000  1
  H  H100  1  0.61080000  0.98490000  0.11760000  1
  H  H101  1  0.61060000  0.02900000  0.75600000  1
  H  H102  1  0.60780000  0.52210000  0.25830000  1
  H  H103  1  0.60640000  0.66120000  0.86580000  1
  H  H104  1  0.60580000  0.86310000  0.26810000  1
  H  H105  1  0.60050000  0.59970000  0.76840000  1
  H  H106  1  0.58920000  0.16960000  0.71680000  1
  H  H107  1  0.58520000  0.99100000  0.83270000  1
  H  H108  1  0.58060000  0.44310000  0.72640000  1
  H  H109  1  0.57170000  0.70340000  0.83570000  1
  H  H110  1  0.56790000  0.01860000  0.89770000  1
  H  H111  1  0.56040000  0.51510000  0.16140000  1
  H  H112  1  0.55820000  0.35240000  0.18210000  1
  H  H113  1  0.55810000  0.70360000  0.90050000  1
  H  H114  1  0.55670000  0.12670000  0.86540000  1
  H  H115  1  0.55180000  0.82280000  0.17800000  1
  H  H116  1  0.55130000  0.40550000  0.31670000  1
  H  H117  1  0.54840000  0.56420000  0.87230000  1
  H  H118  1  0.54740000  0.99520000  0.19480000  1
  H  H119  1  0.54290000  0.11200000  0.64010000  1
  H  H120  1  0.54270000  0.95700000  0.86520000  1
  H  H121  1  0.54090000  0.00120000  0.33050000  1
  H  H122  1  0.53960000  0.46640000  0.64880000  1
  H  H123  1  0.52770000  0.22030000  0.44590000  1
  H  H124  1  0.51180000  0.34620000  0.37050000  1
  H  H125  1  0.50670000  0.09150000  0.38030000  1
  H  H126  1  0.50320000  0.60430000  0.42370000  1
  H  H127  1  0.50040000  0.84850000  0.42890000  1
  H  H128  1  0.49960000  0.15150000  0.57110000  1
  H  H129  1  0.49680000  0.39570000  0.57630000  1
  H  H130  1  0.49330000  0.90850000  0.61970000  1
  H  H131  1  0.48820000  0.65380000  0.62950000  1
  H  H132  1  0.47230000  0.77970000  0.55410000  1
  H  H133  1  0.46040000  0.53360000  0.35120000  1
  H  H134  1  0.45910000  0.99880000  0.66950000  1
  H  H135  1  0.45730000  0.04300000  0.13480000  1
  H  H136  1  0.45710000  0.88800000  0.35990000  1
  H  H137  1  0.45260000  0.00480000  0.80520000  1
  H  H138  1  0.45160000  0.43580000  0.12770000  1
  H  H139  1  0.44870000  0.59450000  0.68330000  1
  H  H140  1  0.44820000  0.17720000  0.82200000  1
  H  H141  1  0.44330000  0.87330000  0.13460000  1
  H  H142  1  0.44190000  0.29640000  0.09950000  1
  H  H143  1  0.44180000  0.64760000  0.81790000  1
  H  H144  1  0.43960000  0.48490000  0.83860000  1
  H  H145  1  0.43210000  0.98140000  0.10230000  1
  H  H146  1  0.42830000  0.29660000  0.16430000  1
  H  H147  1  0.41940000  0.55690000  0.27360000  1
  H  H148  1  0.41480000  0.00900000  0.16730000  1
  H  H149  1  0.41080000  0.83040000  0.28320000  1
  H  H150  1  0.39950000  0.40030000  0.23160000  1
  H  H151  1  0.39420000  0.13690000  0.73190000  1
  H  H152  1  0.39360000  0.33880000  0.13420000  1
  H  H153  1  0.39220000  0.47790000  0.74170000  1
  H  H154  1  0.38940000  0.97100000  0.24400000  1
  H  H155  1  0.38920000  0.01510000  0.88240000  1
  H  H156  1  0.38480000  0.18760000  0.89920000  1
  H  H157  1  0.37310000  0.67520000  0.89040000  1
  H  H158  1  0.37310000  0.46940000  0.08410000  1
  H  H159  1  0.37090000  0.51250000  0.91110000  1
  H  H160  1  0.36710000  0.81410000  0.09130000  1
  H  H161  1  0.36000000  0.34100000  0.28550000  1
  H  H162  1  0.35920000  0.84910000  0.47080000  1
  H  H163  1  0.35620000  0.61940000  0.43510000  1
  H  H164  1  0.35520000  0.06130000  0.29370000  1
  H  H165  1  0.35090000  0.17640000  0.66290000  1
  H  H166  1  0.34930000  0.40710000  0.66910000  1
  H  H167  1  0.34080000  0.59050000  0.22990000  1
  H  H168  1  0.33460000  0.77120000  0.24000000  1
  H  H169  1  0.33050000  0.85990000  0.41420000  1
  H  H170  1  0.32160000  0.60630000  0.48770000  1
  H  H171  1  0.31290000  0.89970000  0.47520000  1
  H  H172  1  0.29990000  0.57920000  0.42410000  1
  H  H173  1  0.27160000  0.75640000  0.95910000  1
  H  H174  1  0.26040000  0.30580000  0.63180000  1
  H  H175  1  0.25880000  0.46610000  0.95590000  1
  H  H176  1  0.24120000  0.96610000  0.95590000  1
  H  H177  1  0.23960000  0.80580000  0.63180000  1
  H  H178  1  0.22840000  0.25640000  0.95910000  1
  H  H179  1  0.20010000  0.07920000  0.42410000  1
  H  H180  1  0.18710000  0.39970000  0.47520000  1
  H  H181  1  0.17840000  0.10630000  0.48770000  1
  H  H182  1  0.16950000  0.35990000  0.41420000  1
  H  H183  1  0.16540000  0.27120000  0.24000000  1
  H  H184  1  0.15920000  0.09050000  0.22990000  1
  H  H185  1  0.15070000  0.90710000  0.66910000  1
  H  H186  1  0.14910000  0.67640000  0.66290000  1
  H  H187  1  0.14480000  0.56130000  0.29370000  1
  H  H188  1  0.14380000  0.11940000  0.43510000  1
  H  H189  1  0.14080000  0.34910000  0.47080000  1
  H  H190  1  0.14000000  0.84100000  0.28550000  1
  H  H191  1  0.13290000  0.31410000  0.09130000  1
  H  H192  1  0.12910000  0.01250000  0.91110000  1
  H  H193  1  0.12690000  0.17520000  0.89040000  1
  H  H194  1  0.12690000  0.96940000  0.08410000  1
  H  H195  1  0.11520000  0.68760000  0.89920000  1
  H  H196  1  0.11080000  0.51510000  0.88240000  1
  H  H197  1  0.11060000  0.47100000  0.24400000  1
  H  H198  1  0.10780000  0.97790000  0.74170000  1
  H  H199  1  0.10640000  0.83880000  0.13420000  1
  H  H200  1  0.10580000  0.63690000  0.73190000  1
  H  H201  1  0.10050000  0.90030000  0.23160000  1
  H  H202  1  0.08920000  0.33040000  0.28320000  1
  H  H203  1  0.08520000  0.50900000  0.16730000  1
  H  H204  1  0.08060000  0.05690000  0.27360000  1
  H  H205  1  0.07170000  0.79660000  0.16430000  1
  H  H206  1  0.06790000  0.48140000  0.10230000  1
  H  H207  1  0.06040000  0.98490000  0.83860000  1
  H  H208  1  0.05820000  0.14760000  0.81790000  1
  H  H209  1  0.05810000  0.79640000  0.09950000  1
  H  H210  1  0.05670000  0.37330000  0.13460000  1
  H  H211  1  0.05180000  0.67720000  0.82200000  1
  H  H212  1  0.05130000  0.09450000  0.68330000  1
  H  H213  1  0.04840000  0.93580000  0.12770000  1
  H  H214  1  0.04740000  0.50480000  0.80520000  1
  H  H215  1  0.04290000  0.38800000  0.35990000  1
  H  H216  1  0.04270000  0.54300000  0.13480000  1
  H  H217  1  0.04090000  0.49880000  0.66950000  1
  H  H218  1  0.03960000  0.03360000  0.35120000  1
  H  H219  1  0.02770000  0.27970000  0.55410000  1
  H  H220  1  0.01180000  0.15380000  0.62950000  1
  H  H221  1  0.00670000  0.40850000  0.61970000  1
  H  H222  1  0.00320000  0.89570000  0.57630000  1
  H  H223  1  0.00040000  0.65150000  0.57110000  1
  C  C224  1  0.99900000  0.95440000  0.65300000  1
  C  C225  1  0.99680000  0.51340000  0.32310000  1
  C  C226  1  0.99610000  0.62510000  0.64470000  1
  C  C227  1  0.98900000  0.14280000  0.65770000  1
  C  C228  1  0.98750000  0.89240000  0.31030000  1
  C  C229  1  0.98290000  0.43300000  0.64740000  1
  C  C230  1  0.97910000  0.09150000  0.73100000  1
  C  C231  1  0.97820000  0.35140000  0.39630000  1
  C  C232  1  0.97550000  0.08760000  0.39020000  1
  C  C233  1  0.97260000  0.37930000  0.30750000  1
  C  C234  1  0.96990000  0.02120000  0.29790000  1
  C  C235  1  0.96840000  0.52240000  0.71740000  1
  C  C236  1  0.95630000  0.40990000  0.19360000  1
  C  C237  1  0.94720000  0.93630000  0.17860000  1
  C  C238  1  0.94290000  0.00680000  0.79520000  1
  C  C239  1  0.93880000  0.45810000  0.17570000  1
  C  C240  1  0.93620000  0.35570000  0.16570000  1
  C  C241  1  0.93420000  0.64260000  0.78710000  1
  C  C242  1  0.93210000  0.16200000  0.66690000  1
  C  C243  1  0.92910000  0.03280000  0.85150000  1
  C  C244  1  0.92770000  0.41510000  0.65830000  1
  C  C245  1  0.92740000  0.87980000  0.16320000  1
  C  C246  1  0.92610000  0.97650000  0.15090000  1
  C  C247  1  0.92360000  0.48260000  0.86940000  1
  C  C248  1  0.92230000  0.11070000  0.74020000  1
  C  C249  1  0.92130000  0.64740000  0.84400000  1
  C  C250  1  0.92120000  0.33230000  0.38950000  1
  C  C251  1  0.91900000  0.10520000  0.38410000  1
  C  C252  1  0.91560000  0.36010000  0.30080000  1
  C  C253  1  0.91340000  0.03880000  0.29190000  1
  C  C254  1  0.91320000  0.50460000  0.72840000  1
  C  C255  1  0.91140000  0.19930000  0.87160000  1
  C  C256  1  0.91000000  0.96090000  0.76490000  1
  C  C257  1  0.90560000  0.19980000  0.63240000  1
  C  C258  1  0.90410000  0.35900000  0.63070000  1
  C  C259  1  0.90190000  0.67290000  0.75580000  1
  C  C260  1  0.90120000  0.45200000  0.12980000  1
  C  C261  1  0.89880000  0.14590000  0.70820000  1
  C  C262  1  0.89860000  0.34950000  0.11980000  1
  C  C263  1  0.89450000  0.30660000  0.43310000  1
  C  C264  1  0.89440000  0.15430000  0.42930000  1
  C  C265  1  0.89290000  0.45090000  0.69880000  1
  C  C266  1  0.88990000  0.33670000  0.34170000  1
  C  C267  1  0.88800000  0.08080000  0.33500000  1
  C  C268  1  0.88660000  0.86350000  0.12010000  1
  C  C269  1  0.88530000  0.96010000  0.10780000  1
  C  C270  1  0.88250000  0.01290000  0.87750000  1
  C  C271  1  0.88100000  0.39770000  0.10190000  1
  C  C272  1  0.87600000  0.68260000  0.86970000  1
  C  C273  1  0.86930000  0.45210000  0.88990000  1
  C  C274  1  0.86590000  0.24510000  0.89130000  1
  C  C275  1  0.86550000  0.90360000  0.09240000  1
  C  C276  1  0.86330000  0.94090000  0.79080000  1
  C  C277  1  0.85660000  0.70810000  0.78140000  1
  C  C278  1  0.84960000  0.96690000  0.84710000  1
  C  C279  1  0.84370000  0.71290000  0.83840000  1
  C  C280  1  0.84040000  0.38690000  0.05470000  1
  C  C281  1  0.82370000  0.63940000  0.54570000  1
  C  C282  1  0.82110000  0.89000000  0.04540000  1
  C  C283  1  0.81780000  0.88710000  0.55040000  1
  C  C284  1  0.80150000  0.94140000  0.87520000  1
  C  C285  1  0.79870000  0.75700000  0.86520000  1
  C  C286  1  0.78020000  0.83490000  0.54750000  1
  C  C287  1  0.77560000  0.68060000  0.54140000  1
  C  C288  1  0.72440000  0.18060000  0.54140000  1
  C  C289  1  0.71980000  0.33490000  0.54750000  1
  C  C290  1  0.70130000  0.25700000  0.86520000  1
  C  C291  1  0.69850000  0.44140000  0.87520000  1
  C  C292  1  0.68220000  0.38710000  0.55040000  1
  C  C293  1  0.67890000  0.39000000  0.04540000  1
  C  C294  1  0.67630000  0.13940000  0.54570000  1
  C  C295  1  0.65960000  0.88690000  0.05470000  1
  C  C296  1  0.65630000  0.21290000  0.83840000  1
  C  C297  1  0.65040000  0.46690000  0.84710000  1
  C  C298  1  0.64340000  0.20810000  0.78140000  1
  C  C299  1  0.63670000  0.44090000  0.79080000  1
  C  C300  1  0.63450000  0.40360000  0.09240000  1
  C  C301  1  0.63410000  0.74510000  0.89130000  1
  C  C302  1  0.63070000  0.95210000  0.88990000  1
  C  C303  1  0.62400000  0.18260000  0.86970000  1
  C  C304  1  0.61900000  0.89770000  0.10190000  1
  C  C305  1  0.61750000  0.51290000  0.87750000  1
  C  C306  1  0.61470000  0.46010000  0.10780000  1
  C  C307  1  0.61340000  0.36350000  0.12010000  1
  C  C308  1  0.61200000  0.58080000  0.33500000  1
  C  C309  1  0.61010000  0.83670000  0.34170000  1
  C  C310  1  0.60710000  0.95090000  0.69880000  1
  C  C311  1  0.60560000  0.65430000  0.42930000  1
  C  C312  1  0.60550000  0.80660000  0.43310000  1
  C  C313  1  0.60140000  0.84950000  0.11980000  1
  C  C314  1  0.60120000  0.64590000  0.70820000  1
  C  C315  1  0.59880000  0.95200000  0.12980000  1
  C  C316  1  0.59810000  0.17290000  0.75580000  1
  C  C317  1  0.59590000  0.85900000  0.63070000  1
  C  C318  1  0.59440000  0.69980000  0.63240000  1
  C  C319  1  0.59000000  0.46090000  0.76490000  1
  C  C320  1  0.58860000  0.69930000  0.87160000  1
  C  C321  1  0.58680000  0.00460000  0.72840000  1
  C  C322  1  0.58660000  0.53880000  0.29190000  1
  C  C323  1  0.58440000  0.86010000  0.30080000  1
  C  C324  1  0.58100000  0.60520000  0.38410000  1
  C  C325  1  0.57880000  0.83230000  0.38950000  1
  C  C326  1  0.57870000  0.14740000  0.84400000  1
  C  C327  1  0.57770000  0.61070000  0.74020000  1
  C  C328  1  0.57640000  0.98260000  0.86940000  1
  C  C329  1  0.57390000  0.47650000  0.15090000  1
  C  C330  1  0.57260000  0.37980000  0.16320000  1
  C  C331  1  0.57230000  0.91510000  0.65830000  1
  C  C332  1  0.57090000  0.53280000  0.85150000  1
  C  C333  1  0.56790000  0.66200000  0.66690000  1
  C  C334  1  0.56580000  0.14260000  0.78710000  1
  C  C335  1  0.56380000  0.85570000  0.16570000  1
  C  C336  1  0.56120000  0.95810000  0.17570000  1
  C  C337  1  0.55710000  0.50680000  0.79520000  1
  C  C338  1  0.55280000  0.43630000  0.17860000  1
  C  C339  1  0.54370000  0.90990000  0.19360000  1
  C  C340  1  0.53160000  0.02240000  0.71740000  1
  C  C341  1  0.53010000  0.52120000  0.29790000  1
  C  C342  1  0.52740000  0.87930000  0.30750000  1
  C  C343  1  0.52450000  0.58760000  0.39020000  1
  C  C344  1  0.52180000  0.85140000  0.39630000  1
  C  C345  1  0.52090000  0.59150000  0.73100000  1
  C  C346  1  0.51710000  0.93300000  0.64740000  1
  C  C347  1  0.51250000  0.39240000  0.31030000  1
  C  C348  1  0.51100000  0.64280000  0.65770000  1
  C  C349  1  0.50390000  0.12510000  0.64470000  1
  C  C350  1  0.50320000  0.01340000  0.32310000  1
  C  C351  1  0.50100000  0.45440000  0.65300000  1
  C  C352  1  0.49900000  0.54560000  0.34700000  1
  C  C353  1  0.49680000  0.98660000  0.67690000  1
  C  C354  1  0.49610000  0.87490000  0.35530000  1
  C  C355  1  0.48900000  0.35720000  0.34230000  1
  C  C356  1  0.48750000  0.60760000  0.68970000  1
  C  C357  1  0.48290000  0.06700000  0.35260000  1
  C  C358  1  0.47910000  0.40850000  0.26900000  1
  C  C359  1  0.47820000  0.14860000  0.60370000  1
  C  C360  1  0.47550000  0.41240000  0.60980000  1
  C  C361  1  0.47260000  0.12070000  0.69250000  1
  C  C362  1  0.46990000  0.47880000  0.70210000  1
  C  C363  1  0.46840000  0.97760000  0.28260000  1
  C  C364  1  0.45630000  0.09010000  0.80640000  1
  C  C365  1  0.44720000  0.56370000  0.82140000  1
  C  C366  1  0.44290000  0.49320000  0.20480000  1
  C  C367  1  0.43880000  0.04190000  0.82430000  1
  C  C368  1  0.43620000  0.14430000  0.83430000  1
  C  C369  1  0.43420000  0.85740000  0.21290000  1
  C  C370  1  0.43210000  0.33800000  0.33310000  1
  C  C371  1  0.42910000  0.46720000  0.14850000  1
  C  C372  1  0.42770000  0.08490000  0.34170000  1
  C  C373  1  0.42740000  0.62020000  0.83680000  1
  C  C374  1  0.42610000  0.52350000  0.84910000  1
  C  C375  1  0.42360000  0.01740000  0.13060000  1
  C  C376  1  0.42230000  0.38930000  0.25980000  1
  C  C377  1  0.42130000  0.85260000  0.15600000  1
  C  C378  1  0.42120000  0.16770000  0.61050000  1
  C  C379  1  0.41900000  0.39480000  0.61590000  1
  C  C380  1  0.41560000  0.13990000  0.69920000  1
  C  C381  1  0.41340000  0.46120000  0.70810000  1
  C  C382  1  0.41320000  0.99540000  0.27160000  1
  C  C383  1  0.41140000  0.30070000  0.12840000  1
  C  C384  1  0.41000000  0.53910000  0.23510000  1
  C  C385  1  0.40560000  0.30020000  0.36760000  1
  C  C386  1  0.40410000  0.14100000  0.36930000  1
  C  C387  1  0.40190000  0.82710000  0.24420000  1
  C  C388  1  0.40120000  0.04800000  0.87020000  1
  C  C389  1  0.39880000  0.35410000  0.29180000  1
  C  C390  1  0.39860000  0.15050000  0.88020000  1
  C  C391  1  0.39450000  0.19340000  0.56690000  1
  C  C392  1  0.39440000  0.34570000  0.57070000  1
  C  C393  1  0.39290000  0.04910000  0.30120000  1
  C  C394  1  0.38990000  0.16330000  0.65830000  1
  C  C395  1  0.38800000  0.41920000  0.66500000  1
  C  C396  1  0.38660000  0.63650000  0.87990000  1
  C  C397  1  0.38530000  0.53990000  0.89220000  1
  C  C398  1  0.38250000  0.48710000  0.12250000  1
  C  C399  1  0.38100000  0.10230000  0.89810000  1
  C  C400  1  0.37600000  0.81740000  0.13030000  1
  C  C401  1  0.36930000  0.04790000  0.11010000  1
  C  C402  1  0.36590000  0.25490000  0.10870000  1
  C  C403  1  0.36550000  0.59640000  0.90760000  1
  C  C404  1  0.36330000  0.55910000  0.20920000  1
  C  C405  1  0.35660000  0.79190000  0.21860000  1
  C  C406  1  0.34960000  0.53310000  0.15290000  1
  C  C407  1  0.34370000  0.78710000  0.16160000  1
  C  C408  1  0.34040000  0.11310000  0.94530000  1
  C  C409  1  0.32370000  0.86060000  0.45430000  1
  C  C410  1  0.32110000  0.61000000  0.95460000  1
  C  C411  1  0.31780000  0.61290000  0.44960000  1
  C  C412  1  0.30150000  0.55860000  0.12480000  1
  C  C413  1  0.29870000  0.74300000  0.13480000  1
  C  C414  1  0.28020000  0.66510000  0.45250000  1
  C  C415  1  0.27560000  0.81940000  0.45860000  1
  C  C416  1  0.22440000  0.31940000  0.45860000  1
  C  C417  1  0.21980000  0.16510000  0.45250000  1
  C  C418  1  0.20130000  0.24300000  0.13480000  1
  C  C419  1  0.19850000  0.05860000  0.12480000  1
  C  C420  1  0.18220000  0.11290000  0.44960000  1
  C  C421  1  0.17890000  0.11000000  0.95460000  1
  C  C422  1  0.17630000  0.36060000  0.45430000  1
  C  C423  1  0.15960000  0.61310000  0.94530000  1
  C  C424  1  0.15630000  0.28710000  0.16160000  1
  C  C425  1  0.15040000  0.03310000  0.15290000  1
  C  C426  1  0.14340000  0.29190000  0.21860000  1
  C  C427  1  0.13670000  0.05910000  0.20920000  1
  C  C428  1  0.13450000  0.09640000  0.90760000  1
  C  C429  1  0.13410000  0.75490000  0.10870000  1
  C  C430  1  0.13070000  0.54790000  0.11010000  1
  C  C431  1  0.12400000  0.31740000  0.13030000  1
  C  C432  1  0.11900000  0.60230000  0.89810000  1
  C  C433  1  0.11750000  0.98710000  0.12250000  1
  C  C434  1  0.11470000  0.03990000  0.89220000  1
  C  C435  1  0.11340000  0.13650000  0.87990000  1
  C  C436  1  0.11200000  0.91920000  0.66500000  1
  C  C437  1  0.11010000  0.66330000  0.65830000  1
  C  C438  1  0.10710000  0.54910000  0.30120000  1
  C  C439  1  0.10560000  0.84570000  0.57070000  1
  C  C440  1  0.10550000  0.69340000  0.56690000  1
  C  C441  1  0.10140000  0.65050000  0.88020000  1
  C  C442  1  0.10120000  0.85410000  0.29180000  1
  C  C443  1  0.09880000  0.54800000  0.87020000  1
  C  C444  1  0.09810000  0.32710000  0.24420000  1
  C  C445  1  0.09590000  0.64100000  0.36930000  1
  C  C446  1  0.09440000  0.80020000  0.36760000  1
  C  C447  1  0.09000000  0.03910000  0.23510000  1
  C  C448  1  0.08860000  0.80070000  0.12840000  1
  C  C449  1  0.08680000  0.49540000  0.27160000  1
  C  C450  1  0.08660000  0.96120000  0.70810000  1
  C  C451  1  0.08440000  0.63990000  0.69920000  1
  C  C452  1  0.08100000  0.89480000  0.61590000  1
  C  C453  1  0.07880000  0.66770000  0.61050000  1
  C  C454  1  0.07870000  0.35260000  0.15600000  1
  C  C455  1  0.07770000  0.88930000  0.25980000  1
  C  C456  1  0.07640000  0.51740000  0.13060000  1
  C  C457  1  0.07390000  0.02350000  0.84910000  1
  C  C458  1  0.07260000  0.12020000  0.83680000  1
  C  C459  1  0.07230000  0.58490000  0.34170000  1
  C  C460  1  0.07090000  0.96720000  0.14850000  1
  C  C461  1  0.06790000  0.83800000  0.33310000  1
  C  C462  1  0.06580000  0.35740000  0.21290000  1
  C  C463  1  0.06380000  0.64430000  0.83430000  1
  C  C464  1  0.06120000  0.54190000  0.82430000  1
  C  C465  1  0.05710000  0.99320000  0.20480000  1
  C  C466  1  0.05280000  0.06370000  0.82140000  1
  C  C467  1  0.04370000  0.59010000  0.80640000  1
  C  C468  1  0.03160000  0.47760000  0.28260000  1
  C  C469  1  0.03010000  0.97880000  0.70210000  1
  C  C470  1  0.02740000  0.62070000  0.69250000  1
  C  C471  1  0.02450000  0.91240000  0.60980000  1
  C  C472  1  0.02180000  0.64860000  0.60370000  1
  C  C473  1  0.02090000  0.90850000  0.26900000  1
  C  C474  1  0.01710000  0.56700000  0.35260000  1
  C  C475  1  0.01250000  0.10760000  0.68970000  1
  C  C476  1  0.01100000  0.85720000  0.34230000  1
  C  C477  1  0.00390000  0.37490000  0.35530000  1
  C  C478  1  0.00320000  0.48660000  0.67690000  1
  C  C479  1  0.00100000  0.04560000  0.34700000  1
  O  O480  1  0.98530000  0.74950000  0.46920000  1
  O  O481  1  0.93580000  0.20650000  0.59230000  1
  O  O482  1  0.93280000  0.32760000  0.59200000  1
  O  O483  1  0.92600000  0.29680000  0.47110000  1
  O  O484  1  0.92480000  0.17680000  0.47100000  1
  O  O485  1  0.85720000  0.40630000  0.85520000  1
  O  O486  1  0.85710000  0.27790000  0.85990000  1
  O  O487  1  0.85570000  0.21900000  0.64140000  1
  O  O488  1  0.85530000  0.34080000  0.63830000  1
  O  O489  1  0.84710000  0.25540000  0.53470000  1
  O  O490  1  0.84330000  0.29050000  0.42970000  1
  O  O491  1  0.84270000  0.16770000  0.42790000  1
  O  O492  1  0.83960000  0.46770000  0.93360000  1
  O  O493  1  0.83570000  0.25470000  0.93500000  1
  O  O494  1  0.82520000  0.42950000  0.03800000  1
  O  O495  1  0.81760000  0.33890000  0.03750000  1
  O  O496  1  0.80540000  0.83910000  0.02980000  1
  O  O497  1  0.79860000  0.93230000  0.03300000  1
  O  O498  1  0.79430000  0.96410000  0.92650000  1
  O  O499  1  0.79180000  0.75160000  0.91440000  1
  O  O500  1  0.78010000  0.79870000  0.84830000  1
  O  O501  1  0.77020000  0.36220000  0.93460000  1
  O  O502  1  0.77010000  0.81750000  0.59080000  1
  O  O503  1  0.76810000  0.52740000  0.02000000  1
  O  O504  1  0.76780000  0.90760000  0.84380000  1
  O  O505  1  0.75890000  0.68630000  0.49440000  1
  O  O506  1  0.75870000  0.80820000  0.50160000  1
  O  O507  1  0.75680000  0.23680000  0.01860000  1
  O  O508  1  0.75460000  0.70760000  0.58730000  1
  O  O509  1  0.75330000  0.72300000  0.39170000  1
  O  O510  1  0.74670000  0.22300000  0.39170000  1
  O  O511  1  0.74540000  0.20760000  0.58730000  1
  O  O512  1  0.74320000  0.73680000  0.01860000  1
  O  O513  1  0.74130000  0.30820000  0.50160000  1
  O  O514  1  0.74110000  0.18630000  0.49440000  1
  O  O515  1  0.73220000  0.40760000  0.84380000  1
  O  O516  1  0.73190000  0.02740000  0.02000000  1
  O  O517  1  0.72990000  0.31750000  0.59080000  1
  O  O518  1  0.72980000  0.86220000  0.93460000  1
  O  O519  1  0.71990000  0.29870000  0.84830000  1
  O  O520  1  0.70820000  0.25160000  0.91440000  1
  O  O521  1  0.70570000  0.46410000  0.92650000  1
  O  O522  1  0.70140000  0.43230000  0.03300000  1
  O  O523  1  0.69460000  0.33910000  0.02980000  1
  O  O524  1  0.68240000  0.83890000  0.03750000  1
  O  O525  1  0.67480000  0.92950000  0.03800000  1
  O  O526  1  0.66430000  0.75470000  0.93500000  1
  O  O527  1  0.66040000  0.96770000  0.93360000  1
  O  O528  1  0.65730000  0.66770000  0.42790000  1
  O  O529  1  0.65670000  0.79050000  0.42970000  1
  O  O530  1  0.65290000  0.75540000  0.53470000  1
  O  O531  1  0.64470000  0.84080000  0.63830000  1
  O  O532  1  0.64430000  0.71900000  0.64140000  1
  O  O533  1  0.64290000  0.77790000  0.85990000  1
  O  O534  1  0.64280000  0.90630000  0.85520000  1
  O  O535  1  0.57520000  0.67680000  0.47100000  1
  O  O536  1  0.57400000  0.79680000  0.47110000  1
  O  O537  1  0.56720000  0.82760000  0.59200000  1
  O  O538  1  0.56420000  0.70650000  0.59230000  1
  O  O539  1  0.51470000  0.24950000  0.46920000  1
  O  O540  1  0.48530000  0.75050000  0.53080000  1
  O  O541  1  0.43580000  0.29350000  0.40770000  1
  O  O542  1  0.43280000  0.17240000  0.40800000  1
  O  O543  1  0.42600000  0.20320000  0.52890000  1
  O  O544  1  0.42480000  0.32320000  0.52900000  1
  O  O545  1  0.35720000  0.09370000  0.14480000  1
  O  O546  1  0.35710000  0.22210000  0.14010000  1
  O  O547  1  0.35570000  0.28100000  0.35860000  1
  O  O548  1  0.35530000  0.15920000  0.36170000  1
  O  O549  1  0.34710000  0.24460000  0.46530000  1
  O  O550  1  0.34330000  0.20950000  0.57030000  1
  O  O551  1  0.34270000  0.33230000  0.57210000  1
  O  O552  1  0.33960000  0.03230000  0.06640000  1
  O  O553  1  0.33570000  0.24530000  0.06500000  1
  O  O554  1  0.32520000  0.07050000  0.96200000  1
  O  O555  1  0.31760000  0.16110000  0.96250000  1
  O  O556  1  0.30540000  0.66090000  0.97020000  1
  O  O557  1  0.29860000  0.56770000  0.96700000  1
  O  O558  1  0.29430000  0.53590000  0.07350000  1
  O  O559  1  0.29180000  0.74840000  0.08560000  1
  O  O560  1  0.28010000  0.70130000  0.15170000  1
  O  O561  1  0.27020000  0.13780000  0.06540000  1
  O  O562  1  0.27010000  0.68250000  0.40920000  1
  O  O563  1  0.26810000  0.97260000  0.98000000  1
  O  O564  1  0.26780000  0.59240000  0.15620000  1
  O  O565  1  0.25890000  0.81370000  0.50560000  1
  O  O566  1  0.25870000  0.69180000  0.49840000  1
  O  O567  1  0.25680000  0.26320000  0.98140000  1
  O  O568  1  0.25460000  0.79240000  0.41270000  1
  O  O569  1  0.25330000  0.77700000  0.60830000  1
  O  O570  1  0.24670000  0.27700000  0.60830000  1
  O  O571  1  0.24540000  0.29240000  0.41270000  1
  O  O572  1  0.24320000  0.76320000  0.98140000  1
  O  O573  1  0.24130000  0.19180000  0.49840000  1
  O  O574  1  0.24110000  0.31370000  0.50560000  1
  O  O575  1  0.23220000  0.09240000  0.15620000  1
  O  O576  1  0.23190000  0.47260000  0.98000000  1
  O  O577  1  0.22990000  0.18250000  0.40920000  1
  O  O578  1  0.22980000  0.63780000  0.06540000  1
  O  O579  1  0.21990000  0.20130000  0.15170000  1
  O  O580  1  0.20820000  0.24840000  0.08560000  1
  O  O581  1  0.20570000  0.03590000  0.07350000  1
  O  O582  1  0.20140000  0.06770000  0.96700000  1
  O  O583  1  0.19460000  0.16090000  0.97020000  1
  O  O584  1  0.18240000  0.66110000  0.96250000  1
  O  O585  1  0.17480000  0.57050000  0.96200000  1
  O  O586  1  0.16430000  0.74530000  0.06500000  1
  O  O587  1  0.16040000  0.53230000  0.06640000  1
  O  O588  1  0.15730000  0.83230000  0.57210000  1
  O  O589  1  0.15670000  0.70950000  0.57030000  1
  O  O590  1  0.15290000  0.74460000  0.46530000  1
  O  O591  1  0.14470000  0.65920000  0.36170000  1
  O  O592  1  0.14430000  0.78100000  0.35860000  1
  O  O593  1  0.14290000  0.72210000  0.14010000  1
  O  O594  1  0.14280000  0.59370000  0.14480000  1
  O  O595  1  0.07520000  0.82320000  0.52900000  1
  O  O596  1  0.07400000  0.70320000  0.52890000  1
  O  O597  1  0.06720000  0.67240000  0.40800000  1
  O  O598  1  0.06420000  0.79350000  0.40770000  1
  O  O599  1  0.01470000  0.25050000  0.53080000  1
