# generated using pymatgen
data_Zn2H30C30(NO2)3
_symmetry_space_group_name_H-M   'P 1'
_cell_length_a   22.39944396
_cell_length_b   22.39920000
_cell_length_c   22.39920000
_cell_angle_alpha   109.47100000
_cell_angle_beta   109.47144127
_cell_angle_gamma   109.47144127
_symmetry_Int_Tables_number   1
_chemical_formula_structural   Zn2H30C30(NO2)3
_chemical_formula_sum   'Zn16 H240 C240 N24 O48'
_cell_volume   8651.25631917
_cell_formula_units_Z   8
loop_
 _symmetry_equiv_pos_site_id
 _symmetry_equiv_pos_as_xyz
  1  'x, y, z'
loop_
 _atom_site_type_symbol
 _atom_site_label
 _atom_site_symmetry_multiplicity
 _atom_site_fract_x
 _atom_site_fract_y
 _atom_site_fract_z
 _atom_site_occupancy
  Zn  Zn0  1  0.69438000  0.19438000  0.69438000  1
  Zn  Zn1  1  0.53738000  0.03738000  0.53738000  1
  Zn  Zn2  1  0.19438000  0.69438000  0.19438000  1
  Zn  Zn3  1  0.03738000  0.53738000  0.03738000  1
  Zn  Zn4  1  0.46262000  0.50000000  0.50000000  1
  Zn  Zn5  1  0.30562000  0.50000000  0.50000000  1
  Zn  Zn6  1  1.00000000  1.00000000  0.30562000  1
  Zn  Zn7  1  0.00000000  0.00000000  0.46262000  1
  Zn  Zn8  1  0.50000000  0.80562000  0.00000000  1
  Zn  Zn9  1  0.50000000  0.96262000  0.00000000  1
  Zn  Zn10  1  0.50000000  0.30562000  0.00000000  1
  Zn  Zn11  1  0.50000000  0.46262000  0.00000000  1
  Zn  Zn12  1  0.96262000  0.50000000  0.50000000  1
  Zn  Zn13  1  0.80562000  0.50000000  0.50000000  1
  Zn  Zn14  1  1.00000000  1.00000000  0.80562000  1
  Zn  Zn15  1  1.00000000  1.00000000  0.96262000  1
  H  H16  1  0.32100000  0.28670000  0.32310000  1
  H  H17  1  0.09850000  0.95770000  0.10340000  1
  H  H18  1  0.14840000  0.08670000  0.15710000  1
  H  H19  1  0.43280000  0.06750000  0.44210000  1
  H  H20  1  0.93210000  0.74510000  0.95180000  1
  H  H21  1  0.89840000  0.35430000  0.92310000  1
  H  H22  1  0.12060000  0.26630000  0.14830000  1
  H  H23  1  0.96360000  0.17690000  0.99790000  1
  H  H24  1  0.96570000  0.67900000  0.00210000  1
  H  H25  1  0.05090000  0.42140000  0.08750000  1
  H  H26  1  0.35430000  0.99510000  0.39660000  1
  H  H27  1  0.85430000  0.42310000  0.89840000  1
  H  H28  1  0.56310000  0.94790000  0.60960000  1
  H  H29  1  0.70670000  0.68700000  0.75490000  1
  H  H30  1  0.41250000  0.33390000  0.46340000  1
  H  H31  1  0.83830000  0.95350000  0.89040000  1
  H  H32  1  0.00930000  0.13470000  0.06720000  1
  H  H33  1  0.92960000  0.34290000  0.99130000  1
  H  H34  1  0.55210000  0.66170000  0.61520000  1
  H  H35  1  0.86530000  0.87460000  0.93250000  1
  H  H36  1  0.55790000  0.49070000  0.62540000  1
  H  H37  1  0.98030000  0.29330000  0.04820000  1
  H  H38  1  0.35430000  0.89840000  0.42310000  1
  H  H39  1  0.93830000  0.85160000  0.00870000  1
  H  H40  1  0.06880000  0.04410000  0.14570000  1
  H  H41  1  0.87050000  0.03660000  0.94910000  1
  H  H42  1  0.18470000  0.36140000  0.26550000  1
  H  H43  1  0.84290000  0.49130000  0.92960000  1
  H  H44  1  0.57860000  0.62950000  0.66610000  1
  H  H45  1  0.58080000  0.31530000  0.67670000  1
  H  H46  1  0.39660000  0.85430000  0.49510000  1
  H  H47  1  0.97530000  0.93120000  0.07690000  1
  H  H48  1  0.04230000  0.14080000  0.14570000  1
  H  H49  1  0.43690000  0.38480000  0.54650000  1
  H  H50  1  0.44790000  0.10960000  0.56310000  1
  H  H51  1  0.52770000  0.37940000  0.64570000  1
  H  H52  1  0.35170000  0.11800000  0.47230000  1
  H  H53  1  0.44210000  0.93280000  0.56750000  1
  H  H54  1  0.92140000  0.58750000  0.05090000  1
  H  H55  1  0.93280000  0.44210000  0.06750000  1
  H  H56  1  0.67670000  0.08080000  0.81530000  1
  H  H57  1  0.85430000  0.39660000  0.99510000  1
  H  H58  1  0.85920000  0.90150000  0.00490000  1
  H  H59  1  0.95590000  0.02470000  0.10160000  1
  H  H60  1  0.47230000  0.85170000  0.61800000  1
  H  H61  1  0.73370000  0.85430000  0.88200000  1
  H  H62  1  0.34290000  0.92960000  0.49130000  1
  H  H63  1  0.91330000  0.06170000  0.07040000  1
  H  H64  1  0.94790000  0.56310000  0.10960000  1
  H  H65  1  0.42140000  0.05090000  0.58750000  1
  H  H66  1  0.41920000  0.73450000  0.59590000  1
  H  H67  1  0.00210000  0.46570000  0.17900000  1
  H  H68  1  0.53430000  0.53640000  0.71330000  1
  H  H69  1  0.23450000  0.09590000  0.41920000  1
  H  H70  1  0.79330000  0.54820000  0.98030000  1
  H  H71  1  0.81300000  0.06790000  0.01970000  1
  H  H72  1  0.46570000  0.00210000  0.67900000  1
  H  H73  1  0.64570000  0.02770000  0.87940000  1
  H  H74  1  0.08080000  0.67670000  0.31530000  1
  H  H75  1  0.56790000  0.51970000  0.81300000  1
  H  H76  1  0.29330000  0.98030000  0.54820000  1
  H  H77  1  0.63860000  0.82330000  0.90410000  1
  H  H78  1  0.85170000  0.47230000  0.11800000  1
  H  H79  1  0.67690000  0.49790000  0.96360000  1
  H  H80  1  0.95180000  0.43210000  0.24510000  1
  H  H81  1  0.43210000  0.95180000  0.74510000  1
  H  H82  1  0.32330000  0.40410000  0.63860000  1
  H  H83  1  0.17690000  0.96360000  0.49790000  1
  H  H84  1  0.71330000  0.03430000  0.03640000  1
  H  H85  1  0.86140000  0.76550000  0.18470000  1
  H  H86  1  0.53660000  0.44910000  0.87050000  1
  H  H87  1  0.54650000  0.93690000  0.88480000  1
  H  H88  1  0.00870000  0.43830000  0.35160000  1
  H  H89  1  0.56170000  0.57040000  0.91330000  1
  H  H90  1  0.02770000  0.64570000  0.37940000  1
  H  H91  1  0.07690000  0.47530000  0.43120000  1
  H  H92  1  0.10340000  0.59850000  0.45770000  1
  H  H93  1  0.76630000  0.64830000  0.12060000  1
  H  H94  1  0.59850000  0.10340000  0.95770000  1
  H  H95  1  0.73450000  0.41920000  0.09590000  1
  H  H96  1  0.62540000  0.05790000  0.99070000  1
  H  H97  1  0.46340000  0.91250000  0.83390000  1
  H  H98  1  0.63470000  0.56720000  0.00930000  1
  H  H99  1  0.35430000  0.38200000  0.73370000  1
  H  H100  1  0.26630000  0.12060000  0.64830000  1
  H  H101  1  0.45350000  0.39040000  0.83830000  1
  H  H102  1  0.16170000  0.11520000  0.55210000  1
  H  H103  1  0.00490000  0.35920000  0.40150000  1
  H  H104  1  0.14570000  0.56880000  0.54410000  1
  H  H105  1  0.64080000  0.64570000  0.04230000  1
  H  H106  1  0.36140000  0.18470000  0.76550000  1
  H  H107  1  0.03660000  0.87050000  0.44910000  1
  H  H108  1  0.43830000  0.00870000  0.85160000  1
  H  H109  1  0.90410000  0.13860000  0.32330000  1
  H  H110  1  0.91250000  0.46340000  0.33390000  1
  H  H111  1  0.10160000  0.45590000  0.52470000  1
  H  H112  1  0.15710000  0.64840000  0.58670000  1
  H  H113  1  0.52470000  0.60160000  0.95590000  1
  H  H114  1  0.75490000  0.20670000  0.18700000  1
  H  H115  1  0.13470000  0.00930000  0.56720000  1
  H  H116  1  0.05790000  0.62540000  0.49070000  1
  H  H117  1  0.95350000  0.83830000  0.39040000  1
  H  H118  1  0.64840000  0.15710000  0.08670000  1
  H  H119  1  0.93250000  0.36530000  0.37460000  1
  H  H120  1  0.93690000  0.54650000  0.38480000  1
  H  H121  1  0.12950000  0.16610000  0.57860000  1
  H  H122  1  0.06790000  0.81300000  0.51970000  1
  H  H123  1  0.66170000  0.55210000  0.11520000  1
  H  H124  1  0.47530000  0.07690000  0.93120000  1
  H  H125  1  0.40150000  0.50490000  0.85920000  1
  H  H126  1  0.66610000  0.07860000  0.12950000  1
  H  H127  1  0.32310000  0.82100000  0.78670000  1
  H  H128  1  0.82100000  0.32310000  0.28670000  1
  H  H129  1  0.88200000  0.23370000  0.35430000  1
  H  H130  1  0.56880000  0.14570000  0.04410000  1
  H  H131  1  0.20670000  0.75490000  0.68700000  1
  H  H132  1  0.37460000  0.43250000  0.86530000  1
  H  H133  1  0.07040000  0.41330000  0.56170000  1
  H  H134  1  0.14570000  0.54230000  0.64080000  1
  H  H135  1  0.03640000  0.21330000  0.53430000  1
  H  H136  1  0.03430000  0.71330000  0.53640000  1
  H  H137  1  0.14080000  0.04230000  0.64570000  1
  H  H138  1  0.06170000  0.91330000  0.57040000  1
  H  H139  1  0.36530000  0.93250000  0.87460000  1
  H  H140  1  0.18700000  0.25490000  0.70670000  1
  H  H141  1  0.54410000  0.64570000  0.06880000  1
  H  H142  1  0.85430000  0.73370000  0.38200000  1
  H  H143  1  0.78670000  0.82310000  0.32100000  1
  H  H144  1  0.28670000  0.32100000  0.82310000  1
  H  H145  1  0.62950000  0.57860000  0.16610000  1
  H  H146  1  0.35920000  0.00490000  0.90150000  1
  H  H147  1  0.43120000  0.57690000  0.97530000  1
  H  H148  1  0.61520000  0.05210000  0.16170000  1
  H  H149  1  0.01970000  0.31300000  0.56790000  1
  H  H150  1  0.07860000  0.66610000  0.62950000  1
  H  H151  1  0.88480000  0.04650000  0.43690000  1
  H  H152  1  0.87460000  0.86530000  0.43250000  1
  H  H153  1  0.58670000  0.65710000  0.14840000  1
  H  H154  1  0.89040000  0.33830000  0.45350000  1
  H  H155  1  0.99070000  0.12540000  0.55790000  1
  H  H156  1  0.06720000  0.50930000  0.63470000  1
  H  H157  1  0.68700000  0.70670000  0.25490000  1
  H  H158  1  0.45590000  0.10160000  0.02470000  1
  H  H159  1  0.08670000  0.14840000  0.65710000  1
  H  H160  1  0.02470000  0.95590000  0.60160000  1
  H  H161  1  0.83390000  0.96340000  0.41250000  1
  H  H162  1  0.82330000  0.63860000  0.40410000  1
  H  H163  1  0.35160000  0.50870000  0.93830000  1
  H  H164  1  0.94910000  0.37050000  0.53660000  1
  H  H165  1  0.26550000  0.68470000  0.86140000  1
  H  H166  1  0.54230000  0.14570000  0.14080000  1
  H  H167  1  0.04410000  0.06880000  0.64570000  1
  H  H168  1  0.90150000  0.85920000  0.50490000  1
  H  H169  1  0.05210000  0.61520000  0.66170000  1
  H  H170  1  0.33830000  0.89040000  0.95350000  1
  H  H171  1  0.14830000  0.62060000  0.76630000  1
  H  H172  1  0.23370000  0.88200000  0.85430000  1
  H  H173  1  0.50930000  0.06720000  0.13470000  1
  H  H174  1  0.33390000  0.41250000  0.96340000  1
  H  H175  1  0.49070000  0.55790000  0.12540000  1
  H  H176  1  0.59590000  0.91920000  0.23450000  1
  H  H177  1  0.45770000  0.60340000  0.09850000  1
  H  H178  1  0.93120000  0.97530000  0.57690000  1
  H  H179  1  0.95770000  0.09850000  0.60340000  1
  H  H180  1  0.62060000  0.14830000  0.26630000  1
  H  H181  1  0.87940000  0.14570000  0.52770000  1
  H  H182  1  0.41330000  0.07040000  0.06170000  1
  H  H183  1  0.85160000  0.93830000  0.50870000  1
  H  H184  1  0.38480000  0.43690000  0.04650000  1
  H  H185  1  0.37050000  0.94910000  0.03660000  1
  H  H186  1  0.68470000  0.26550000  0.36140000  1
  H  H187  1  0.53640000  0.53430000  0.21330000  1
  H  H188  1  0.99790000  0.46360000  0.67690000  1
  H  H189  1  0.13860000  0.90410000  0.82330000  1
  H  H190  1  0.24510000  0.45180000  0.93210000  1
  H  H191  1  0.74510000  0.93210000  0.45180000  1
  H  H192  1  0.46360000  0.99790000  0.17690000  1
  H  H193  1  0.61800000  0.97230000  0.35170000  1
  H  H194  1  0.40410000  0.32330000  0.13860000  1
  H  H195  1  0.04820000  0.48030000  0.79330000  1
  H  H196  1  0.31300000  0.01970000  0.06790000  1
  H  H197  1  0.81530000  0.17670000  0.58080000  1
  H  H198  1  0.37940000  0.52770000  0.14570000  1
  H  H199  1  0.17900000  0.50210000  0.96570000  1
  H  H200  1  0.51970000  0.56790000  0.31300000  1
  H  H201  1  0.48030000  0.04820000  0.29330000  1
  H  H202  1  0.91920000  0.59590000  0.73450000  1
  H  H203  1  0.21330000  0.03640000  0.03430000  1
  H  H204  1  0.67900000  0.96570000  0.50210000  1
  H  H205  1  0.09590000  0.23450000  0.91920000  1
  H  H206  1  0.08750000  0.55090000  0.92140000  1
  H  H207  1  0.60960000  0.06310000  0.44790000  1
  H  H208  1  0.57040000  0.56170000  0.41330000  1
  H  H209  1  0.99130000  0.42960000  0.84290000  1
  H  H210  1  0.38200000  0.35430000  0.23370000  1
  H  H211  1  0.11800000  0.35170000  0.97230000  1
  H  H212  1  0.50490000  0.40150000  0.35920000  1
  H  H213  1  0.60160000  0.52470000  0.45590000  1
  H  H214  1  0.49510000  0.89660000  0.35430000  1
  H  H215  1  0.31530000  0.58080000  0.17670000  1
  H  H216  1  0.56750000  0.94210000  0.43280000  1
  H  H217  1  0.55090000  0.08750000  0.42140000  1
  H  H218  1  0.06750000  0.43280000  0.94210000  1
  H  H219  1  0.97230000  0.61800000  0.85170000  1
  H  H220  1  0.14570000  0.87940000  0.02770000  1
  H  H221  1  0.06310000  0.60960000  0.94790000  1
  H  H222  1  0.04650000  0.88480000  0.93690000  1
  H  H223  1  0.64570000  0.64080000  0.54230000  1
  H  H224  1  0.57690000  0.43120000  0.47530000  1
  H  H225  1  0.99510000  0.35430000  0.89660000  1
  H  H226  1  0.17670000  0.81530000  0.08080000  1
  H  H227  1  0.16610000  0.12950000  0.07860000  1
  H  H228  1  0.42960000  0.99130000  0.34290000  1
  H  H229  1  0.76550000  0.86140000  0.68470000  1
  H  H230  1  0.44910000  0.53660000  0.37050000  1
  H  H231  1  0.64570000  0.54410000  0.56880000  1
  H  H232  1  0.50870000  0.35160000  0.43830000  1
  H  H233  1  0.92310000  0.39840000  0.85430000  1
  H  H234  1  0.54820000  0.79330000  0.48030000  1
  H  H235  1  0.12540000  0.99070000  0.05790000  1
  H  H236  1  0.43250000  0.37460000  0.36530000  1
  H  H237  1  0.11520000  0.16170000  0.05210000  1
  H  H238  1  0.49130000  0.84290000  0.42960000  1
  H  H239  1  0.56720000  0.63470000  0.50930000  1
  H  H240  1  0.39040000  0.45350000  0.33830000  1
  H  H241  1  0.96340000  0.83390000  0.91250000  1
  H  H242  1  0.25490000  0.18700000  0.20670000  1
  H  H243  1  0.10960000  0.44790000  0.06310000  1
  H  H244  1  0.39840000  0.92310000  0.35430000  1
  H  H245  1  0.89660000  0.49510000  0.85430000  1
  H  H246  1  0.58750000  0.92140000  0.55090000  1
  H  H247  1  0.50210000  0.17900000  0.46570000  1
  H  H248  1  0.49790000  0.67690000  0.46360000  1
  H  H249  1  0.64830000  0.76630000  0.62060000  1
  H  H250  1  0.42310000  0.85430000  0.39840000  1
  H  H251  1  0.45180000  0.24510000  0.43210000  1
  H  H252  1  0.94210000  0.56750000  0.93280000  1
  H  H253  1  0.65710000  0.58670000  0.64840000  1
  H  H254  1  0.60340000  0.45770000  0.59850000  1
  H  H255  1  0.82310000  0.78670000  0.82100000  1
  C  C256  1  0.49120000  0.71250000  0.49370000  1
  C  C257  1  0.47850000  0.26010000  0.48240000  1
  C  C258  1  0.00250000  0.72130000  0.00880000  1
  C  C259  1  0.27870000  0.28120000  0.28750000  1
  C  C260  1  0.58200000  0.19810000  0.59410000  1
  C  C261  1  0.66450000  0.71410000  0.67780000  1
  C  C262  1  0.54510000  0.91150000  0.55880000  1
  C  C263  1  0.57350000  0.48090000  0.58840000  1
  C  C264  1  0.00390000  0.28160000  0.02150000  1
  C  C265  1  0.40740000  0.01490000  0.42650000  1
  C  C266  1  0.71840000  0.72230000  0.73990000  1
  C  C267  1  0.09620000  0.05210000  0.11970000  1
  C  C268  1  0.16040000  0.26880000  0.18420000  1
  C  C269  1  0.54870000  0.24190000  0.57460000  1
  C  C270  1  0.51330000  0.83550000  0.54960000  1
  C  C271  1  0.93240000  0.38030000  0.97650000  1
  C  C272  1  0.58850000  0.64730000  0.63360000  1
  C  C273  1  0.25810000  0.33270000  0.30680000  1
  C  C274  1  0.48670000  0.32220000  0.53630000  1
  C  C275  1  0.88030000  0.47650000  0.93240000  1
  C  C276  1  0.19890000  0.32550000  0.25340000  1
  C  C277  1  0.45490000  0.36640000  0.51370000  1
  C  C278  1  0.95590000  0.90380000  0.02350000  1
  C  C279  1  0.55450000  0.30110000  0.62660000  1
  C  C280  1  0.01910000  0.10750000  0.09260000  1
  C  C281  1  0.45130000  0.69320000  0.52590000  1
  C  C282  1  0.30190000  0.39600000  0.38390000  1
  C  C283  1  0.52380000  0.33960000  0.60840000  1
  C  C284  1  0.42650000  0.90740000  0.51490000  1
  C  C285  1  0.85270000  0.98630000  0.94120000  1
  C  C286  1  0.89250000  0.91160000  0.98510000  1
  C  C287  1  0.41800000  0.61610000  0.51210000  1
  C  C288  1  0.38030000  0.93240000  0.47650000  1
  C  C289  1  0.59410000  0.08200000  0.69810000  1
  C  C290  1  0.90740000  0.42650000  0.01490000  1
  C  C291  1  0.47620000  0.81580000  0.58460000  1
  C  C292  1  0.08200000  0.59410000  0.19810000  1
  C  C293  1  0.94790000  0.04410000  0.06760000  1
  C  C294  1  0.44550000  0.74660000  0.57210000  1
  C  C295  1  0.41150000  0.05880000  0.54510000  1
  C  C296  1  0.91150000  0.54510000  0.05880000  1
  C  C297  1  0.31580000  0.08460000  0.47620000  1
  C  C298  1  0.78590000  0.96370000  0.95040000  1
  C  C299  1  0.57460000  0.04870000  0.74190000  1
  C  C300  1  0.62660000  0.05450000  0.80110000  1
  C  C301  1  0.33550000  0.04960000  0.51330000  1
  C  C302  1  0.73120000  0.89160000  0.91540000  1
  C  C303  1  0.04870000  0.57460000  0.24190000  1
  C  C304  1  0.40590000  0.48790000  0.60400000  1
  C  C305  1  0.24660000  0.07210000  0.44550000  1
  C  C306  1  0.00880000  0.50250000  0.22130000  1
  C  C307  1  0.83550000  0.51330000  0.04960000  1
  C  C308  1  0.77770000  0.01760000  0.99610000  1
  C  C309  1  0.50250000  0.00880000  0.72130000  1
  C  C310  1  0.49750000  0.50630000  0.71880000  1
  C  C311  1  0.78160000  0.52150000  0.00390000  1
  C  C312  1  0.60840000  0.02380000  0.83960000  1
  C  C313  1  0.28160000  0.00390000  0.52150000  1
  C  C314  1  0.42540000  0.47410000  0.66730000  1
  C  C315  1  0.05450000  0.62660000  0.30110000  1
  C  C316  1  0.67450000  0.87340000  0.92790000  1
  C  C317  1  0.19320000  0.02590000  0.45130000  1
  C  C318  1  0.51760000  0.49610000  0.77770000  1
  C  C319  1  0.81580000  0.47620000  0.08460000  1
  C  C320  1  0.48240000  0.97850000  0.76010000  1
  C  C321  1  0.21250000  0.99370000  0.49120000  1
  C  C322  1  0.71250000  0.49120000  0.99370000  1
  C  C323  1  0.97850000  0.48240000  0.26010000  1
  C  C324  1  0.53630000  0.98670000  0.82220000  1
  C  C325  1  0.71880000  0.99750000  0.00630000  1
  C  C326  1  0.37340000  0.42790000  0.67450000  1
  C  C327  1  0.11610000  0.01210000  0.41800000  1
  C  C328  1  0.66730000  0.92540000  0.97410000  1
  C  C329  1  0.02380000  0.60840000  0.33960000  1
  C  C330  1  0.46370000  0.45040000  0.78590000  1
  C  C331  1  0.74660000  0.44550000  0.07210000  1
  C  C332  1  0.69320000  0.45130000  0.02590000  1
  C  C333  1  0.98670000  0.53630000  0.32220000  1
  C  C334  1  0.39160000  0.41540000  0.73120000  1
  C  C335  1  0.51370000  0.95490000  0.86640000  1
  C  C336  1  0.48630000  0.44120000  0.85270000  1
  C  C337  1  0.82550000  0.75340000  0.19890000  1
  C  C338  1  0.02350000  0.45590000  0.40380000  1
  C  C339  1  0.60400000  0.90590000  0.98790000  1
  C  C340  1  0.76880000  0.68420000  0.16040000  1
  C  C341  1  0.58840000  0.07350000  0.98090000  1
  C  C342  1  0.61610000  0.41800000  0.01210000  1
  C  C343  1  0.54410000  0.56760000  0.94790000  1
  C  C344  1  0.89600000  0.88390000  0.30190000  1
  C  C345  1  0.07350000  0.58840000  0.48090000  1
  C  C346  1  0.95490000  0.51370000  0.36640000  1
  C  C347  1  0.60750000  0.59260000  0.01910000  1
  C  C348  1  0.26880000  0.16040000  0.68420000  1
  C  C349  1  0.98790000  0.10400000  0.40590000  1
  C  C350  1  0.83270000  0.80680000  0.25810000  1
  C  C351  1  0.98510000  0.39250000  0.41160000  1
  C  C352  1  0.32550000  0.19890000  0.75340000  1
  C  C353  1  0.11970000  0.59620000  0.55210000  1
  C  C354  1  0.14730000  0.13360000  0.58850000  1
  C  C355  1  0.92790000  0.17450000  0.37340000  1
  C  C356  1  0.45590000  0.02350000  0.90380000  1
  C  C357  1  0.21410000  0.17780000  0.66450000  1
  C  C358  1  0.97410000  0.16730000  0.42540000  1
  C  C359  1  0.98630000  0.85270000  0.44120000  1
  C  C360  1  0.59620000  0.11970000  0.05210000  1
  C  C361  1  0.71410000  0.66450000  0.17780000  1
  C  C362  1  0.33270000  0.25810000  0.80680000  1
  C  C363  1  0.91540000  0.23120000  0.39160000  1
  C  C364  1  0.06760000  0.44790000  0.54410000  1
  C  C365  1  0.01760000  0.77770000  0.49610000  1
  C  C366  1  0.41160000  0.48510000  0.89250000  1
  C  C367  1  0.73990000  0.21840000  0.22230000  1
  C  C368  1  0.10750000  0.01910000  0.59260000  1
  C  C369  1  0.64730000  0.58850000  0.13360000  1
  C  C370  1  0.96370000  0.78590000  0.45040000  1
  C  C371  1  0.39600000  0.30190000  0.88390000  1
  C  C372  1  0.00630000  0.21880000  0.49750000  1
  C  C373  1  0.28750000  0.77870000  0.78120000  1
  C  C374  1  0.22230000  0.23990000  0.71840000  1
  C  C375  1  0.78120000  0.78750000  0.27870000  1
  C  C376  1  0.77870000  0.28750000  0.28120000  1
  C  C377  1  0.21840000  0.73990000  0.72230000  1
  C  C378  1  0.28120000  0.27870000  0.78750000  1
  C  C379  1  0.99750000  0.71880000  0.50630000  1
  C  C380  1  0.38390000  0.80190000  0.89600000  1
  C  C381  1  0.95040000  0.28590000  0.46370000  1
  C  C382  1  0.63360000  0.08850000  0.14730000  1
  C  C383  1  0.09260000  0.51910000  0.60750000  1
  C  C384  1  0.72230000  0.71840000  0.23990000  1
  C  C385  1  0.39250000  0.98510000  0.91160000  1
  C  C386  1  0.99610000  0.27770000  0.51760000  1
  C  C387  1  0.04410000  0.94790000  0.56760000  1
  C  C388  1  0.89160000  0.73120000  0.41540000  1
  C  C389  1  0.30680000  0.75810000  0.83270000  1
  C  C390  1  0.67780000  0.16450000  0.21410000  1
  C  C391  1  0.55210000  0.61970000  0.09620000  1
  C  C392  1  0.94120000  0.35270000  0.48630000  1
  C  C393  1  0.92540000  0.66730000  0.47410000  1
  C  C394  1  0.16450000  0.67780000  0.71410000  1
  C  C395  1  0.40380000  0.52350000  0.95590000  1
  C  C396  1  0.87340000  0.67450000  0.42790000  1
  C  C397  1  0.08850000  0.63360000  0.64730000  1
  C  C398  1  0.05210000  0.09620000  0.61970000  1
  C  C399  1  0.25340000  0.69890000  0.82550000  1
  C  C400  1  0.91160000  0.89250000  0.48510000  1
  C  C401  1  0.75810000  0.30680000  0.33270000  1
  C  C402  1  0.90590000  0.60400000  0.48790000  1
  C  C403  1  0.18420000  0.66040000  0.76880000  1
  C  C404  1  0.51910000  0.09260000  0.10750000  1
  C  C405  1  0.86640000  0.01370000  0.45490000  1
  C  C406  1  0.98090000  0.08840000  0.57350000  1
  C  C407  1  0.80190000  0.38390000  0.39600000  1
  C  C408  1  0.44790000  0.06760000  0.04410000  1
  C  C409  1  0.51210000  0.91800000  0.11610000  1
  C  C410  1  0.48090000  0.57350000  0.08840000  1
  C  C411  1  0.66040000  0.18420000  0.26880000  1
  C  C412  1  0.48790000  0.40590000  0.10400000  1
  C  C413  1  0.90380000  0.95590000  0.52350000  1
  C  C414  1  0.69890000  0.25340000  0.32550000  1
  C  C415  1  0.35270000  0.94120000  0.98630000  1
  C  C416  1  0.36640000  0.45490000  0.01370000  1
  C  C417  1  0.23120000  0.91540000  0.89160000  1
  C  C418  1  0.82220000  0.03630000  0.48670000  1
  C  C419  1  0.52590000  0.95130000  0.19320000  1
  C  C420  1  0.57210000  0.94550000  0.24660000  1
  C  C421  1  0.28590000  0.95040000  0.96370000  1
  C  C422  1  0.83960000  0.10840000  0.52380000  1
  C  C423  1  0.47410000  0.42540000  0.16730000  1
  C  C424  1  0.91800000  0.51210000  0.61610000  1
  C  C425  1  0.17450000  0.92790000  0.87340000  1
  C  C426  1  0.50630000  0.49750000  0.21880000  1
  C  C427  1  0.32220000  0.48670000  0.03630000  1
  C  C428  1  0.76010000  0.98240000  0.47850000  1
  C  C429  1  0.49370000  0.99120000  0.21250000  1
  C  C430  1  0.99120000  0.49370000  0.71250000  1
  C  C431  1  0.26010000  0.47850000  0.98240000  1
  C  C432  1  0.58460000  0.97620000  0.31580000  1
  C  C433  1  0.27770000  0.99610000  0.01760000  1
  C  C434  1  0.95130000  0.52590000  0.69320000  1
  C  C435  1  0.42790000  0.37340000  0.17450000  1
  C  C436  1  0.80110000  0.12660000  0.55450000  1
  C  C437  1  0.16730000  0.97410000  0.92540000  1
  C  C438  1  0.02150000  0.50390000  0.78160000  1
  C  C439  1  0.33960000  0.52380000  0.10840000  1
  C  C440  1  0.50390000  0.02150000  0.28160000  1
  C  C441  1  0.21880000  0.00630000  0.99750000  1
  C  C442  1  0.22130000  0.50880000  0.00250000  1
  C  C443  1  0.49610000  0.51760000  0.27770000  1
  C  C444  1  0.54960000  0.01330000  0.33550000  1
  C  C445  1  0.72130000  0.00250000  0.50880000  1
  C  C446  1  0.94550000  0.57210000  0.74660000  1
  C  C447  1  0.10400000  0.98790000  0.90590000  1
  C  C448  1  0.74190000  0.07460000  0.54870000  1
  C  C449  1  0.41540000  0.39160000  0.23120000  1
  C  C450  1  0.01330000  0.54960000  0.83550000  1
  C  C451  1  0.30110000  0.55450000  0.12660000  1
  C  C452  1  0.24190000  0.54870000  0.07460000  1
  C  C453  1  0.45040000  0.46370000  0.28590000  1
  C  C454  1  0.97620000  0.58460000  0.81580000  1
  C  C455  1  0.55880000  0.04510000  0.41150000  1
  C  C456  1  0.04510000  0.55880000  0.91150000  1
  C  C457  1  0.07210000  0.24660000  0.94550000  1
  C  C458  1  0.56760000  0.54410000  0.44790000  1
  C  C459  1  0.69810000  0.09410000  0.58200000  1
  C  C460  1  0.08460000  0.31580000  0.97620000  1
  C  C461  1  0.51490000  0.92650000  0.40740000  1
  C  C462  1  0.19810000  0.58200000  0.09410000  1
  C  C463  1  0.97650000  0.43240000  0.88030000  1
  C  C464  1  0.01210000  0.11610000  0.91800000  1
  C  C465  1  0.48510000  0.41160000  0.39250000  1
  C  C466  1  0.44120000  0.48630000  0.35270000  1
  C  C467  1  0.01490000  0.40740000  0.92650000  1
  C  C468  1  0.10840000  0.83960000  0.02380000  1
  C  C469  1  0.88390000  0.89600000  0.80190000  1
  C  C470  1  0.02590000  0.19320000  0.95130000  1
  C  C471  1  0.59260000  0.60750000  0.51910000  1
  C  C472  1  0.12660000  0.80110000  0.05450000  1
  C  C473  1  0.52350000  0.40380000  0.45590000  1
  C  C474  1  0.01370000  0.86640000  0.95490000  1
  C  C475  1  0.75340000  0.82550000  0.69890000  1
  C  C476  1  0.43240000  0.97650000  0.38030000  1
  C  C477  1  0.03630000  0.82220000  0.98670000  1
  C  C478  1  0.80680000  0.83270000  0.75810000  1
  C  C479  1  0.13360000  0.14730000  0.08850000  1
  C  C480  1  0.47650000  0.88030000  0.43240000  1
  C  C481  1  0.04960000  0.33550000  0.01330000  1
  C  C482  1  0.07460000  0.74190000  0.04870000  1
  C  C483  1  0.68420000  0.76880000  0.66040000  1
  C  C484  1  0.61970000  0.55210000  0.59620000  1
  C  C485  1  0.23990000  0.22230000  0.21840000  1
  C  C486  1  0.92650000  0.51490000  0.90740000  1
  C  C487  1  0.52150000  0.78160000  0.50390000  1
  C  C488  1  0.08840000  0.98090000  0.07350000  1
  C  C489  1  0.05880000  0.41150000  0.04510000  1
  C  C490  1  0.17780000  0.21410000  0.16450000  1
  C  C491  1  0.09410000  0.69810000  0.08200000  1
  C  C492  1  0.78750000  0.78120000  0.77870000  1
  C  C493  1  0.50880000  0.22130000  0.50250000  1
  C  C494  1  0.98240000  0.76010000  0.97850000  1
  C  C495  1  0.99370000  0.21250000  0.99120000  1
  N  N496  1  0.50880000  0.43020000  0.51600000  1
  N  N497  1  0.06980000  0.08580000  0.07860000  1
  N  N498  1  0.49120000  0.92140000  0.50720000  1
  N  N499  1  0.42140000  0.00720000  0.49120000  1
  N  N500  1  0.91420000  0.98400000  0.99280000  1
  N  N501  1  0.92140000  0.49120000  0.00720000  1
  N  N502  1  0.51600000  0.00880000  0.93020000  1
  N  N503  1  0.00880000  0.51600000  0.43020000  1
  N  N504  1  0.48400000  0.49280000  0.91420000  1
  N  N505  1  0.58580000  0.57860000  0.06980000  1
  N  N506  1  0.99280000  0.41420000  0.48400000  1
  N  N507  1  0.08580000  0.06980000  0.57860000  1
  N  N508  1  0.07860000  0.56980000  0.58580000  1
  N  N509  1  0.98400000  0.91420000  0.49280000  1
  N  N510  1  0.56980000  0.07860000  0.08580000  1
  N  N511  1  0.41420000  0.99280000  0.98400000  1
  N  N512  1  0.93020000  0.01600000  0.50880000  1
  N  N513  1  0.43020000  0.50880000  0.01600000  1
  N  N514  1  0.50720000  0.99120000  0.42140000  1
  N  N515  1  0.49280000  0.48400000  0.41420000  1
  N  N516  1  0.99120000  0.50720000  0.92140000  1
  N  N517  1  0.00720000  0.42140000  0.99120000  1
  N  N518  1  0.57860000  0.58580000  0.56980000  1
  N  N519  1  0.01600000  0.93020000  0.00880000  1
  O  O520  1  0.04797000  0.63999000  0.06534000  1
  O  O521  1  0.62900000  0.22925000  0.66245000  1
  O  O522  1  0.43466000  0.57465000  0.48263000  1
  O  O523  1  0.36001000  0.40798000  0.42535000  1
  O  O524  1  0.66245000  0.12900000  0.72925000  1
  O  O525  1  0.06534000  0.54797000  0.13999000  1
  O  O526  1  0.54797000  0.06534000  0.63999000  1
  O  O527  1  0.12900000  0.66245000  0.22925000  1
  O  O528  1  0.27075000  0.43320000  0.39975000  1
  O  O529  1  0.45203000  0.51737000  0.59202000  1
  O  O530  1  0.37100000  0.60025000  0.53345000  1
  O  O531  1  0.33755000  0.46655000  0.56680000  1
  O  O532  1  0.10025000  0.03345000  0.37100000  1
  O  O533  1  0.93320000  0.89975000  0.27075000  1
  O  O534  1  0.07465000  0.98263000  0.43466000  1
  O  O535  1  0.96655000  0.06680000  0.33755000  1
  O  O536  1  0.56680000  0.83755000  0.96655000  1
  O  O537  1  0.57465000  0.43466000  0.98263000  1
  O  O538  1  0.59202000  0.95203000  0.01737000  1
  O  O539  1  0.60025000  0.37100000  0.03345000  1
  O  O540  1  0.01737000  0.09202000  0.45203000  1
  O  O541  1  0.90798000  0.92535000  0.36001000  1
  O  O542  1  0.43320000  0.27075000  0.89975000  1
  O  O543  1  0.42535000  0.86001000  0.90798000  1
  O  O544  1  0.40798000  0.36001000  0.92535000  1
  O  O545  1  0.39975000  0.77075000  0.93320000  1
  O  O546  1  0.86001000  0.42535000  0.40798000  1
  O  O547  1  0.95203000  0.59202000  0.51737000  1
  O  O548  1  0.53345000  0.87100000  0.10025000  1
  O  O549  1  0.51737000  0.45203000  0.09202000  1
  O  O550  1  0.48263000  0.93466000  0.07465000  1
  O  O551  1  0.46655000  0.33755000  0.06680000  1
  O  O552  1  0.83755000  0.56680000  0.46655000  1
  O  O553  1  0.93466000  0.48263000  0.57465000  1
  O  O554  1  0.77075000  0.39975000  0.43320000  1
  O  O555  1  0.87100000  0.53345000  0.60025000  1
  O  O556  1  0.06680000  0.96655000  0.83755000  1
  O  O557  1  0.03345000  0.10025000  0.87100000  1
  O  O558  1  0.09202000  0.01737000  0.95203000  1
  O  O559  1  0.89975000  0.93320000  0.77075000  1
  O  O560  1  0.72925000  0.16245000  0.62900000  1
  O  O561  1  0.13999000  0.56534000  0.04797000  1
  O  O562  1  0.63999000  0.04797000  0.56534000  1
  O  O563  1  0.22925000  0.62900000  0.16245000  1
  O  O564  1  0.92535000  0.90798000  0.86001000  1
  O  O565  1  0.98263000  0.07465000  0.93466000  1
  O  O566  1  0.16245000  0.72925000  0.12900000  1
  O  O567  1  0.56534000  0.13999000  0.54797000  1
