# generated using pymatgen
data_Zn2P2H16C13(NO3)2
_symmetry_space_group_name_H-M   'P 1'
_cell_length_a   9.55330000
_cell_length_b   9.99470000
_cell_length_c   23.88660000
_cell_angle_alpha   90.00000000
_cell_angle_beta   90.00000000
_cell_angle_gamma   90.00000000
_symmetry_Int_Tables_number   1
_chemical_formula_structural   Zn2P2H16C13(NO3)2
_chemical_formula_sum   'Zn8 P8 H64 C52 N8 O24'
_cell_volume   2280.74911976
_cell_formula_units_Z   4
loop_
 _symmetry_equiv_pos_site_id
 _symmetry_equiv_pos_as_xyz
  1  'x, y, z'
loop_
 _atom_site_type_symbol
 _atom_site_label
 _atom_site_symmetry_multiplicity
 _atom_site_fract_x
 _atom_site_fract_y
 _atom_site_fract_z
 _atom_site_occupancy
  Zn  Zn0  1  0.17472000  0.37449000  0.51194000  1
  Zn  Zn1  1  0.17472000  0.37449000  0.98806000  1
  Zn  Zn2  1  0.32528000  0.87449000  0.51194000  1
  Zn  Zn3  1  0.32528000  0.87449000  0.98806000  1
  Zn  Zn4  1  0.67472000  0.12551000  0.01194000  1
  Zn  Zn5  1  0.67472000  0.12551000  0.48806000  1
  Zn  Zn6  1  0.82528000  0.62551000  0.01194000  1
  Zn  Zn7  1  0.82528000  0.62551000  0.48806000  1
  P  P8  1  0.11269000  0.65418000  0.56129000  1
  P  P9  1  0.11269000  0.65418000  0.93871000  1
  P  P10  1  0.38731000  0.15418000  0.56129000  1
  P  P11  1  0.38731000  0.15418000  0.93871000  1
  P  P12  1  0.61269000  0.84582000  0.06129000  1
  P  P13  1  0.61269000  0.84582000  0.43871000  1
  P  P14  1  0.88731000  0.34582000  0.06129000  1
  P  P15  1  0.88731000  0.34582000  0.43871000  1
  H  H16  1  0.03180000  0.87540000  0.03960000  1
  H  H17  1  0.03180000  0.87540000  0.46040000  1
  H  H18  1  0.03560000  0.22900000  0.19820000  1
  H  H19  1  0.03560000  0.22900000  0.30180000  1
  H  H20  1  0.06680000  0.97120000  0.25000000  1
  H  H21  1  0.06860000  0.70280000  0.60860000  1
  H  H22  1  0.06860000  0.70280000  0.89140000  1
  H  H23  1  0.08030000  0.03170000  0.61620000  1
  H  H24  1  0.08030000  0.03170000  0.88380000  1
  H  H25  1  0.08050000  0.88640000  0.69660000  1
  H  H26  1  0.08050000  0.88640000  0.80340000  1
  H  H27  1  0.12130000  0.57060000  0.07550000  1
  H  H28  1  0.12130000  0.57060000  0.42450000  1
  H  H29  1  0.18720000  0.08280000  0.25000000  1
  H  H30  1  0.22340000  0.66600000  0.15310000  1
  H  H31  1  0.22340000  0.66600000  0.34690000  1
  H  H32  1  0.27660000  0.16600000  0.15310000  1
  H  H33  1  0.27660000  0.16600000  0.34690000  1
  H  H34  1  0.31280000  0.58280000  0.25000000  1
  H  H35  1  0.37870000  0.07060000  0.07550000  1
  H  H36  1  0.37870000  0.07060000  0.42450000  1
  H  H37  1  0.41950000  0.38640000  0.69660000  1
  H  H38  1  0.41950000  0.38640000  0.80340000  1
  H  H39  1  0.41970000  0.53170000  0.61620000  1
  H  H40  1  0.41970000  0.53170000  0.88380000  1
  H  H41  1  0.43140000  0.20280000  0.60860000  1
  H  H42  1  0.43140000  0.20280000  0.89140000  1
  H  H43  1  0.43320000  0.47120000  0.25000000  1
  H  H44  1  0.46440000  0.72900000  0.19820000  1
  H  H45  1  0.46440000  0.72900000  0.30180000  1
  H  H46  1  0.46820000  0.37540000  0.03960000  1
  H  H47  1  0.46820000  0.37540000  0.46040000  1
  H  H48  1  0.53180000  0.62460000  0.53960000  1
  H  H49  1  0.53180000  0.62460000  0.96040000  1
  H  H50  1  0.53560000  0.27100000  0.69820000  1
  H  H51  1  0.53560000  0.27100000  0.80180000  1
  H  H52  1  0.56680000  0.52880000  0.75000000  1
  H  H53  1  0.56860000  0.79720000  0.10860000  1
  H  H54  1  0.56860000  0.79720000  0.39140000  1
  H  H55  1  0.58030000  0.46830000  0.11620000  1
  H  H56  1  0.58030000  0.46830000  0.38380000  1
  H  H57  1  0.58050000  0.61360000  0.19660000  1
  H  H58  1  0.58050000  0.61360000  0.30340000  1
  H  H59  1  0.62130000  0.92940000  0.57550000  1
  H  H60  1  0.62130000  0.92940000  0.92450000  1
  H  H61  1  0.68720000  0.41720000  0.75000000  1
  H  H62  1  0.72340000  0.83400000  0.65310000  1
  H  H63  1  0.72340000  0.83400000  0.84690000  1
  H  H64  1  0.77660000  0.33400000  0.65310000  1
  H  H65  1  0.77660000  0.33400000  0.84690000  1
  H  H66  1  0.81280000  0.91720000  0.75000000  1
  H  H67  1  0.87870000  0.42940000  0.57550000  1
  H  H68  1  0.87870000  0.42940000  0.92450000  1
  H  H69  1  0.91950000  0.11360000  0.19660000  1
  H  H70  1  0.91950000  0.11360000  0.30340000  1
  H  H71  1  0.91970000  0.96830000  0.11620000  1
  H  H72  1  0.91970000  0.96830000  0.38380000  1
  H  H73  1  0.93140000  0.29720000  0.10860000  1
  H  H74  1  0.93140000  0.29720000  0.39140000  1
  H  H75  1  0.93320000  0.02880000  0.75000000  1
  H  H76  1  0.96440000  0.77100000  0.69820000  1
  H  H77  1  0.96440000  0.77100000  0.80180000  1
  H  H78  1  0.96820000  0.12460000  0.53960000  1
  H  H79  1  0.96820000  0.12460000  0.96040000  1
  C  C80  1  0.01500000  0.98940000  0.10913000  1
  C  C81  1  0.01500000  0.98940000  0.39087000  1
  C  C82  1  0.02150000  0.13090000  0.19723000  1
  C  C83  1  0.02150000  0.13090000  0.30277000  1
  C  C84  1  0.08240000  0.93430000  0.06340000  1
  C  C85  1  0.08240000  0.93430000  0.43660000  1
  C  C86  1  0.08460000  0.06880000  0.25000000  1
  C  C87  1  0.08630000  0.07540000  0.14484000  1
  C  C88  1  0.08630000  0.07540000  0.35516000  1
  C  C89  1  0.21520000  0.54790000  0.08444000  1
  C  C90  1  0.21520000  0.54790000  0.41556000  1
  C  C91  1  0.22420000  0.10540000  0.13067000  1
  C  C92  1  0.22420000  0.10540000  0.36933000  1
  C  C93  1  0.27580000  0.60540000  0.13067000  1
  C  C94  1  0.27580000  0.60540000  0.36933000  1
  C  C95  1  0.28480000  0.04790000  0.08444000  1
  C  C96  1  0.28480000  0.04790000  0.41556000  1
  C  C97  1  0.41370000  0.57540000  0.14484000  1
  C  C98  1  0.41370000  0.57540000  0.35516000  1
  C  C99  1  0.41540000  0.56880000  0.25000000  1
  C  C100  1  0.41760000  0.43430000  0.06340000  1
  C  C101  1  0.41760000  0.43430000  0.43660000  1
  C  C102  1  0.47850000  0.63090000  0.19723000  1
  C  C103  1  0.47850000  0.63090000  0.30277000  1
  C  C104  1  0.48500000  0.48940000  0.10913000  1
  C  C105  1  0.48500000  0.48940000  0.39087000  1
  C  C106  1  0.51500000  0.51060000  0.60913000  1
  C  C107  1  0.51500000  0.51060000  0.89087000  1
  C  C108  1  0.52150000  0.36910000  0.69723000  1
  C  C109  1  0.52150000  0.36910000  0.80277000  1
  C  C110  1  0.58240000  0.56570000  0.56340000  1
  C  C111  1  0.58240000  0.56570000  0.93660000  1
  C  C112  1  0.58460000  0.43120000  0.75000000  1
  C  C113  1  0.58630000  0.42460000  0.64484000  1
  C  C114  1  0.58630000  0.42460000  0.85516000  1
  C  C115  1  0.71520000  0.95210000  0.58444000  1
  C  C116  1  0.71520000  0.95210000  0.91556000  1
  C  C117  1  0.72420000  0.39460000  0.63067000  1
  C  C118  1  0.72420000  0.39460000  0.86933000  1
  C  C119  1  0.77580000  0.89460000  0.63067000  1
  C  C120  1  0.77580000  0.89460000  0.86933000  1
  C  C121  1  0.78480000  0.45210000  0.58444000  1
  C  C122  1  0.78480000  0.45210000  0.91556000  1
  C  C123  1  0.91370000  0.92460000  0.64484000  1
  C  C124  1  0.91370000  0.92460000  0.85516000  1
  C  C125  1  0.91540000  0.93120000  0.75000000  1
  C  C126  1  0.91760000  0.06570000  0.56340000  1
  C  C127  1  0.91760000  0.06570000  0.93660000  1
  C  C128  1  0.97850000  0.86910000  0.69723000  1
  C  C129  1  0.97850000  0.86910000  0.80277000  1
  C  C130  1  0.98500000  0.01060000  0.60913000  1
  C  C131  1  0.98500000  0.01060000  0.89087000  1
  N  N132  1  0.21710000  0.96120000  0.05138000  1
  N  N133  1  0.21710000  0.96120000  0.44862000  1
  N  N134  1  0.28290000  0.46120000  0.05138000  1
  N  N135  1  0.28290000  0.46120000  0.44862000  1
  N  N136  1  0.71710000  0.53880000  0.55138000  1
  N  N137  1  0.71710000  0.53880000  0.94862000  1
  N  N138  1  0.78290000  0.03880000  0.55138000  1
  N  N139  1  0.78290000  0.03880000  0.94862000  1
  O  O140  1  0.00231000  0.68751000  0.51839000  1
  O  O141  1  0.00231000  0.68751000  0.98161000  1
  O  O142  1  0.13170000  0.50450000  0.57040000  1
  O  O143  1  0.13170000  0.50450000  0.92960000  1
  O  O144  1  0.24980000  0.72219000  0.54910000  1
  O  O145  1  0.24980000  0.72219000  0.95090000  1
  O  O146  1  0.25020000  0.22219000  0.54910000  1
  O  O147  1  0.25020000  0.22219000  0.95090000  1
  O  O148  1  0.36830000  0.00450000  0.57040000  1
  O  O149  1  0.36830000  0.00450000  0.92960000  1
  O  O150  1  0.49769000  0.18751000  0.51839000  1
  O  O151  1  0.49769000  0.18751000  0.98161000  1
  O  O152  1  0.50231000  0.81249000  0.01839000  1
  O  O153  1  0.50231000  0.81249000  0.48161000  1
  O  O154  1  0.63170000  0.99550000  0.07040000  1
  O  O155  1  0.63170000  0.99550000  0.42960000  1
  O  O156  1  0.74980000  0.77781000  0.04910000  1
  O  O157  1  0.74980000  0.77781000  0.45090000  1
  O  O158  1  0.75020000  0.27781000  0.04910000  1
  O  O159  1  0.75020000  0.27781000  0.45090000  1
  O  O160  1  0.86830000  0.49550000  0.07040000  1
  O  O161  1  0.86830000  0.49550000  0.42960000  1
  O  O162  1  0.99769000  0.31249000  0.01839000  1
  O  O163  1  0.99769000  0.31249000  0.48161000  1
