# generated using pymatgen
data_ErPH7C5NO7
_symmetry_space_group_name_H-M   'P 1'
_cell_length_a   9.00850000
_cell_length_b   9.00850000
_cell_length_c   15.79900000
_cell_angle_alpha   90.00000000
_cell_angle_beta   90.00000000
_cell_angle_gamma   90.00000000
_symmetry_Int_Tables_number   1
_chemical_formula_structural   ErPH7C5NO7
_chemical_formula_sum   'Er4 P4 H28 C20 N4 O28'
_cell_volume   1282.13738848
_cell_formula_units_Z   4
loop_
 _symmetry_equiv_pos_site_id
 _symmetry_equiv_pos_as_xyz
  1  'x, y, z'
loop_
 _atom_site_type_symbol
 _atom_site_label
 _atom_site_symmetry_multiplicity
 _atom_site_fract_x
 _atom_site_fract_y
 _atom_site_fract_z
 _atom_site_occupancy
  Er  Er0  1  0.03212000  0.38941000  0.39568000  1
  Er  Er1  1  0.46788000  0.61059000  0.89568000  1
  Er  Er2  1  0.53212000  0.11059000  0.60432000  1
  Er  Er3  1  0.96788000  0.88941000  0.10432000  1
  P  P4  1  0.12667000  0.06673000  0.29404000  1
  P  P5  1  0.37333000  0.93327000  0.79404000  1
  P  P6  1  0.62667000  0.43327000  0.70596000  1
  P  P7  1  0.87333000  0.56673000  0.20596000  1
  H  H8  1  0.03980000  0.61120000  0.83440000  1
  H  H9  1  0.05940000  0.77980000  0.81340000  1
  H  H10  1  0.12230000  0.51980000  0.71720000  1
  H  H11  1  0.14290000  0.25030000  0.18970000  1
  H  H12  1  0.20060000  0.82320000  0.70300000  1
  H  H13  1  0.20700000  0.48740000  0.19700000  1
  H  H14  1  0.23090000  0.09610000  0.82300000  1
  H  H15  1  0.26910000  0.90390000  0.32300000  1
  H  H16  1  0.29300000  0.51260000  0.69700000  1
  H  H17  1  0.29940000  0.17680000  0.20300000  1
  H  H18  1  0.35710000  0.74970000  0.68970000  1
  H  H19  1  0.37770000  0.48020000  0.21720000  1
  H  H20  1  0.44060000  0.22020000  0.31340000  1
  H  H21  1  0.46020000  0.38880000  0.33440000  1
  H  H22  1  0.53980000  0.88880000  0.16560000  1
  H  H23  1  0.55940000  0.72020000  0.18660000  1
  H  H24  1  0.62230000  0.98020000  0.28280000  1
  H  H25  1  0.64290000  0.24970000  0.81030000  1
  H  H26  1  0.70060000  0.67680000  0.29700000  1
  H  H27  1  0.70700000  0.01260000  0.80300000  1
  H  H28  1  0.73090000  0.40390000  0.17700000  1
  H  H29  1  0.76910000  0.59610000  0.67700000  1
  H  H30  1  0.79300000  0.98740000  0.30300000  1
  H  H31  1  0.79940000  0.32320000  0.79700000  1
  H  H32  1  0.85710000  0.75030000  0.31030000  1
  H  H33  1  0.87770000  0.01980000  0.78280000  1
  H  H34  1  0.94060000  0.27980000  0.68660000  1
  H  H35  1  0.96020000  0.11120000  0.66560000  1
  C  C36  1  0.10750000  0.69460000  0.83910000  1
  C  C37  1  0.13200000  0.72700000  0.93120000  1
  C  C38  1  0.21240000  0.21470000  0.23200000  1
  C  C39  1  0.22060000  0.52000000  0.74220000  1
  C  C40  1  0.23690000  0.38700000  0.80240000  1
  C  C41  1  0.26310000  0.61300000  0.30240000  1
  C  C42  1  0.27940000  0.48000000  0.24220000  1
  C  C43  1  0.28760000  0.78530000  0.73200000  1
  C  C44  1  0.36800000  0.27300000  0.43120000  1
  C  C45  1  0.39250000  0.30540000  0.33910000  1
  C  C46  1  0.60750000  0.80540000  0.16090000  1
  C  C47  1  0.63200000  0.77300000  0.06880000  1
  C  C48  1  0.71240000  0.28530000  0.76800000  1
  C  C49  1  0.72060000  0.98000000  0.25780000  1
  C  C50  1  0.73690000  0.11300000  0.19760000  1
  C  C51  1  0.76310000  0.88700000  0.69760000  1
  C  C52  1  0.77940000  0.02000000  0.75780000  1
  C  C53  1  0.78760000  0.71470000  0.26800000  1
  C  C54  1  0.86800000  0.22700000  0.56880000  1
  C  C55  1  0.89250000  0.19460000  0.66090000  1
  N  N56  1  0.24380000  0.65990000  0.78980000  1
  N  N57  1  0.25620000  0.34010000  0.28980000  1
  N  N58  1  0.74380000  0.84010000  0.21020000  1
  N  N59  1  0.75620000  0.15990000  0.71020000  1
  O  O60  1  0.02570000  0.14370000  0.35540000  1
  O  O61  1  0.03080000  0.79250000  0.97110000  1
  O  O62  1  0.05070000  0.96280000  0.23330000  1
  O  O63  1  0.18390000  0.26260000  0.77620000  1
  O  O64  1  0.18930000  0.59660000  0.37010000  1
  O  O65  1  0.24500000  0.31360000  0.46530000  1
  O  O66  1  0.24880000  0.98250000  0.34650000  1
  O  O67  1  0.25120000  0.01750000  0.84650000  1
  O  O68  1  0.25500000  0.68640000  0.96530000  1
  O  O69  1  0.31070000  0.40340000  0.87010000  1
  O  O70  1  0.31610000  0.73740000  0.27620000  1
  O  O71  1  0.44930000  0.03720000  0.73330000  1
  O  O72  1  0.46920000  0.20750000  0.47110000  1
  O  O73  1  0.47430000  0.85630000  0.85540000  1
  O  O74  1  0.52570000  0.35630000  0.64460000  1
  O  O75  1  0.53080000  0.70750000  0.02890000  1
  O  O76  1  0.55070000  0.53720000  0.76670000  1
  O  O77  1  0.68390000  0.23740000  0.22380000  1
  O  O78  1  0.68930000  0.90340000  0.62990000  1
  O  O79  1  0.74500000  0.18640000  0.53470000  1
  O  O80  1  0.74880000  0.51750000  0.65350000  1
  O  O81  1  0.75120000  0.48250000  0.15350000  1
  O  O82  1  0.75500000  0.81360000  0.03470000  1
  O  O83  1  0.81070000  0.09660000  0.12990000  1
  O  O84  1  0.81610000  0.76260000  0.72380000  1
  O  O85  1  0.94930000  0.46280000  0.26670000  1
  O  O86  1  0.96920000  0.29250000  0.52890000  1
  O  O87  1  0.97430000  0.64370000  0.14460000  1
