# generated using pymatgen
data_CoH7C13NO4
_symmetry_space_group_name_H-M   'P 1'
_cell_length_a   9.28700000
_cell_length_b   16.66700000
_cell_length_c   28.24200000
_cell_angle_alpha   90.00000000
_cell_angle_beta   90.00000000
_cell_angle_gamma   97.03000000
_symmetry_Int_Tables_number   1
_chemical_formula_structural   CoH7C13NO4
_chemical_formula_sum   'Co8 H56 C104 N8 O32'
_cell_volume   4338.61444968
_cell_formula_units_Z   8
loop_
 _symmetry_equiv_pos_site_id
 _symmetry_equiv_pos_as_xyz
  1  'x, y, z'
loop_
 _atom_site_type_symbol
 _atom_site_label
 _atom_site_symmetry_multiplicity
 _atom_site_fract_x
 _atom_site_fract_y
 _atom_site_fract_z
 _atom_site_occupancy
  Co  Co0  1  0.19278000  0.28021000  0.30478000  1
  Co  Co1  1  0.19278000  0.78021000  0.19522000  1
  Co  Co2  1  0.24455000  0.26939000  0.42457000  1
  Co  Co3  1  0.24455000  0.76939000  0.07543000  1
  Co  Co4  1  0.75545000  0.23061000  0.92457000  1
  Co  Co5  1  0.75545000  0.73061000  0.57543000  1
  Co  Co6  1  0.80722000  0.21979000  0.80478000  1
  Co  Co7  1  0.80722000  0.71979000  0.69522000  1
  H  H8  1  0.04820000  0.31150000  0.15060000  1
  H  H9  1  0.04820000  0.81150000  0.34940000  1
  H  H10  1  0.04930000  0.30000000  0.51010000  1
  H  H11  1  0.04930000  0.80000000  0.98990000  1
  H  H12  1  0.06100000  0.26330000  0.07580000  1
  H  H13  1  0.06100000  0.76330000  0.42420000  1
  H  H14  1  0.06450000  0.02470000  0.41850000  1
  H  H15  1  0.06450000  0.52470000  0.08150000  1
  H  H16  1  0.09570000  0.08430000  0.93960000  1
  H  H17  1  0.09570000  0.58430000  0.56040000  1
  H  H18  1  0.13400000  0.04080000  0.54280000  1
  H  H19  1  0.13400000  0.54080000  0.95720000  1
  H  H20  1  0.19000000  0.44870000  0.43040000  1
  H  H21  1  0.19000000  0.94870000  0.06960000  1
  H  H22  1  0.19050000  0.05080000  0.01460000  1
  H  H23  1  0.19050000  0.55080000  0.48540000  1
  H  H24  1  0.19160000  0.01910000  0.28140000  1
  H  H25  1  0.19160000  0.51910000  0.21860000  1
  H  H26  1  0.23470000  0.10940000  0.47730000  1
  H  H27  1  0.23470000  0.60940000  0.02270000  1
  H  H28  1  0.28430000  0.21080000  0.82880000  1
  H  H29  1  0.28430000  0.71080000  0.67120000  1
  H  H30  1  0.41790000  0.32510000  0.51450000  1
  H  H31  1  0.41790000  0.82510000  0.98550000  1
  H  H32  1  0.43020000  0.42520000  0.57150000  1
  H  H33  1  0.43020000  0.92520000  0.92850000  1
  H  H34  1  0.48850000  0.43730000  0.40430000  1
  H  H35  1  0.48850000  0.93730000  0.09570000  1
  H  H36  1  0.51150000  0.06270000  0.90430000  1
  H  H37  1  0.51150000  0.56270000  0.59570000  1
  H  H38  1  0.56980000  0.07480000  0.07150000  1
  H  H39  1  0.56980000  0.57480000  0.42850000  1
  H  H40  1  0.58210000  0.17490000  0.01450000  1
  H  H41  1  0.58210000  0.67490000  0.48550000  1
  H  H42  1  0.71570000  0.28920000  0.32880000  1
  H  H43  1  0.71570000  0.78920000  0.17120000  1
  H  H44  1  0.76530000  0.39060000  0.97730000  1
  H  H45  1  0.76530000  0.89060000  0.52270000  1
  H  H46  1  0.80840000  0.48090000  0.78140000  1
  H  H47  1  0.80840000  0.98090000  0.71860000  1
  H  H48  1  0.80950000  0.44920000  0.51460000  1
  H  H49  1  0.80950000  0.94920000  0.98540000  1
  H  H50  1  0.81000000  0.05130000  0.93040000  1
  H  H51  1  0.81000000  0.55130000  0.56960000  1
  H  H52  1  0.86600000  0.45920000  0.04280000  1
  H  H53  1  0.86600000  0.95920000  0.45720000  1
  H  H54  1  0.90430000  0.41570000  0.43960000  1
  H  H55  1  0.90430000  0.91570000  0.06040000  1
  H  H56  1  0.93550000  0.47530000  0.91850000  1
  H  H57  1  0.93550000  0.97530000  0.58150000  1
  H  H58  1  0.93900000  0.23670000  0.57580000  1
  H  H59  1  0.93900000  0.73670000  0.92420000  1
  H  H60  1  0.95070000  0.20000000  0.01010000  1
  H  H61  1  0.95070000  0.70000000  0.48990000  1
  H  H62  1  0.95180000  0.18850000  0.65060000  1
  H  H63  1  0.95180000  0.68850000  0.84940000  1
  C  C64  1  0.00030000  0.20900000  0.55644000  1
  C  C65  1  0.00030000  0.70900000  0.94356000  1
  C  C66  1  0.02530000  0.13100000  0.56737000  1
  C  C67  1  0.02530000  0.63100000  0.93263000  1
  C  C68  1  0.02850000  0.18730000  0.87499000  1
  C  C69  1  0.02850000  0.68730000  0.62501000  1
  C  C70  1  0.04070000  0.41150000  0.10977000  1
  C  C71  1  0.04070000  0.91150000  0.39023000  1
  C  C72  1  0.06630000  0.24610000  0.51672000  1
  C  C73  1  0.06630000  0.74610000  0.98328000  1
  C  C74  1  0.06760000  0.36880000  0.15053000  1
  C  C75  1  0.06760000  0.86880000  0.34947000  1
  C  C76  1  0.07830000  0.49510000  0.10960000  1
  C  C77  1  0.07830000  0.99510000  0.39040000  1
  C  C78  1  0.11420000  0.09450000  0.53686000  1
  C  C79  1  0.11420000  0.59450000  0.96314000  1
  C  C80  1  0.12260000  0.40880000  0.19130000  1
  C  C81  1  0.12260000  0.90880000  0.30870000  1
  C  C82  1  0.13570000  0.03650000  0.35037000  1
  C  C83  1  0.13570000  0.53650000  0.14963000  1
  C  C84  1  0.15110000  0.36200000  0.23472000  1
  C  C85  1  0.15110000  0.86200000  0.26528000  1
  C  C86  1  0.15530000  0.49180000  0.19077000  1
  C  C87  1  0.15530000  0.99180000  0.30923000  1
  C  C88  1  0.17000000  0.15260000  0.88310000  1
  C  C89  1  0.17000000  0.65260000  0.61690000  1
  C  C90  1  0.17440000  0.13610000  0.49769000  1
  C  C91  1  0.17440000  0.63610000  0.00231000  1
  C  C92  1  0.17490000  0.12590000  0.35144000  1
  C  C93  1  0.17490000  0.62590000  0.14856000  1
  C  C94  1  0.17720000  0.09740000  0.91952000  1
  C  C95  1  0.17720000  0.59740000  0.58048000  1
  C  C96  1  0.23660000  0.44300000  0.45996000  1
  C  C97  1  0.23660000  0.94300000  0.04004000  1
  C  C98  1  0.23710000  0.00450000  0.00755000  1
  C  C99  1  0.23710000  0.50450000  0.49245000  1
  C  C100  1  0.29010000  0.17450000  0.85449000  1
  C  C101  1  0.29010000  0.67450000  0.64551000  1
  C  C102  1  0.30240000  0.06100000  0.92701000  1
  C  C103  1  0.30240000  0.56100000  0.57299000  1
  C  C104  1  0.30660000  0.49840000  0.53590000  1
  C  C105  1  0.30660000  0.99840000  0.96410000  1
  C  C106  1  0.36990000  0.37130000  0.50883000  1
  C  C107  1  0.36990000  0.87130000  0.99117000  1
  C  C108  1  0.37720000  0.43070000  0.54310000  1
  C  C109  1  0.37720000  0.93070000  0.95690000  1
  C  C110  1  0.41830000  0.14300000  0.86378000  1
  C  C111  1  0.41830000  0.64300000  0.63622000  1
  C  C112  1  0.42400000  0.08560000  0.89906000  1
  C  C113  1  0.42400000  0.58560000  0.60094000  1
  C  C114  1  0.44500000  0.32630000  0.33765000  1
  C  C115  1  0.44500000  0.82630000  0.16235000  1
  C  C116  1  0.55500000  0.17370000  0.83765000  1
  C  C117  1  0.55500000  0.67370000  0.66235000  1
  C  C118  1  0.57600000  0.41440000  0.39906000  1
  C  C119  1  0.57600000  0.91440000  0.10094000  1
  C  C120  1  0.58170000  0.35700000  0.36378000  1
  C  C121  1  0.58170000  0.85700000  0.13622000  1
  C  C122  1  0.62280000  0.06930000  0.04310000  1
  C  C123  1  0.62280000  0.56930000  0.45690000  1
  C  C124  1  0.63010000  0.12870000  0.00883000  1
  C  C125  1  0.63010000  0.62870000  0.49117000  1
  C  C126  1  0.69340000  0.00160000  0.03590000  1
  C  C127  1  0.69340000  0.50160000  0.46410000  1
  C  C128  1  0.69760000  0.43900000  0.42701000  1
  C  C129  1  0.69760000  0.93900000  0.07299000  1
  C  C130  1  0.70990000  0.32550000  0.35449000  1
  C  C131  1  0.70990000  0.82550000  0.14551000  1
  C  C132  1  0.76290000  0.49550000  0.50755000  1
  C  C133  1  0.76290000  0.99550000  0.99245000  1
  C  C134  1  0.76340000  0.05700000  0.95996000  1
  C  C135  1  0.76340000  0.55700000  0.54004000  1
  C  C136  1  0.82280000  0.40260000  0.41952000  1
  C  C137  1  0.82280000  0.90260000  0.08048000  1
  C  C138  1  0.82510000  0.37410000  0.85144000  1
  C  C139  1  0.82510000  0.87410000  0.64856000  1
  C  C140  1  0.82560000  0.36390000  0.99769000  1
  C  C141  1  0.82560000  0.86390000  0.50231000  1
  C  C142  1  0.83000000  0.34740000  0.38310000  1
  C  C143  1  0.83000000  0.84740000  0.11690000  1
  C  C144  1  0.84470000  0.00820000  0.69077000  1
  C  C145  1  0.84470000  0.50820000  0.80923000  1
  C  C146  1  0.84890000  0.13800000  0.73472000  1
  C  C147  1  0.84890000  0.63800000  0.76528000  1
  C  C148  1  0.86430000  0.46350000  0.85037000  1
  C  C149  1  0.86430000  0.96350000  0.64963000  1
  C  C150  1  0.87740000  0.09120000  0.69130000  1
  C  C151  1  0.87740000  0.59120000  0.80870000  1
  C  C152  1  0.88580000  0.40550000  0.03686000  1
  C  C153  1  0.88580000  0.90550000  0.46314000  1
  C  C154  1  0.92170000  0.00490000  0.60960000  1
  C  C155  1  0.92170000  0.50490000  0.89040000  1
  C  C156  1  0.93240000  0.13120000  0.65053000  1
  C  C157  1  0.93240000  0.63120000  0.84947000  1
  C  C158  1  0.93370000  0.25390000  0.01672000  1
  C  C159  1  0.93370000  0.75390000  0.48328000  1
  C  C160  1  0.95930000  0.08850000  0.60977000  1
  C  C161  1  0.95930000  0.58850000  0.89023000  1
  C  C162  1  0.97150000  0.31270000  0.37499000  1
  C  C163  1  0.97150000  0.81270000  0.12501000  1
  C  C164  1  0.97470000  0.36900000  0.06737000  1
  C  C165  1  0.97470000  0.86900000  0.43263000  1
  C  C166  1  0.99970000  0.29100000  0.05644000  1
  C  C167  1  0.99970000  0.79100000  0.44356000  1
  N  N168  1  0.15220000  0.21107000  0.48717000  1
  N  N169  1  0.15220000  0.71107000  0.01283000  1
  N  N170  1  0.29810000  0.37573000  0.46763000  1
  N  N171  1  0.29810000  0.87573000  0.03237000  1
  N  N172  1  0.70190000  0.12427000  0.96763000  1
  N  N173  1  0.70190000  0.62427000  0.53237000  1
  N  N174  1  0.84780000  0.28893000  0.98717000  1
  N  N175  1  0.84780000  0.78893000  0.51283000  1
  O  O176  1  0.00580000  0.21284000  0.83351000  1
  O  O177  1  0.00580000  0.71284000  0.66649000  1
  O  O178  1  0.05290000  0.31224000  0.41018000  1
  O  O179  1  0.05290000  0.81224000  0.08982000  1
  O  O180  1  0.13550000  0.28561000  0.23331000  1
  O  O181  1  0.13550000  0.78561000  0.26669000  1
  O  O182  1  0.18500000  0.15894000  0.39123000  1
  O  O183  1  0.18500000  0.65894000  0.10877000  1
  O  O184  1  0.18860000  0.39895000  0.27209000  1
  O  O185  1  0.18860000  0.89895000  0.22791000  1
  O  O186  1  0.19460000  0.16126000  0.31206000  1
  O  O187  1  0.19460000  0.66126000  0.18794000  1
  O  O188  1  0.32450000  0.32608000  0.35999000  1
  O  O189  1  0.32450000  0.82608000  0.14001000  1
  O  O190  1  0.44740000  0.30084000  0.29648000  1
  O  O191  1  0.44740000  0.80084000  0.20352000  1
  O  O192  1  0.55260000  0.19916000  0.79648000  1
  O  O193  1  0.55260000  0.69916000  0.70352000  1
  O  O194  1  0.67550000  0.17392000  0.85999000  1
  O  O195  1  0.67550000  0.67392000  0.64001000  1
  O  O196  1  0.80540000  0.33874000  0.81206000  1
  O  O197  1  0.80540000  0.83874000  0.68794000  1
  O  O198  1  0.81140000  0.10105000  0.77209000  1
  O  O199  1  0.81140000  0.60105000  0.72791000  1
  O  O200  1  0.81500000  0.34106000  0.89123000  1
  O  O201  1  0.81500000  0.84106000  0.60877000  1
  O  O202  1  0.86450000  0.21439000  0.73331000  1
  O  O203  1  0.86450000  0.71439000  0.76669000  1
  O  O204  1  0.94710000  0.18776000  0.91018000  1
  O  O205  1  0.94710000  0.68776000  0.58982000  1
  O  O206  1  0.99420000  0.28716000  0.33351000  1
  O  O207  1  0.99420000  0.78716000  0.16649000  1
