# generated using pymatgen
data_CdH2C6SO5
_symmetry_space_group_name_H-M   'P 1'
_cell_length_a   6.94370000
_cell_length_b   13.32260000
_cell_length_c   16.38480000
_cell_angle_alpha   90.00000000
_cell_angle_beta   90.00000000
_cell_angle_gamma   90.00000000
_symmetry_Int_Tables_number   1
_chemical_formula_structural   CdH2C6SO5
_chemical_formula_sum   'Cd4 H8 C24 S4 O20'
_cell_volume   1515.72733328
_cell_formula_units_Z   4
loop_
 _symmetry_equiv_pos_site_id
 _symmetry_equiv_pos_as_xyz
  1  'x, y, z'
loop_
 _atom_site_type_symbol
 _atom_site_label
 _atom_site_symmetry_multiplicity
 _atom_site_fract_x
 _atom_site_fract_y
 _atom_site_fract_z
 _atom_site_occupancy
  Cd  Cd0  1  0.00000000  0.27636000  0.84059000  1
  Cd  Cd1  1  0.00000000  0.72364000  0.15941000  1
  Cd  Cd2  1  0.50000000  0.22364000  0.34059000  1
  Cd  Cd3  1  0.50000000  0.77636000  0.65941000  1
  H  H4  1  0.00000000  0.01520000  0.33840000  1
  H  H5  1  0.00000000  0.25160000  0.54770000  1
  H  H6  1  0.00000000  0.74840000  0.45230000  1
  H  H7  1  0.00000000  0.98480000  0.66160000  1
  H  H8  1  0.50000000  0.24840000  0.04770000  1
  H  H9  1  0.50000000  0.48480000  0.83840000  1
  H  H10  1  0.50000000  0.51520000  0.16160000  1
  H  H11  1  0.50000000  0.75160000  0.95230000  1
  C  C12  1  0.00000000  0.02180000  0.61350000  1
  C  C13  1  0.00000000  0.02960000  0.46340000  1
  C  C14  1  0.00000000  0.12340000  0.61720000  1
  C  C15  1  0.00000000  0.13600000  0.47000000  1
  C  C16  1  0.00000000  0.17710000  0.69860000  1
  C  C17  1  0.00000000  0.18190000  0.54450000  1
  C  C18  1  0.00000000  0.81810000  0.45550000  1
  C  C19  1  0.00000000  0.82290000  0.30140000  1
  C  C20  1  0.00000000  0.86400000  0.53000000  1
  C  C21  1  0.00000000  0.87660000  0.38280000  1
  C  C22  1  0.00000000  0.97040000  0.53660000  1
  C  C23  1  0.00000000  0.97820000  0.38650000  1
  C  C24  1  0.50000000  0.31810000  0.04450000  1
  C  C25  1  0.50000000  0.32290000  0.19860000  1
  C  C26  1  0.50000000  0.36400000  0.97000000  1
  C  C27  1  0.50000000  0.37660000  0.11720000  1
  C  C28  1  0.50000000  0.47040000  0.96340000  1
  C  C29  1  0.50000000  0.47820000  0.11350000  1
  C  C30  1  0.50000000  0.52180000  0.88650000  1
  C  C31  1  0.50000000  0.52960000  0.03660000  1
  C  C32  1  0.50000000  0.62340000  0.88280000  1
  C  C33  1  0.50000000  0.63600000  0.03000000  1
  C  C34  1  0.50000000  0.67710000  0.80140000  1
  C  C35  1  0.50000000  0.68190000  0.95550000  1
  S  S36  1  0.00000000  0.21573000  0.38180000  1
  S  S37  1  0.00000000  0.78427000  0.61820000  1
  S  S38  1  0.50000000  0.28427000  0.88180000  1
  S  S39  1  0.50000000  0.71573000  0.11820000  1
  O  O40  1  0.00000000  0.12710000  0.76330000  1
  O  O41  1  0.00000000  0.27100000  0.69870000  1
  O  O42  1  0.00000000  0.31670000  0.41270000  1
  O  O43  1  0.00000000  0.68330000  0.58730000  1
  O  O44  1  0.00000000  0.72900000  0.30130000  1
  O  O45  1  0.00000000  0.87290000  0.23670000  1
  O  O46  1  0.17130000  0.19050000  0.33450000  1
  O  O47  1  0.17130000  0.80950000  0.66550000  1
  O  O48  1  0.32870000  0.30950000  0.83450000  1
  O  O49  1  0.32870000  0.69050000  0.16550000  1
  O  O50  1  0.50000000  0.18330000  0.91270000  1
  O  O51  1  0.50000000  0.22900000  0.19870000  1
  O  O52  1  0.50000000  0.37290000  0.26330000  1
  O  O53  1  0.50000000  0.62710000  0.73670000  1
  O  O54  1  0.50000000  0.77100000  0.80130000  1
  O  O55  1  0.50000000  0.81670000  0.08730000  1
  O  O56  1  0.67130000  0.30950000  0.83450000  1
  O  O57  1  0.67130000  0.69050000  0.16550000  1
  O  O58  1  0.82870000  0.19050000  0.33450000  1
  O  O59  1  0.82870000  0.80950000  0.66550000  1
