# generated using pymatgen
data_CdH4(C2O)4
_symmetry_space_group_name_H-M   'P 1'
_cell_length_a   7.44070000
_cell_length_b   9.76600000
_cell_length_c   9.85000000
_cell_angle_alpha   118.29700000
_cell_angle_beta   102.24700000
_cell_angle_gamma   91.43400000
_symmetry_Int_Tables_number   1
_chemical_formula_structural   CdH4(C2O)4
_chemical_formula_sum   'Cd2 H8 C16 O8'
_cell_volume   609.29001571
_cell_formula_units_Z   2
loop_
 _symmetry_equiv_pos_site_id
 _symmetry_equiv_pos_as_xyz
  1  'x, y, z'
loop_
 _atom_site_type_symbol
 _atom_site_label
 _atom_site_symmetry_multiplicity
 _atom_site_fract_x
 _atom_site_fract_y
 _atom_site_fract_z
 _atom_site_occupancy
  Cd  Cd0  1  0.26210000  0.02672000  0.51603000  1
  Cd  Cd1  1  0.73790000  0.97328000  0.48397000  1
  H  H2  1  0.22450000  0.69550000  0.21320000  1
  H  H3  1  0.31290000  0.48550000  0.01230000  1
  H  H4  1  0.32690000  0.19820000  0.11850000  1
  H  H5  1  0.43450000  0.17530000  0.90620000  1
  H  H6  1  0.56550000  0.82470000  0.09380000  1
  H  H7  1  0.67310000  0.80180000  0.88150000  1
  H  H8  1  0.68710000  0.51450000  0.98770000  1
  H  H9  1  0.77550000  0.30450000  0.78680000  1
  C  C10  1  0.05430000  0.37400000  0.87820000  1
  C  C11  1  0.11500000  0.24260000  0.74630000  1
  C  C12  1  0.13470000  0.61710000  0.12800000  1
  C  C13  1  0.18730000  0.49150000  0.00730000  1
  C  C14  1  0.37260000  0.03250000  0.27080000  1
  C  C15  1  0.39670000  0.11900000  0.07150000  1
  C  C16  1  0.43690000  0.01540000  0.12980000  1
  C  C17  1  0.46030000  0.10470000  0.94350000  1
  C  C18  1  0.53970000  0.89530000  0.05650000  1
  C  C19  1  0.56310000  0.98460000  0.87020000  1
  C  C20  1  0.60330000  0.88100000  0.92850000  1
  C  C21  1  0.62740000  0.96750000  0.72920000  1
  C  C22  1  0.81270000  0.50850000  0.99270000  1
  C  C23  1  0.86530000  0.38290000  0.87200000  1
  C  C24  1  0.88500000  0.75740000  0.25370000  1
  C  C25  1  0.94570000  0.62600000  0.12180000  1
  O  O26  1  0.02250000  0.10600000  0.67310000  1
  O  O27  1  0.26050000  0.27210000  0.71350000  1
  O  O28  1  0.26720000  0.13000000  0.32820000  1
  O  O29  1  0.42940000  0.94360000  0.32970000  1
  O  O30  1  0.57060000  0.05640000  0.67030000  1
  O  O31  1  0.73280000  0.87000000  0.67180000  1
  O  O32  1  0.73950000  0.72790000  0.28650000  1
  O  O33  1  0.97750000  0.89400000  0.32690000  1
