# generated using pymatgen
data_Zn7H16C48(SO4)8
_symmetry_space_group_name_H-M   'P 1'
_cell_length_a   15.51680000
_cell_length_b   16.77900000
_cell_length_c   18.73940000
_cell_angle_alpha   94.14200000
_cell_angle_beta   113.52700000
_cell_angle_gamma   110.21500000
_symmetry_Int_Tables_number   1
_chemical_formula_structural   Zn7H16C48(SO4)8
_chemical_formula_sum   'Zn7 H16 C48 S8 O32'
_cell_volume   4070.64498472
_cell_formula_units_Z   1
loop_
 _symmetry_equiv_pos_site_id
 _symmetry_equiv_pos_as_xyz
  1  'x, y, z'
loop_
 _atom_site_type_symbol
 _atom_site_label
 _atom_site_symmetry_multiplicity
 _atom_site_fract_x
 _atom_site_fract_y
 _atom_site_fract_z
 _atom_site_occupancy
  Zn  Zn0  1  0.00845000  0.80840000  0.27560000  1
  Zn  Zn1  1  0.19115000  0.87693000  0.46624000  1
  Zn  Zn2  1  0.42982000  0.41057000  0.28820000  1
  Zn  Zn3  1  0.50000000  0.50000000  0.50000000  1
  Zn  Zn4  1  0.57018000  0.58943000  0.71180000  1
  Zn  Zn5  1  0.80885000  0.12307000  0.53376000  1
  Zn  Zn6  1  0.99155000  0.19160000  0.72440000  1
  H  H7  1  0.04010000  0.28300000  0.45110000  1
  H  H8  1  0.11660000  0.62410000  0.19310000  1
  H  H9  1  0.19320000  0.08200000  0.46610000  1
  H  H10  1  0.19570000  0.38480000  0.45180000  1
  H  H11  1  0.20340000  0.52590000  0.19960000  1
  H  H12  1  0.29470000  0.23820000  0.49570000  1
  H  H13  1  0.31730000  0.14350000  0.91160000  1
  H  H14  1  0.43380000  0.19760000  0.05310000  1
  H  H15  1  0.56620000  0.80240000  0.94690000  1
  H  H16  1  0.68270000  0.85650000  0.08840000  1
  H  H17  1  0.70530000  0.76180000  0.50430000  1
  H  H18  1  0.79660000  0.47410000  0.80040000  1
  H  H19  1  0.80430000  0.61520000  0.54820000  1
  H  H20  1  0.80680000  0.91800000  0.53390000  1
  H  H21  1  0.88340000  0.37590000  0.80690000  1
  H  H22  1  0.95990000  0.71700000  0.54890000  1
  C  C23  1  0.03380000  0.25350000  0.59300000  1
  C  C24  1  0.10100000  0.31400000  0.49780000  1
  C  C25  1  0.11070000  0.30670000  0.57060000  1
  C  C26  1  0.14410000  0.96890000  0.32580000  1
  C  C27  1  0.14790000  0.18710000  0.84440000  1
  C  C28  1  0.16040000  0.73810000  0.32820000  1
  C  C29  1  0.16750000  0.62260000  0.24030000  1
  C  C30  1  0.19080000  0.37260000  0.49800000  1
  C  C31  1  0.20120000  0.67320000  0.31140000  1
  C  C32  1  0.20840000  0.06420000  0.36560000  1
  C  C33  1  0.21790000  0.56590000  0.24420000  1
  C  C34  1  0.22080000  0.10830000  0.43360000  1
  C  C35  1  0.23470000  0.20930000  0.92510000  1
  C  C36  1  0.26900000  0.40900000  0.57210000  1
  C  C37  1  0.27930000  0.19800000  0.45090000  1
  C  C38  1  0.28770000  0.57550000  0.31780000  1
  C  C39  1  0.31110000  0.18060000  0.94690000  1
  C  C40  1  0.31130000  0.21960000  0.39460000  1
  C  C41  1  0.35700000  0.52870000  0.34080000  1
  C  C42  1  0.36080000  0.26900000  0.06910000  1
  C  C43  1  0.37330000  0.30930000  0.39000000  1
  C  C44  1  0.37570000  0.47460000  0.59870000  1
  C  C45  1  0.37910000  0.21340000  0.02850000  1
  C  C46  1  0.41340000  0.31640000  0.15540000  1
  C  C47  1  0.58660000  0.68360000  0.84460000  1
  C  C48  1  0.62090000  0.78660000  0.97150000  1
  C  C49  1  0.62430000  0.52540000  0.40130000  1
  C  C50  1  0.62670000  0.69070000  0.61000000  1
  C  C51  1  0.63920000  0.73100000  0.93090000  1
  C  C52  1  0.64300000  0.47130000  0.65920000  1
  C  C53  1  0.68870000  0.78040000  0.60540000  1
  C  C54  1  0.68890000  0.81940000  0.05310000  1
  C  C55  1  0.71230000  0.42450000  0.68220000  1
  C  C56  1  0.72070000  0.80200000  0.54910000  1
  C  C57  1  0.73100000  0.59100000  0.42790000  1
  C  C58  1  0.76530000  0.79070000  0.07490000  1
  C  C59  1  0.77920000  0.89170000  0.56640000  1
  C  C60  1  0.78210000  0.43410000  0.75580000  1
  C  C61  1  0.79160000  0.93580000  0.63440000  1
  C  C62  1  0.79880000  0.32680000  0.68860000  1
  C  C63  1  0.80920000  0.62740000  0.50200000  1
  C  C64  1  0.83250000  0.37740000  0.75970000  1
  C  C65  1  0.83960000  0.26190000  0.67180000  1
  C  C66  1  0.85210000  0.81290000  0.15560000  1
  C  C67  1  0.85590000  0.03110000  0.67420000  1
  C  C68  1  0.88930000  0.69330000  0.42940000  1
  C  C69  1  0.89900000  0.68600000  0.50220000  1
  C  C70  1  0.96620000  0.74650000  0.40700000  1
  S  S71  1  0.23278000  0.37064000  0.64114000  1
  S  S72  1  0.25155000  0.27760000  0.00409000  1
  S  S73  1  0.26838000  0.13098000  0.31983000  1
  S  S74  1  0.29331000  0.65218000  0.38312000  1
  S  S75  1  0.70669000  0.34782000  0.61688000  1
  S  S76  1  0.73162000  0.86902000  0.68017000  1
  S  S77  1  0.74845000  0.72240000  0.99591000  1
  S  S78  1  0.76722000  0.62936000  0.35886000  1
  O  O79  1  0.05630000  0.78680000  0.45810000  1
  O  O80  1  0.06670000  0.25430000  0.66640000  1
  O  O81  1  0.08700000  0.74020000  0.27030000  1
  O  O82  1  0.09440000  0.22880000  0.83750000  1
  O  O83  1  0.10950000  0.91830000  0.36370000  1
  O  O84  1  0.12590000  0.94250000  0.25490000  1
  O  O85  1  0.13290000  0.13230000  0.79010000  1
  O  O86  1  0.20890000  0.78420000  0.39800000  1
  O  O87  1  0.33900000  0.46930000  0.28570000  1
  O  O88  1  0.37310000  0.36030000  0.17490000  1
  O  O89  1  0.39370000  0.37080000  0.44240000  1
  O  O90  1  0.39470000  0.31050000  0.33230000  1
  O  O91  1  0.39760000  0.50460000  0.54540000  1
  O  O92  1  0.42190000  0.55150000  0.40950000  1
  O  O93  1  0.43180000  0.49790000  0.67210000  1
  O  O94  1  0.49150000  0.30760000  0.19990000  1
  O  O95  1  0.50850000  0.69240000  0.80010000  1
  O  O96  1  0.56820000  0.50210000  0.32790000  1
  O  O97  1  0.57810000  0.44850000  0.59050000  1
  O  O98  1  0.60240000  0.49540000  0.45460000  1
  O  O99  1  0.60530000  0.68950000  0.66770000  1
  O  O100  1  0.60630000  0.62920000  0.55760000  1
  O  O101  1  0.62690000  0.63970000  0.82510000  1
  O  O102  1  0.66100000  0.53070000  0.71430000  1
  O  O103  1  0.79110000  0.21580000  0.60200000  1
  O  O104  1  0.86710000  0.86770000  0.20990000  1
  O  O105  1  0.87410000  0.05750000  0.74510000  1
  O  O106  1  0.89050000  0.08170000  0.63630000  1
  O  O107  1  0.90560000  0.77120000  0.16250000  1
  O  O108  1  0.91300000  0.25980000  0.72970000  1
  O  O109  1  0.93330000  0.74570000  0.33360000  1
  O  O110  1  0.94370000  0.21320000  0.54190000  1
