# generated using pymatgen
data_Sr3H31C45NO19
_symmetry_space_group_name_H-M   'P 1'
_cell_length_a   19.43470000
_cell_length_b   27.30620000
_cell_length_c   31.17700000
_cell_angle_alpha   90.00000000
_cell_angle_beta   90.00000000
_cell_angle_gamma   90.00000000
_symmetry_Int_Tables_number   1
_chemical_formula_structural   Sr3H31C45NO19
_chemical_formula_sum   'Sr24 H248 C360 N8 O152'
_cell_volume   16545.25370085
_cell_formula_units_Z   8
loop_
 _symmetry_equiv_pos_site_id
 _symmetry_equiv_pos_as_xyz
  1  'x, y, z'
loop_
 _atom_site_type_symbol
 _atom_site_label
 _atom_site_symmetry_multiplicity
 _atom_site_fract_x
 _atom_site_fract_y
 _atom_site_fract_z
 _atom_site_occupancy
  Sr  Sr0  1  0.76572000  0.79088000  0.30131000  1
  Sr  Sr1  1  0.23428000  0.79088000  0.80131000  1
  Sr  Sr2  1  0.57998000  0.78847000  0.82608000  1
  Sr  Sr3  1  0.42002000  0.78847000  0.32608000  1
  Sr  Sr4  1  0.90045000  0.77195000  0.85052000  1
  Sr  Sr5  1  0.09955000  0.77195000  0.35052000  1
  Sr  Sr6  1  0.59955000  0.72805000  0.35052000  1
  Sr  Sr7  1  0.40045000  0.72805000  0.85052000  1
  Sr  Sr8  1  0.92002000  0.71153000  0.32608000  1
  Sr  Sr9  1  0.07998000  0.71153000  0.82608000  1
  Sr  Sr10  1  0.73428000  0.70912000  0.80131000  1
  Sr  Sr11  1  0.26572000  0.70912000  0.30131000  1
  Sr  Sr12  1  0.73428000  0.29088000  0.69869000  1
  Sr  Sr13  1  0.26572000  0.29088000  0.19869000  1
  Sr  Sr14  1  0.92002000  0.28847000  0.17392000  1
  Sr  Sr15  1  0.07998000  0.28847000  0.67392000  1
  Sr  Sr16  1  0.59955000  0.27195000  0.14948000  1
  Sr  Sr17  1  0.40045000  0.27195000  0.64948000  1
  Sr  Sr18  1  0.90045000  0.22805000  0.64948000  1
  Sr  Sr19  1  0.09955000  0.22805000  0.14948000  1
  Sr  Sr20  1  0.57998000  0.21153000  0.67392000  1
  Sr  Sr21  1  0.42002000  0.21153000  0.17392000  1
  Sr  Sr22  1  0.76572000  0.20912000  0.19869000  1
  Sr  Sr23  1  0.23428000  0.20912000  0.69869000  1
  H  H24  1  0.88760000  0.99170000  0.91150000  1
  H  H25  1  0.11240000  0.99170000  0.41150000  1
  H  H26  1  0.51760000  0.98170000  0.79810000  1
  H  H27  1  0.48240000  0.98170000  0.29810000  1
  H  H28  1  0.97510000  0.97550000  0.29020000  1
  H  H29  1  0.02490000  0.97550000  0.79020000  1
  H  H30  1  0.61120000  0.97530000  0.74170000  1
  H  H31  1  0.38880000  0.97530000  0.24170000  1
  H  H32  1  0.84280000  0.97360000  0.78320000  1
  H  H33  1  0.15720000  0.97360000  0.28320000  1
  H  H34  1  0.70000000  0.94050000  0.21900000  1
  H  H35  1  0.30000000  0.94050000  0.71900000  1
  H  H36  1  0.84740000  0.93690000  0.20350000  1
  H  H37  1  0.15260000  0.93690000  0.70350000  1
  H  H38  1  0.71860000  0.91470000  0.04060000  1
  H  H39  1  0.28140000  0.91470000  0.54060000  1
  H  H40  1  0.76110000  0.91300000  0.13390000  1
  H  H41  1  0.23890000  0.91300000  0.63390000  1
  H  H42  1  0.94360000  0.90860000  0.44170000  1
  H  H43  1  0.05640000  0.90860000  0.94170000  1
  H  H44  1  0.98740000  0.90590000  0.82670000  1
  H  H45  1  0.01260000  0.90590000  0.32670000  1
  H  H46  1  0.50800000  0.90560000  0.83320000  1
  H  H47  1  0.49200000  0.90560000  0.33320000  1
  H  H48  1  0.89690000  0.90360000  0.70490000  1
  H  H49  1  0.10310000  0.90360000  0.20490000  1
  H  H50  1  0.93230000  0.90230000  0.63800000  1
  H  H51  1  0.06770000  0.90230000  0.13800000  1
  H  H52  1  0.84820000  0.88990000  0.79860000  1
  H  H53  1  0.15180000  0.88990000  0.29860000  1
  H  H54  1  0.88040000  0.88850000  0.41390000  1
  H  H55  1  0.11960000  0.88850000  0.91390000  1
  H  H56  1  0.88240000  0.87940000  0.46460000  1
  H  H57  1  0.11760000  0.87940000  0.96460000  1
  H  H58  1  0.66450000  0.87740000  0.26410000  1
  H  H59  1  0.33550000  0.87740000  0.76410000  1
  H  H60  1  0.65590000  0.87360000  0.75120000  1
  H  H61  1  0.34410000  0.87360000  0.25120000  1
  H  H62  1  0.87640000  0.87340000  0.24590000  1
  H  H63  1  0.12360000  0.87340000  0.74590000  1
  H  H64  1  0.85460000  0.86880000  0.97710000  1
  H  H65  1  0.14540000  0.86880000  0.47710000  1
  H  H66  1  0.98270000  0.84120000  0.97870000  1
  H  H67  1  0.01730000  0.84120000  0.47870000  1
  H  H68  1  0.92220000  0.83620000  0.74680000  1
  H  H69  1  0.07780000  0.83620000  0.24680000  1
  H  H70  1  0.91990000  0.82720000  0.37170000  1
  H  H71  1  0.08010000  0.82720000  0.87170000  1
  H  H72  1  0.80770000  0.82350000  0.92450000  1
  H  H73  1  0.19230000  0.82350000  0.42450000  1
  H  H74  1  0.95870000  0.80160000  0.48840000  1
  H  H75  1  0.04130000  0.80160000  0.98840000  1
  H  H76  1  0.98110000  0.78920000  0.95520000  1
  H  H77  1  0.01890000  0.78920000  0.45520000  1
  H  H78  1  0.74560000  0.76920000  0.15860000  1
  H  H79  1  0.25440000  0.76920000  0.65860000  1
  H  H80  1  0.65170000  0.76790000  0.02660000  1
  H  H81  1  0.34830000  0.76790000  0.52660000  1
  H  H82  1  0.86040000  0.75590000  0.45600000  1
  H  H83  1  0.13960000  0.75590000  0.95600000  1
  H  H84  1  0.73790000  0.75370000  0.08600000  1
  H  H85  1  0.26210000  0.75370000  0.58600000  1
  H  H86  1  0.76210000  0.74630000  0.58600000  1
  H  H87  1  0.23790000  0.74630000  0.08600000  1
  H  H88  1  0.63960000  0.74410000  0.95600000  1
  H  H89  1  0.36040000  0.74410000  0.45600000  1
  H  H90  1  0.84830000  0.73210000  0.52660000  1
  H  H91  1  0.15170000  0.73210000  0.02660000  1
  H  H92  1  0.75440000  0.73080000  0.65860000  1
  H  H93  1  0.24560000  0.73080000  0.15860000  1
  H  H94  1  0.51890000  0.71080000  0.45520000  1
  H  H95  1  0.48110000  0.71080000  0.95520000  1
  H  H96  1  0.54130000  0.69840000  0.98840000  1
  H  H97  1  0.45870000  0.69840000  0.48840000  1
  H  H98  1  0.69230000  0.67650000  0.42450000  1
  H  H99  1  0.30770000  0.67650000  0.92450000  1
  H  H100  1  0.58010000  0.67280000  0.87170000  1
  H  H101  1  0.41990000  0.67280000  0.37170000  1
  H  H102  1  0.57780000  0.66380000  0.24680000  1
  H  H103  1  0.42220000  0.66380000  0.74680000  1
  H  H104  1  0.51730000  0.65880000  0.47870000  1
  H  H105  1  0.48270000  0.65880000  0.97870000  1
  H  H106  1  0.64540000  0.63120000  0.47710000  1
  H  H107  1  0.35460000  0.63120000  0.97710000  1
  H  H108  1  0.62360000  0.62660000  0.74590000  1
  H  H109  1  0.37640000  0.62660000  0.24590000  1
  H  H110  1  0.84410000  0.62640000  0.25120000  1
  H  H111  1  0.15590000  0.62640000  0.75120000  1
  H  H112  1  0.83550000  0.62260000  0.76410000  1
  H  H113  1  0.16450000  0.62260000  0.26410000  1
  H  H114  1  0.61760000  0.62060000  0.96460000  1
  H  H115  1  0.38240000  0.62060000  0.46460000  1
  H  H116  1  0.61960000  0.61150000  0.91390000  1
  H  H117  1  0.38040000  0.61150000  0.41390000  1
  H  H118  1  0.65180000  0.61010000  0.29860000  1
  H  H119  1  0.34820000  0.61010000  0.79860000  1
  H  H120  1  0.56770000  0.59770000  0.13800000  1
  H  H121  1  0.43230000  0.59770000  0.63800000  1
  H  H122  1  0.60310000  0.59640000  0.20490000  1
  H  H123  1  0.39690000  0.59640000  0.70490000  1
  H  H124  1  0.99200000  0.59440000  0.33320000  1
  H  H125  1  0.00800000  0.59440000  0.83320000  1
  H  H126  1  0.51260000  0.59410000  0.32670000  1
  H  H127  1  0.48740000  0.59410000  0.82670000  1
  H  H128  1  0.55640000  0.59140000  0.94170000  1
  H  H129  1  0.44360000  0.59140000  0.44170000  1
  H  H130  1  0.73890000  0.58700000  0.63390000  1
  H  H131  1  0.26110000  0.58700000  0.13390000  1
  H  H132  1  0.78140000  0.58530000  0.54060000  1
  H  H133  1  0.21860000  0.58530000  0.04060000  1
  H  H134  1  0.65260000  0.56310000  0.70350000  1
  H  H135  1  0.34740000  0.56310000  0.20350000  1
  H  H136  1  0.80000000  0.55950000  0.71900000  1
  H  H137  1  0.20000000  0.55950000  0.21900000  1
  H  H138  1  0.65720000  0.52640000  0.28320000  1
  H  H139  1  0.34280000  0.52640000  0.78320000  1
  H  H140  1  0.88880000  0.52470000  0.24170000  1
  H  H141  1  0.11120000  0.52470000  0.74170000  1
  H  H142  1  0.52490000  0.52450000  0.79020000  1
  H  H143  1  0.47510000  0.52450000  0.29020000  1
  H  H144  1  0.98240000  0.51830000  0.29810000  1
  H  H145  1  0.01760000  0.51830000  0.79810000  1
  H  H146  1  0.61240000  0.50830000  0.41150000  1
  H  H147  1  0.38760000  0.50830000  0.91150000  1
  H  H148  1  0.61240000  0.49170000  0.08850000  1
  H  H149  1  0.38760000  0.49170000  0.58850000  1
  H  H150  1  0.98240000  0.48170000  0.20190000  1
  H  H151  1  0.01760000  0.48170000  0.70190000  1
  H  H152  1  0.52490000  0.47550000  0.70980000  1
  H  H153  1  0.47510000  0.47550000  0.20980000  1
  H  H154  1  0.88880000  0.47530000  0.25830000  1
  H  H155  1  0.11120000  0.47530000  0.75830000  1
  H  H156  1  0.65720000  0.47360000  0.21680000  1
  H  H157  1  0.34280000  0.47360000  0.71680000  1
  H  H158  1  0.80000000  0.44050000  0.78100000  1
  H  H159  1  0.20000000  0.44050000  0.28100000  1
  H  H160  1  0.65260000  0.43690000  0.79650000  1
  H  H161  1  0.34740000  0.43690000  0.29650000  1
  H  H162  1  0.78140000  0.41470000  0.95940000  1
  H  H163  1  0.21860000  0.41470000  0.45940000  1
  H  H164  1  0.73890000  0.41300000  0.86610000  1
  H  H165  1  0.26110000  0.41300000  0.36610000  1
  H  H166  1  0.55640000  0.40860000  0.55830000  1
  H  H167  1  0.44360000  0.40860000  0.05830000  1
  H  H168  1  0.51260000  0.40590000  0.17330000  1
  H  H169  1  0.48740000  0.40590000  0.67330000  1
  H  H170  1  0.99200000  0.40560000  0.16680000  1
  H  H171  1  0.00800000  0.40560000  0.66680000  1
  H  H172  1  0.60310000  0.40360000  0.29510000  1
  H  H173  1  0.39690000  0.40360000  0.79510000  1
  H  H174  1  0.56770000  0.40230000  0.36200000  1
  H  H175  1  0.43230000  0.40230000  0.86200000  1
  H  H176  1  0.65180000  0.38990000  0.20140000  1
  H  H177  1  0.34820000  0.38990000  0.70140000  1
  H  H178  1  0.61960000  0.38850000  0.58610000  1
  H  H179  1  0.38040000  0.38850000  0.08610000  1
  H  H180  1  0.61760000  0.37940000  0.53540000  1
  H  H181  1  0.38240000  0.37940000  0.03540000  1
  H  H182  1  0.83550000  0.37740000  0.73590000  1
  H  H183  1  0.16450000  0.37740000  0.23590000  1
  H  H184  1  0.84410000  0.37360000  0.24880000  1
  H  H185  1  0.15590000  0.37360000  0.74880000  1
  H  H186  1  0.62360000  0.37340000  0.75410000  1
  H  H187  1  0.37640000  0.37340000  0.25410000  1
  H  H188  1  0.64540000  0.36880000  0.02290000  1
  H  H189  1  0.35460000  0.36880000  0.52290000  1
  H  H190  1  0.51730000  0.34120000  0.02130000  1
  H  H191  1  0.48270000  0.34120000  0.52130000  1
  H  H192  1  0.57780000  0.33620000  0.25320000  1
  H  H193  1  0.42220000  0.33620000  0.75320000  1
  H  H194  1  0.58010000  0.32720000  0.62830000  1
  H  H195  1  0.41990000  0.32720000  0.12830000  1
  H  H196  1  0.69230000  0.32350000  0.07550000  1
  H  H197  1  0.30770000  0.32350000  0.57550000  1
  H  H198  1  0.54130000  0.30160000  0.51160000  1
  H  H199  1  0.45870000  0.30160000  0.01160000  1
  H  H200  1  0.51890000  0.28920000  0.04480000  1
  H  H201  1  0.48110000  0.28920000  0.54480000  1
  H  H202  1  0.75440000  0.26920000  0.84140000  1
  H  H203  1  0.24560000  0.26920000  0.34140000  1
  H  H204  1  0.84830000  0.26790000  0.97340000  1
  H  H205  1  0.15170000  0.26790000  0.47340000  1
  H  H206  1  0.63960000  0.25590000  0.54400000  1
  H  H207  1  0.36040000  0.25590000  0.04400000  1
  H  H208  1  0.76210000  0.25370000  0.91400000  1
  H  H209  1  0.23790000  0.25370000  0.41400000  1
  H  H210  1  0.73790000  0.24630000  0.41400000  1
  H  H211  1  0.26210000  0.24630000  0.91400000  1
  H  H212  1  0.86040000  0.24410000  0.04400000  1
  H  H213  1  0.13960000  0.24410000  0.54400000  1
  H  H214  1  0.65170000  0.23210000  0.47340000  1
  H  H215  1  0.34830000  0.23210000  0.97340000  1
  H  H216  1  0.74560000  0.23080000  0.34140000  1
  H  H217  1  0.25440000  0.23080000  0.84140000  1
  H  H218  1  0.98110000  0.21080000  0.54480000  1
  H  H219  1  0.01890000  0.21080000  0.04480000  1
  H  H220  1  0.95870000  0.19840000  0.01160000  1
  H  H221  1  0.04130000  0.19840000  0.51160000  1
  H  H222  1  0.80770000  0.17650000  0.57550000  1
  H  H223  1  0.19230000  0.17650000  0.07550000  1
  H  H224  1  0.91990000  0.17280000  0.12830000  1
  H  H225  1  0.08010000  0.17280000  0.62830000  1
  H  H226  1  0.92220000  0.16380000  0.75320000  1
  H  H227  1  0.07780000  0.16380000  0.25320000  1
  H  H228  1  0.98270000  0.15880000  0.52130000  1
  H  H229  1  0.01730000  0.15880000  0.02130000  1
  H  H230  1  0.85460000  0.13120000  0.52290000  1
  H  H231  1  0.14540000  0.13120000  0.02290000  1
  H  H232  1  0.87640000  0.12660000  0.25410000  1
  H  H233  1  0.12360000  0.12660000  0.75410000  1
  H  H234  1  0.65590000  0.12640000  0.74880000  1
  H  H235  1  0.34410000  0.12640000  0.24880000  1
  H  H236  1  0.66450000  0.12260000  0.23590000  1
  H  H237  1  0.33550000  0.12260000  0.73590000  1
  H  H238  1  0.88240000  0.12060000  0.03540000  1
  H  H239  1  0.11760000  0.12060000  0.53540000  1
  H  H240  1  0.88040000  0.11150000  0.08610000  1
  H  H241  1  0.11960000  0.11150000  0.58610000  1
  H  H242  1  0.84820000  0.11010000  0.70140000  1
  H  H243  1  0.15180000  0.11010000  0.20140000  1
  H  H244  1  0.93230000  0.09770000  0.86200000  1
  H  H245  1  0.06770000  0.09770000  0.36200000  1
  H  H246  1  0.89690000  0.09640000  0.79510000  1
  H  H247  1  0.10310000  0.09640000  0.29510000  1
  H  H248  1  0.50800000  0.09440000  0.66680000  1
  H  H249  1  0.49200000  0.09440000  0.16680000  1
  H  H250  1  0.98740000  0.09410000  0.67330000  1
  H  H251  1  0.01260000  0.09410000  0.17330000  1
  H  H252  1  0.94360000  0.09140000  0.05830000  1
  H  H253  1  0.05640000  0.09140000  0.55830000  1
  H  H254  1  0.76110000  0.08700000  0.36610000  1
  H  H255  1  0.23890000  0.08700000  0.86610000  1
  H  H256  1  0.71860000  0.08530000  0.45940000  1
  H  H257  1  0.28140000  0.08530000  0.95940000  1
  H  H258  1  0.84740000  0.06310000  0.29650000  1
  H  H259  1  0.15260000  0.06310000  0.79650000  1
  H  H260  1  0.70000000  0.05950000  0.28100000  1
  H  H261  1  0.30000000  0.05950000  0.78100000  1
  H  H262  1  0.84280000  0.02640000  0.71680000  1
  H  H263  1  0.15720000  0.02640000  0.21680000  1
  H  H264  1  0.61120000  0.02470000  0.75830000  1
  H  H265  1  0.38880000  0.02470000  0.25830000  1
  H  H266  1  0.97510000  0.02450000  0.20980000  1
  H  H267  1  0.02490000  0.02450000  0.70980000  1
  H  H268  1  0.51760000  0.01830000  0.70190000  1
  H  H269  1  0.48240000  0.01830000  0.20190000  1
  H  H270  1  0.88760000  0.00830000  0.58850000  1
  H  H271  1  0.11240000  0.00830000  0.08850000  1
  C  C272  1  0.91530000  0.98821000  0.88653000  1
  C  C273  1  0.08470000  0.98821000  0.38653000  1
  C  C274  1  0.99620000  0.97920000  0.81467000  1
  C  C275  1  0.00380000  0.97920000  0.31467000  1
  C  C276  1  0.56720000  0.97530000  0.26000000  1
  C  C277  1  0.43280000  0.97530000  0.76000000  1
  C  C278  1  0.97720000  0.97403000  0.67267000  1
  C  C279  1  0.02280000  0.97403000  0.17267000  1
  C  C280  1  0.74830000  0.97300000  0.75570000  1
  C  C281  1  0.25170000  0.97300000  0.25570000  1
  C  C282  1  0.93600000  0.96947000  0.63587000  1
  C  C283  1  0.06400000  0.96947000  0.13587000  1
  C  C284  1  0.51940000  0.96050000  0.29100000  1
  C  C285  1  0.48060000  0.96050000  0.79100000  1
  C  C286  1  0.80520000  0.95300000  0.77577000  1
  C  C287  1  0.19480000  0.95300000  0.27577000  1
  C  C288  1  0.62060000  0.94380000  0.25010000  1
  C  C289  1  0.37940000  0.94380000  0.75010000  1
  C  C290  1  0.69330000  0.94220000  0.74560000  1
  C  C291  1  0.30670000  0.94220000  0.24560000  1
  C  C292  1  0.93410000  0.94187000  0.87321000  1
  C  C293  1  0.06590000  0.94187000  0.37321000  1
  C  C294  1  0.97450000  0.93739000  0.83669000  1
  C  C295  1  0.02550000  0.93739000  0.33669000  1
  C  C296  1  0.99510000  0.92991000  0.69867000  1
  C  C297  1  0.00490000  0.92991000  0.19867000  1
  C  C298  1  0.93700000  0.91860000  0.21096000  1
  C  C299  1  0.06300000  0.91860000  0.71096000  1
  C  C300  1  0.52470000  0.91500000  0.31210000  1
  C  C301  1  0.47530000  0.91500000  0.81210000  1
  C  C302  1  0.80820000  0.90303000  0.78530000  1
  C  C303  1  0.19180000  0.90303000  0.28530000  1
  C  C304  1  0.62710000  0.89840000  0.27090000  1
  C  C305  1  0.37290000  0.89840000  0.77090000  1
  C  C306  1  0.94330000  0.89760000  0.71294000  1
  C  C307  1  0.05670000  0.89760000  0.21294000  1
  C  C308  1  0.90910000  0.89732000  0.89778000  1
  C  C309  1  0.09090000  0.89732000  0.39778000  1
  C  C310  1  0.69520000  0.89340000  0.75660000  1
  C  C311  1  0.30480000  0.89340000  0.25660000  1
  C  C312  1  0.57930000  0.88412000  0.30120000  1
  C  C313  1  0.42070000  0.88412000  0.80120000  1
  C  C314  1  0.91040000  0.88190000  0.43860000  1
  C  C315  1  0.08960000  0.88190000  0.93860000  1
  C  C316  1  0.75550000  0.88030000  0.12412000  1
  C  C317  1  0.24450000  0.88030000  0.62412000  1
  C  C318  1  0.92250000  0.87924000  0.23722000  1
  C  C319  1  0.07750000  0.87924000  0.73722000  1
  C  C320  1  0.75310000  0.87210000  0.77551000  1
  C  C321  1  0.24690000  0.87210000  0.27551000  1
  C  C322  1  0.75080000  0.87160000  0.08090000  1
  C  C323  1  0.24920000  0.87160000  0.58090000  1
  C  C324  1  0.95820000  0.85760000  0.73818000  1
  C  C325  1  0.04180000  0.85760000  0.23818000  1
  C  C326  1  0.75780000  0.85360000  0.20123000  1
  C  C327  1  0.24220000  0.85360000  0.70123000  1
  C  C328  1  0.97460000  0.84786000  0.25116000  1
  C  C329  1  0.02540000  0.84786000  0.75116000  1
  C  C330  1  0.75240000  0.84310000  0.15384000  1
  C  C331  1  0.24760000  0.84310000  0.65384000  1
  C  C332  1  0.58690000  0.83436000  0.32143000  1
  C  C333  1  0.41310000  0.83436000  0.82143000  1
  C  C334  1  0.78000000  0.82910000  0.98677000  1
  C  C335  1  0.22000000  0.82910000  0.48677000  1
  C  C336  1  0.74240000  0.82470000  0.06519000  1
  C  C337  1  0.25760000  0.82470000  0.56519000  1
  C  C338  1  0.75550000  0.81820000  0.78497000  1
  C  C339  1  0.24450000  0.81820000  0.28497000  1
  C  C340  1  0.98900000  0.81510000  0.46630000  1
  C  C341  1  0.01100000  0.81510000  0.96630000  1
  C  C342  1  0.94680000  0.81270000  0.39373000  1
  C  C343  1  0.77530000  0.81270000  0.94523000  1
  C  C344  1  0.22470000  0.81270000  0.44523000  1
  C  C345  1  0.05320000  0.81270000  0.89373000  1
  C  C346  1  0.73520000  0.81250000  0.01817000  1
  C  C347  1  0.26480000  0.81250000  0.51817000  1
  C  C348  1  0.95800000  0.80490000  0.27886000  1
  C  C349  1  0.04200000  0.80490000  0.77886000  1
  C  C350  1  0.74650000  0.79570000  0.13890000  1
  C  C351  1  0.25350000  0.79570000  0.63890000  1
  C  C352  1  0.74170000  0.78660000  0.09570000  1
  C  C353  1  0.25830000  0.78660000  0.59570000  1
  C  C354  1  0.72320000  0.78030000  0.93331000  1
  C  C355  1  0.27680000  0.78030000  0.43331000  1
  C  C356  1  0.68300000  0.77990000  0.00570000  1
  C  C357  1  0.31700000  0.77990000  0.50570000  1
  C  C358  1  0.67640000  0.76500000  0.96400000  1
  C  C359  1  0.32360000  0.76500000  0.46400000  1
  C  C360  1  0.72250000  0.76030000  0.88889000  1
  C  C361  1  0.27750000  0.76030000  0.38889000  1
  C  C362  1  0.77750000  0.73970000  0.38889000  1
  C  C363  1  0.22250000  0.73970000  0.88889000  1
  C  C364  1  0.82360000  0.73500000  0.46400000  1
  C  C365  1  0.17640000  0.73500000  0.96400000  1
  C  C366  1  0.81700000  0.72010000  0.50570000  1
  C  C367  1  0.18300000  0.72010000  0.00570000  1
  C  C368  1  0.77680000  0.71970000  0.43331000  1
  C  C369  1  0.22320000  0.71970000  0.93331000  1
  C  C370  1  0.75830000  0.71340000  0.59570000  1
  C  C371  1  0.24170000  0.71340000  0.09570000  1
  C  C372  1  0.75350000  0.70430000  0.63890000  1
  C  C373  1  0.24650000  0.70430000  0.13890000  1
  C  C374  1  0.54200000  0.69510000  0.77886000  1
  C  C375  1  0.45800000  0.69510000  0.27886000  1
  C  C376  1  0.76480000  0.68750000  0.51817000  1
  C  C377  1  0.23520000  0.68750000  0.01817000  1
  C  C378  1  0.72470000  0.68730000  0.44523000  1
  C  C379  1  0.55320000  0.68730000  0.89373000  1
  C  C380  1  0.44680000  0.68730000  0.39373000  1
  C  C381  1  0.27530000  0.68730000  0.94523000  1
  C  C382  1  0.51100000  0.68490000  0.96630000  1
  C  C383  1  0.48900000  0.68490000  0.46630000  1
  C  C384  1  0.74450000  0.68180000  0.28497000  1
  C  C385  1  0.25550000  0.68180000  0.78497000  1
  C  C386  1  0.75760000  0.67530000  0.56519000  1
  C  C387  1  0.24240000  0.67530000  0.06519000  1
  C  C388  1  0.72000000  0.67090000  0.48677000  1
  C  C389  1  0.28000000  0.67090000  0.98677000  1
  C  C390  1  0.91310000  0.66564000  0.82143000  1
  C  C391  1  0.08690000  0.66564000  0.32143000  1
  C  C392  1  0.74760000  0.65690000  0.65384000  1
  C  C393  1  0.25240000  0.65690000  0.15384000  1
  C  C394  1  0.52540000  0.65214000  0.75116000  1
  C  C395  1  0.47460000  0.65214000  0.25116000  1
  C  C396  1  0.74220000  0.64640000  0.70123000  1
  C  C397  1  0.25780000  0.64640000  0.20123000  1
  C  C398  1  0.54180000  0.64240000  0.23818000  1
  C  C399  1  0.45820000  0.64240000  0.73818000  1
  C  C400  1  0.74920000  0.62840000  0.58090000  1
  C  C401  1  0.25080000  0.62840000  0.08090000  1
  C  C402  1  0.74690000  0.62790000  0.27551000  1
  C  C403  1  0.25310000  0.62790000  0.77551000  1
  C  C404  1  0.57750000  0.62076000  0.73722000  1
  C  C405  1  0.42250000  0.62076000  0.23722000  1
  C  C406  1  0.74450000  0.61970000  0.62412000  1
  C  C407  1  0.25550000  0.61970000  0.12412000  1
  C  C408  1  0.58960000  0.61810000  0.93860000  1
  C  C409  1  0.41040000  0.61810000  0.43860000  1
  C  C410  1  0.92070000  0.61588000  0.80120000  1
  C  C411  1  0.07930000  0.61588000  0.30120000  1
  C  C412  1  0.80480000  0.60660000  0.25660000  1
  C  C413  1  0.19520000  0.60660000  0.75660000  1
  C  C414  1  0.59090000  0.60268000  0.39778000  1
  C  C415  1  0.40910000  0.60268000  0.89778000  1
  C  C416  1  0.55670000  0.60240000  0.21294000  1
  C  C417  1  0.44330000  0.60240000  0.71294000  1
  C  C418  1  0.87290000  0.60160000  0.77090000  1
  C  C419  1  0.12710000  0.60160000  0.27090000  1
  C  C420  1  0.69180000  0.59697000  0.28530000  1
  C  C421  1  0.30820000  0.59697000  0.78530000  1
  C  C422  1  0.97530000  0.58500000  0.81210000  1
  C  C423  1  0.02470000  0.58500000  0.31210000  1
  C  C424  1  0.56300000  0.58140000  0.71096000  1
  C  C425  1  0.43700000  0.58140000  0.21096000  1
  C  C426  1  0.50490000  0.57009000  0.19867000  1
  C  C427  1  0.49510000  0.57009000  0.69867000  1
  C  C428  1  0.52550000  0.56261000  0.33669000  1
  C  C429  1  0.47450000  0.56261000  0.83669000  1
  C  C430  1  0.56590000  0.55813000  0.37321000  1
  C  C431  1  0.43410000  0.55813000  0.87321000  1
  C  C432  1  0.80670000  0.55780000  0.24560000  1
  C  C433  1  0.19330000  0.55780000  0.74560000  1
  C  C434  1  0.87940000  0.55620000  0.75010000  1
  C  C435  1  0.12060000  0.55620000  0.25010000  1
  C  C436  1  0.69480000  0.54700000  0.27577000  1
  C  C437  1  0.30520000  0.54700000  0.77577000  1
  C  C438  1  0.98060000  0.53950000  0.79100000  1
  C  C439  1  0.01940000  0.53950000  0.29100000  1
  C  C440  1  0.56400000  0.53053000  0.13587000  1
  C  C441  1  0.43600000  0.53053000  0.63587000  1
  C  C442  1  0.75170000  0.52700000  0.25570000  1
  C  C443  1  0.24830000  0.52700000  0.75570000  1
  C  C444  1  0.52280000  0.52597000  0.17267000  1
  C  C445  1  0.47720000  0.52597000  0.67267000  1
  C  C446  1  0.93280000  0.52470000  0.76000000  1
  C  C447  1  0.06720000  0.52470000  0.26000000  1
  C  C448  1  0.50380000  0.52080000  0.31467000  1
  C  C449  1  0.49620000  0.52080000  0.81467000  1
  C  C450  1  0.58470000  0.51179000  0.38653000  1
  C  C451  1  0.41530000  0.51179000  0.88653000  1
  C  C452  1  0.58470000  0.48821000  0.11347000  1
  C  C453  1  0.41530000  0.48821000  0.61347000  1
  C  C454  1  0.50380000  0.47920000  0.18533000  1
  C  C455  1  0.49620000  0.47920000  0.68533000  1
  C  C456  1  0.93280000  0.47530000  0.74000000  1
  C  C457  1  0.06720000  0.47530000  0.24000000  1
  C  C458  1  0.52280000  0.47403000  0.32733000  1
  C  C459  1  0.47720000  0.47403000  0.82733000  1
  C  C460  1  0.75170000  0.47300000  0.24430000  1
  C  C461  1  0.24830000  0.47300000  0.74430000  1
  C  C462  1  0.56400000  0.46947000  0.36413000  1
  C  C463  1  0.43600000  0.46947000  0.86413000  1
  C  C464  1  0.98060000  0.46050000  0.70900000  1
  C  C465  1  0.01940000  0.46050000  0.20900000  1
  C  C466  1  0.69480000  0.45300000  0.22423000  1
  C  C467  1  0.30520000  0.45300000  0.72423000  1
  C  C468  1  0.87940000  0.44380000  0.74990000  1
  C  C469  1  0.12060000  0.44380000  0.24990000  1
  C  C470  1  0.80670000  0.44220000  0.25440000  1
  C  C471  1  0.19330000  0.44220000  0.75440000  1
  C  C472  1  0.56590000  0.44187000  0.12679000  1
  C  C473  1  0.43410000  0.44187000  0.62679000  1
  C  C474  1  0.52550000  0.43739000  0.16331000  1
  C  C475  1  0.47450000  0.43739000  0.66331000  1
  C  C476  1  0.50490000  0.42991000  0.30133000  1
  C  C477  1  0.49510000  0.42991000  0.80133000  1
  C  C478  1  0.56300000  0.41860000  0.78904000  1
  C  C479  1  0.43700000  0.41860000  0.28904000  1
  C  C480  1  0.97530000  0.41500000  0.68790000  1
  C  C481  1  0.02470000  0.41500000  0.18790000  1
  C  C482  1  0.69180000  0.40303000  0.21470000  1
  C  C483  1  0.30820000  0.40303000  0.71470000  1
  C  C484  1  0.87290000  0.39840000  0.72910000  1
  C  C485  1  0.12710000  0.39840000  0.22910000  1
  C  C486  1  0.55670000  0.39760000  0.28706000  1
  C  C487  1  0.44330000  0.39760000  0.78706000  1
  C  C488  1  0.59090000  0.39732000  0.10222000  1
  C  C489  1  0.40910000  0.39732000  0.60222000  1
  C  C490  1  0.80480000  0.39340000  0.24340000  1
  C  C491  1  0.19520000  0.39340000  0.74340000  1
  C  C492  1  0.92070000  0.38412000  0.69880000  1
  C  C493  1  0.07930000  0.38412000  0.19880000  1
  C  C494  1  0.58960000  0.38190000  0.56140000  1
  C  C495  1  0.41040000  0.38190000  0.06140000  1
  C  C496  1  0.74450000  0.38030000  0.87588000  1
  C  C497  1  0.25550000  0.38030000  0.37588000  1
  C  C498  1  0.57750000  0.37924000  0.76278000  1
  C  C499  1  0.42250000  0.37924000  0.26278000  1
  C  C500  1  0.74690000  0.37210000  0.22449000  1
  C  C501  1  0.25310000  0.37210000  0.72449000  1
  C  C502  1  0.74920000  0.37160000  0.91910000  1
  C  C503  1  0.25080000  0.37160000  0.41910000  1
  C  C504  1  0.54180000  0.35760000  0.26182000  1
  C  C505  1  0.45820000  0.35760000  0.76182000  1
  C  C506  1  0.74220000  0.35360000  0.79877000  1
  C  C507  1  0.25780000  0.35360000  0.29877000  1
  C  C508  1  0.52540000  0.34786000  0.74884000  1
  C  C509  1  0.47460000  0.34786000  0.24884000  1
  C  C510  1  0.74760000  0.34310000  0.84616000  1
  C  C511  1  0.25240000  0.34310000  0.34616000  1
  C  C512  1  0.91310000  0.33436000  0.67857000  1
  C  C513  1  0.08690000  0.33436000  0.17857000  1
  C  C514  1  0.72000000  0.32910000  0.01323000  1
  C  C515  1  0.28000000  0.32910000  0.51323000  1
  C  C516  1  0.75760000  0.32470000  0.93481000  1
  C  C517  1  0.24240000  0.32470000  0.43481000  1
  C  C518  1  0.74450000  0.31820000  0.21503000  1
  C  C519  1  0.25550000  0.31820000  0.71503000  1
  C  C520  1  0.51100000  0.31510000  0.53370000  1
  C  C521  1  0.48900000  0.31510000  0.03370000  1
  C  C522  1  0.72470000  0.31270000  0.05477000  1
  C  C523  1  0.55320000  0.31270000  0.60627000  1
  C  C524  1  0.44680000  0.31270000  0.10627000  1
  C  C525  1  0.27530000  0.31270000  0.55477000  1
  C  C526  1  0.76480000  0.31250000  0.98183000  1
  C  C527  1  0.23520000  0.31250000  0.48183000  1
  C  C528  1  0.54200000  0.30490000  0.72114000  1
  C  C529  1  0.45800000  0.30490000  0.22114000  1
  C  C530  1  0.75350000  0.29570000  0.86110000  1
  C  C531  1  0.24650000  0.29570000  0.36110000  1
  C  C532  1  0.75830000  0.28660000  0.90430000  1
  C  C533  1  0.24170000  0.28660000  0.40430000  1
  C  C534  1  0.77680000  0.28030000  0.06669000  1
  C  C535  1  0.22320000  0.28030000  0.56669000  1
  C  C536  1  0.81700000  0.27990000  0.99430000  1
  C  C537  1  0.18300000  0.27990000  0.49430000  1
  C  C538  1  0.82360000  0.26500000  0.03600000  1
  C  C539  1  0.17640000  0.26500000  0.53600000  1
  C  C540  1  0.77750000  0.26030000  0.11111000  1
  C  C541  1  0.22250000  0.26030000  0.61111000  1
  C  C542  1  0.72250000  0.23970000  0.61111000  1
  C  C543  1  0.27750000  0.23970000  0.11111000  1
  C  C544  1  0.67640000  0.23500000  0.53600000  1
  C  C545  1  0.32360000  0.23500000  0.03600000  1
  C  C546  1  0.68300000  0.22010000  0.49430000  1
  C  C547  1  0.31700000  0.22010000  0.99430000  1
  C  C548  1  0.72320000  0.21970000  0.56669000  1
  C  C549  1  0.27680000  0.21970000  0.06669000  1
  C  C550  1  0.74170000  0.21340000  0.40430000  1
  C  C551  1  0.25830000  0.21340000  0.90430000  1
  C  C552  1  0.74650000  0.20430000  0.36110000  1
  C  C553  1  0.25350000  0.20430000  0.86110000  1
  C  C554  1  0.95800000  0.19510000  0.22114000  1
  C  C555  1  0.04200000  0.19510000  0.72114000  1
  C  C556  1  0.73520000  0.18750000  0.48183000  1
  C  C557  1  0.26480000  0.18750000  0.98183000  1
  C  C558  1  0.94680000  0.18730000  0.10627000  1
  C  C559  1  0.77530000  0.18730000  0.55477000  1
  C  C560  1  0.22470000  0.18730000  0.05477000  1
  C  C561  1  0.05320000  0.18730000  0.60627000  1
  C  C562  1  0.98900000  0.18490000  0.03370000  1
  C  C563  1  0.01100000  0.18490000  0.53370000  1
  C  C564  1  0.75550000  0.18180000  0.71503000  1
  C  C565  1  0.24450000  0.18180000  0.21503000  1
  C  C566  1  0.74240000  0.17530000  0.43481000  1
  C  C567  1  0.25760000  0.17530000  0.93481000  1
  C  C568  1  0.78000000  0.17090000  0.51323000  1
  C  C569  1  0.22000000  0.17090000  0.01323000  1
  C  C570  1  0.58690000  0.16564000  0.17857000  1
  C  C571  1  0.41310000  0.16564000  0.67857000  1
  C  C572  1  0.75240000  0.15690000  0.34616000  1
  C  C573  1  0.24760000  0.15690000  0.84616000  1
  C  C574  1  0.97460000  0.15214000  0.24884000  1
  C  C575  1  0.02540000  0.15214000  0.74884000  1
  C  C576  1  0.75780000  0.14640000  0.29877000  1
  C  C577  1  0.24220000  0.14640000  0.79877000  1
  C  C578  1  0.95820000  0.14240000  0.76182000  1
  C  C579  1  0.04180000  0.14240000  0.26182000  1
  C  C580  1  0.75080000  0.12840000  0.41910000  1
  C  C581  1  0.24920000  0.12840000  0.91910000  1
  C  C582  1  0.75310000  0.12790000  0.72449000  1
  C  C583  1  0.24690000  0.12790000  0.22449000  1
  C  C584  1  0.92250000  0.12076000  0.26278000  1
  C  C585  1  0.07750000  0.12076000  0.76278000  1
  C  C586  1  0.75550000  0.11970000  0.37588000  1
  C  C587  1  0.24450000  0.11970000  0.87588000  1
  C  C588  1  0.91040000  0.11810000  0.06140000  1
  C  C589  1  0.08960000  0.11810000  0.56140000  1
  C  C590  1  0.57930000  0.11588000  0.19880000  1
  C  C591  1  0.42070000  0.11588000  0.69880000  1
  C  C592  1  0.69520000  0.10660000  0.74340000  1
  C  C593  1  0.30480000  0.10660000  0.24340000  1
  C  C594  1  0.90910000  0.10268000  0.60222000  1
  C  C595  1  0.09090000  0.10268000  0.10222000  1
  C  C596  1  0.94330000  0.10240000  0.78706000  1
  C  C597  1  0.05670000  0.10240000  0.28706000  1
  C  C598  1  0.62710000  0.10160000  0.22910000  1
  C  C599  1  0.37290000  0.10160000  0.72910000  1
  C  C600  1  0.80820000  0.09697000  0.71470000  1
  C  C601  1  0.19180000  0.09697000  0.21470000  1
  C  C602  1  0.52470000  0.08500000  0.18790000  1
  C  C603  1  0.47530000  0.08500000  0.68790000  1
  C  C604  1  0.93700000  0.08140000  0.28904000  1
  C  C605  1  0.06300000  0.08140000  0.78904000  1
  C  C606  1  0.99510000  0.07009000  0.80133000  1
  C  C607  1  0.00490000  0.07009000  0.30133000  1
  C  C608  1  0.97450000  0.06261000  0.66331000  1
  C  C609  1  0.02550000  0.06261000  0.16331000  1
  C  C610  1  0.93410000  0.05813000  0.62679000  1
  C  C611  1  0.06590000  0.05813000  0.12679000  1
  C  C612  1  0.69330000  0.05780000  0.75440000  1
  C  C613  1  0.30670000  0.05780000  0.25440000  1
  C  C614  1  0.62060000  0.05620000  0.24990000  1
  C  C615  1  0.37940000  0.05620000  0.74990000  1
  C  C616  1  0.80520000  0.04700000  0.72423000  1
  C  C617  1  0.19480000  0.04700000  0.22423000  1
  C  C618  1  0.51940000  0.03950000  0.20900000  1
  C  C619  1  0.48060000  0.03950000  0.70900000  1
  C  C620  1  0.93600000  0.03053000  0.86413000  1
  C  C621  1  0.06400000  0.03053000  0.36413000  1
  C  C622  1  0.74830000  0.02700000  0.74430000  1
  C  C623  1  0.25170000  0.02700000  0.24430000  1
  C  C624  1  0.97720000  0.02597000  0.82733000  1
  C  C625  1  0.02280000  0.02597000  0.32733000  1
  C  C626  1  0.56720000  0.02470000  0.24000000  1
  C  C627  1  0.43280000  0.02470000  0.74000000  1
  C  C628  1  0.99620000  0.02080000  0.68533000  1
  C  C629  1  0.00380000  0.02080000  0.18533000  1
  C  C630  1  0.91530000  0.01179000  0.61347000  1
  C  C631  1  0.08470000  0.01179000  0.11347000  1
  N  N632  1  0.94780000  0.83498000  0.43157000  1
  N  N633  1  0.05220000  0.83498000  0.93157000  1
  N  N634  1  0.55220000  0.66502000  0.93157000  1
  N  N635  1  0.44780000  0.66502000  0.43157000  1
  N  N636  1  0.55220000  0.33498000  0.56843000  1
  N  N637  1  0.44780000  0.33498000  0.06843000  1
  N  N638  1  0.94780000  0.16502000  0.06843000  1
  N  N639  1  0.05220000  0.16502000  0.56843000  1
  O  O640  1  0.63620000  0.96000000  0.72440000  1
  O  O641  1  0.36380000  0.96000000  0.22440000  1
  O  O642  1  0.66460000  0.95815000  0.21850000  1
  O  O643  1  0.33540000  0.95815000  0.71850000  1
  O  O644  1  0.88570000  0.94862000  0.19655000  1
  O  O645  1  0.11430000  0.94862000  0.69655000  1
  O  O646  1  0.91640000  0.92390000  0.62155000  1
  O  O647  1  0.08360000  0.92390000  0.12155000  1
  O  O648  1  0.75570000  0.91126000  0.05413000  1
  O  O649  1  0.24430000  0.91126000  0.55413000  1
  O  O650  1  0.89120000  0.90485000  0.93598000  1
  O  O651  1  0.10880000  0.90485000  0.43598000  1
  O  O652  1  0.76758000  0.89700000  0.21261000  1
  O  O653  1  0.23242000  0.89700000  0.71261000  1
  O  O654  1  0.83010000  0.86201000  0.99853000  1
  O  O655  1  0.16990000  0.86201000  0.49853000  1
  O  O656  1  0.90636000  0.85677000  0.87868000  1
  O  O657  1  0.09364000  0.85677000  0.37868000  1
  O  O658  1  0.75170000  0.81834000  0.22650000  1
  O  O659  1  0.24830000  0.81834000  0.72650000  1
  O  O660  1  0.53866000  0.81708000  0.34317000  1
  O  O661  1  0.46134000  0.81708000  0.84317000  1
  O  O662  1  0.64167000  0.81038000  0.31402000  1
  O  O663  1  0.35833000  0.81038000  0.81402000  1
  O  O664  1  0.69733000  0.79718000  0.78796000  1
  O  O665  1  0.30267000  0.79718000  0.28796000  1
  O  O666  1  0.81131000  0.79713000  0.78839000  1
  O  O667  1  0.18869000  0.79713000  0.28839000  1
  O  O668  1  0.89542000  0.79504000  0.28691000  1
  O  O669  1  0.10458000  0.79504000  0.78691000  1
  O  O670  1  0.99299000  0.77961000  0.79367000  1
  O  O671  1  0.00701000  0.77961000  0.29367000  1
  O  O672  1  0.97809000  0.77479000  0.38504000  1
  O  O673  1  0.02191000  0.77479000  0.88504000  1
  O  O674  1  0.77764000  0.75883000  0.86851000  1
  O  O675  1  0.22236000  0.75883000  0.36851000  1
  O  O676  1  0.83321000  0.75501000  0.37286000  1
  O  O677  1  0.16679000  0.75501000  0.87286000  1
  O  O678  1  0.66679000  0.74499000  0.87286000  1
  O  O679  1  0.33321000  0.74499000  0.37286000  1
  O  O680  1  0.72236000  0.74117000  0.36851000  1
  O  O681  1  0.27764000  0.74117000  0.86851000  1
  O  O682  1  0.52191000  0.72521000  0.88504000  1
  O  O683  1  0.47809000  0.72521000  0.38504000  1
  O  O684  1  0.50701000  0.72039000  0.29367000  1
  O  O685  1  0.49299000  0.72039000  0.79367000  1
  O  O686  1  0.60458000  0.70496000  0.78691000  1
  O  O687  1  0.39542000  0.70496000  0.28691000  1
  O  O688  1  0.68869000  0.70287000  0.28839000  1
  O  O689  1  0.31131000  0.70287000  0.78839000  1
  O  O690  1  0.80267000  0.70282000  0.28796000  1
  O  O691  1  0.19733000  0.70282000  0.78796000  1
  O  O692  1  0.85833000  0.68962000  0.81402000  1
  O  O693  1  0.14167000  0.68962000  0.31402000  1
  O  O694  1  0.96134000  0.68292000  0.84317000  1
  O  O695  1  0.03866000  0.68292000  0.34317000  1
  O  O696  1  0.74830000  0.68166000  0.72650000  1
  O  O697  1  0.25170000  0.68166000  0.22650000  1
  O  O698  1  0.59364000  0.64323000  0.37868000  1
  O  O699  1  0.40636000  0.64323000  0.87868000  1
  O  O700  1  0.66990000  0.63799000  0.49853000  1
  O  O701  1  0.33010000  0.63799000  0.99853000  1
  O  O702  1  0.73242000  0.60300000  0.71261000  1
  O  O703  1  0.26758000  0.60300000  0.21261000  1
  O  O704  1  0.60880000  0.59515000  0.43598000  1
  O  O705  1  0.39120000  0.59515000  0.93598000  1
  O  O706  1  0.74430000  0.58874000  0.55413000  1
  O  O707  1  0.25570000  0.58874000  0.05413000  1
  O  O708  1  0.58360000  0.57610000  0.12155000  1
  O  O709  1  0.41640000  0.57610000  0.62155000  1
  O  O710  1  0.61430000  0.55138000  0.69655000  1
  O  O711  1  0.38570000  0.55138000  0.19655000  1
  O  O712  1  0.83540000  0.54185000  0.71850000  1
  O  O713  1  0.16460000  0.54185000  0.21850000  1
  O  O714  1  0.86380000  0.54000000  0.22440000  1
  O  O715  1  0.13620000  0.54000000  0.72440000  1
  O  O716  1  0.86380000  0.46000000  0.27560000  1
  O  O717  1  0.13620000  0.46000000  0.77560000  1
  O  O718  1  0.83540000  0.45815000  0.78150000  1
  O  O719  1  0.16460000  0.45815000  0.28150000  1
  O  O720  1  0.61430000  0.44862000  0.80345000  1
  O  O721  1  0.38570000  0.44862000  0.30345000  1
  O  O722  1  0.58360000  0.42390000  0.37845000  1
  O  O723  1  0.41640000  0.42390000  0.87845000  1
  O  O724  1  0.74430000  0.41126000  0.94587000  1
  O  O725  1  0.25570000  0.41126000  0.44587000  1
  O  O726  1  0.60880000  0.40485000  0.06402000  1
  O  O727  1  0.39120000  0.40485000  0.56402000  1
  O  O728  1  0.73242000  0.39700000  0.78739000  1
  O  O729  1  0.26758000  0.39700000  0.28739000  1
  O  O730  1  0.66990000  0.36201000  0.00147000  1
  O  O731  1  0.33010000  0.36201000  0.50147000  1
  O  O732  1  0.59364000  0.35677000  0.12132000  1
  O  O733  1  0.40636000  0.35677000  0.62132000  1
  O  O734  1  0.74830000  0.31834000  0.77350000  1
  O  O735  1  0.25170000  0.31834000  0.27350000  1
  O  O736  1  0.96134000  0.31708000  0.65683000  1
  O  O737  1  0.03866000  0.31708000  0.15683000  1
  O  O738  1  0.85833000  0.31038000  0.68598000  1
  O  O739  1  0.14167000  0.31038000  0.18598000  1
  O  O740  1  0.80267000  0.29718000  0.21204000  1
  O  O741  1  0.19733000  0.29718000  0.71204000  1
  O  O742  1  0.68869000  0.29713000  0.21161000  1
  O  O743  1  0.31131000  0.29713000  0.71161000  1
  O  O744  1  0.60458000  0.29504000  0.71309000  1
  O  O745  1  0.39542000  0.29504000  0.21309000  1
  O  O746  1  0.50701000  0.27961000  0.20633000  1
  O  O747  1  0.49299000  0.27961000  0.70633000  1
  O  O748  1  0.52191000  0.27479000  0.61496000  1
  O  O749  1  0.47809000  0.27479000  0.11496000  1
  O  O750  1  0.72236000  0.25883000  0.13149000  1
  O  O751  1  0.27764000  0.25883000  0.63149000  1
  O  O752  1  0.66679000  0.25501000  0.62714000  1
  O  O753  1  0.33321000  0.25501000  0.12714000  1
  O  O754  1  0.83321000  0.24499000  0.12714000  1
  O  O755  1  0.16679000  0.24499000  0.62714000  1
  O  O756  1  0.77764000  0.24117000  0.63149000  1
  O  O757  1  0.22236000  0.24117000  0.13149000  1
  O  O758  1  0.97809000  0.22521000  0.11496000  1
  O  O759  1  0.02191000  0.22521000  0.61496000  1
  O  O760  1  0.99299000  0.22039000  0.70633000  1
  O  O761  1  0.00701000  0.22039000  0.20633000  1
  O  O762  1  0.89542000  0.20496000  0.21309000  1
  O  O763  1  0.10458000  0.20496000  0.71309000  1
  O  O764  1  0.81131000  0.20287000  0.71161000  1
  O  O765  1  0.18869000  0.20287000  0.21161000  1
  O  O766  1  0.69733000  0.20282000  0.71204000  1
  O  O767  1  0.30267000  0.20282000  0.21204000  1
  O  O768  1  0.64167000  0.18962000  0.18598000  1
  O  O769  1  0.35833000  0.18962000  0.68598000  1
  O  O770  1  0.53866000  0.18292000  0.15683000  1
  O  O771  1  0.46134000  0.18292000  0.65683000  1
  O  O772  1  0.75170000  0.18166000  0.27350000  1
  O  O773  1  0.24830000  0.18166000  0.77350000  1
  O  O774  1  0.90636000  0.14323000  0.62132000  1
  O  O775  1  0.09364000  0.14323000  0.12132000  1
  O  O776  1  0.83010000  0.13799000  0.50147000  1
  O  O777  1  0.16990000  0.13799000  0.00147000  1
  O  O778  1  0.76758000  0.10300000  0.28739000  1
  O  O779  1  0.23242000  0.10300000  0.78739000  1
  O  O780  1  0.89120000  0.09515000  0.56402000  1
  O  O781  1  0.10880000  0.09515000  0.06402000  1
  O  O782  1  0.75570000  0.08874000  0.44587000  1
  O  O783  1  0.24430000  0.08874000  0.94587000  1
  O  O784  1  0.91640000  0.07610000  0.87845000  1
  O  O785  1  0.08360000  0.07610000  0.37845000  1
  O  O786  1  0.88570000  0.05138000  0.30345000  1
  O  O787  1  0.11430000  0.05138000  0.80345000  1
  O  O788  1  0.66460000  0.04185000  0.28150000  1
  O  O789  1  0.33540000  0.04185000  0.78150000  1
  O  O790  1  0.63620000  0.04000000  0.77560000  1
  O  O791  1  0.36380000  0.04000000  0.27560000  1
