# generated using pymatgen
data_Zn5H34C36N12O13
_symmetry_space_group_name_H-M   'P 1'
_cell_length_a   15.47750000
_cell_length_b   19.13130000
_cell_length_c   25.54400000
_cell_angle_alpha   90.00000000
_cell_angle_beta   90.00000000
_cell_angle_gamma   90.00000000
_symmetry_Int_Tables_number   1
_chemical_formula_structural   Zn5H34C36N12O13
_chemical_formula_sum   'Zn20 H136 C144 N48 O52'
_cell_volume   7563.69834824
_cell_formula_units_Z   4
loop_
 _symmetry_equiv_pos_site_id
 _symmetry_equiv_pos_as_xyz
  1  'x, y, z'
loop_
 _atom_site_type_symbol
 _atom_site_label
 _atom_site_symmetry_multiplicity
 _atom_site_fract_x
 _atom_site_fract_y
 _atom_site_fract_z
 _atom_site_occupancy
  Zn  Zn0  1  0.01766000  0.46935000  0.79982000  1
  Zn  Zn1  1  0.04100000  0.03939000  0.79745000  1
  Zn  Zn2  1  0.05674000  0.33872000  0.01702000  1
  Zn  Zn3  1  0.06597000  0.16293000  0.01801000  1
  Zn  Zn4  1  0.19164000  0.25896000  0.94199000  1
  Zn  Zn5  1  0.30836000  0.74104000  0.44199000  1
  Zn  Zn6  1  0.43403000  0.83707000  0.51801000  1
  Zn  Zn7  1  0.44326000  0.66128000  0.51702000  1
  Zn  Zn8  1  0.45900000  0.96061000  0.29745000  1
  Zn  Zn9  1  0.48234000  0.53065000  0.29982000  1
  Zn  Zn10  1  0.51766000  0.03065000  0.20018000  1
  Zn  Zn11  1  0.54100000  0.46061000  0.20255000  1
  Zn  Zn12  1  0.55674000  0.16128000  0.98298000  1
  Zn  Zn13  1  0.56597000  0.33707000  0.98199000  1
  Zn  Zn14  1  0.69164000  0.24104000  0.05801000  1
  Zn  Zn15  1  0.80836000  0.75896000  0.55801000  1
  Zn  Zn16  1  0.93403000  0.66293000  0.48199000  1
  Zn  Zn17  1  0.94326000  0.83872000  0.48298000  1
  Zn  Zn18  1  0.95900000  0.53939000  0.70255000  1
  Zn  Zn19  1  0.98234000  0.96935000  0.70018000  1
  H  H20  1  0.00010000  0.64990000  0.89970000  1
  H  H21  1  0.00530000  0.97140000  0.24130000  1
  H  H22  1  0.01030000  0.25530000  0.73710000  1
  H  H23  1  0.01090000  0.98630000  0.92820000  1
  H  H24  1  0.01140000  0.71770000  0.98070000  1
  H  H25  1  0.01600000  0.79550000  0.97980000  1
  H  H26  1  0.02350000  0.85960000  0.89820000  1
  H  H27  1  0.02950000  0.54210000  0.53410000  1
  H  H28  1  0.03500000  0.44050000  0.16950000  1
  H  H29  1  0.03770000  0.84410000  0.16540000  1
  H  H30  1  0.04250000  0.96980000  0.53250000  1
  H  H31  1  0.04410000  0.00650000  0.58740000  1
  H  H32  1  0.04710000  0.95170000  0.11390000  1
  H  H33  1  0.06160000  0.49000000  0.29830000  1
  H  H34  1  0.06450000  0.53430000  0.59130000  1
  H  H35  1  0.09860000  0.93860000  0.57800000  1
  H  H36  1  0.10530000  0.82550000  0.20450000  1
  H  H37  1  0.10800000  0.58480000  0.45090000  1
  H  H38  1  0.11490000  0.90430000  0.45920000  1
  H  H39  1  0.15410000  0.18390000  0.79180000  1
  H  H40  1  0.15630000  0.34670000  0.79200000  1
  H  H41  1  0.17400000  0.24590000  0.03250000  1
  H  H42  1  0.18530000  0.60150000  0.48860000  1
  H  H43  1  0.19100000  0.88070000  0.42280000  1
  H  H44  1  0.19710000  0.60860000  0.42790000  1
  H  H45  1  0.20380000  0.88210000  0.48360000  1
  H  H46  1  0.21250000  0.48770000  0.27660000  1
  H  H47  1  0.21360000  0.56020000  0.63040000  1
  H  H48  1  0.22260000  0.40020000  0.81530000  1
  H  H49  1  0.22620000  0.13020000  0.80740000  1
  H  H50  1  0.22650000  0.32140000  0.83200000  1
  H  H51  1  0.22680000  0.89810000  0.22060000  1
  H  H52  1  0.22720000  0.20590000  0.83090000  1
  H  H53  1  0.24870000  0.92190000  0.63990000  1
  H  H54  1  0.25130000  0.07810000  0.13990000  1
  H  H55  1  0.27280000  0.79410000  0.33090000  1
  H  H56  1  0.27320000  0.10190000  0.72060000  1
  H  H57  1  0.27350000  0.67860000  0.33200000  1
  H  H58  1  0.27380000  0.86980000  0.30740000  1
  H  H59  1  0.27740000  0.59980000  0.31530000  1
  H  H60  1  0.28640000  0.43980000  0.13040000  1
  H  H61  1  0.28750000  0.51230000  0.77660000  1
  H  H62  1  0.29620000  0.11790000  0.98360000  1
  H  H63  1  0.30290000  0.39140000  0.92790000  1
  H  H64  1  0.30900000  0.11930000  0.92280000  1
  H  H65  1  0.31470000  0.39850000  0.98860000  1
  H  H66  1  0.32600000  0.75410000  0.53250000  1
  H  H67  1  0.34370000  0.65330000  0.29200000  1
  H  H68  1  0.34590000  0.81610000  0.29180000  1
  H  H69  1  0.38510000  0.09570000  0.95920000  1
  H  H70  1  0.39200000  0.41520000  0.95090000  1
  H  H71  1  0.39470000  0.17450000  0.70450000  1
  H  H72  1  0.40140000  0.06140000  0.07800000  1
  H  H73  1  0.43550000  0.46570000  0.09130000  1
  H  H74  1  0.43840000  0.51000000  0.79830000  1
  H  H75  1  0.45290000  0.04830000  0.61390000  1
  H  H76  1  0.45590000  0.99350000  0.08740000  1
  H  H77  1  0.45750000  0.03020000  0.03250000  1
  H  H78  1  0.46230000  0.15590000  0.66540000  1
  H  H79  1  0.46500000  0.55950000  0.66950000  1
  H  H80  1  0.47050000  0.45790000  0.03410000  1
  H  H81  1  0.47650000  0.14040000  0.39820000  1
  H  H82  1  0.48400000  0.20450000  0.47980000  1
  H  H83  1  0.48860000  0.28230000  0.48070000  1
  H  H84  1  0.48910000  0.01370000  0.42820000  1
  H  H85  1  0.48970000  0.74470000  0.23710000  1
  H  H86  1  0.49470000  0.02860000  0.74130000  1
  H  H87  1  0.49990000  0.35010000  0.39970000  1
  H  H88  1  0.50010000  0.85010000  0.10030000  1
  H  H89  1  0.50530000  0.52860000  0.75870000  1
  H  H90  1  0.51030000  0.24470000  0.26290000  1
  H  H91  1  0.51090000  0.51370000  0.07180000  1
  H  H92  1  0.51140000  0.78230000  0.01930000  1
  H  H93  1  0.51600000  0.70450000  0.02020000  1
  H  H94  1  0.52350000  0.64040000  0.10180000  1
  H  H95  1  0.52950000  0.95790000  0.46590000  1
  H  H96  1  0.53500000  0.05950000  0.83050000  1
  H  H97  1  0.53770000  0.65590000  0.83460000  1
  H  H98  1  0.54250000  0.53020000  0.46750000  1
  H  H99  1  0.54410000  0.49350000  0.41260000  1
  H  H100  1  0.54710000  0.54830000  0.88610000  1
  H  H101  1  0.56160000  0.01000000  0.70170000  1
  H  H102  1  0.56450000  0.96570000  0.40870000  1
  H  H103  1  0.59860000  0.56140000  0.42200000  1
  H  H104  1  0.60530000  0.67450000  0.79550000  1
  H  H105  1  0.60800000  0.91520000  0.54910000  1
  H  H106  1  0.61490000  0.59570000  0.54080000  1
  H  H107  1  0.65410000  0.31610000  0.20820000  1
  H  H108  1  0.65630000  0.15330000  0.20800000  1
  H  H109  1  0.67400000  0.25410000  0.96750000  1
  H  H110  1  0.68530000  0.89850000  0.51140000  1
  H  H111  1  0.69100000  0.61930000  0.57720000  1
  H  H112  1  0.69710000  0.89140000  0.57210000  1
  H  H113  1  0.70380000  0.61790000  0.51640000  1
  H  H114  1  0.71250000  0.01230000  0.72340000  1
  H  H115  1  0.71360000  0.93980000  0.36960000  1
  H  H116  1  0.72260000  0.09980000  0.18470000  1
  H  H117  1  0.72620000  0.36980000  0.19260000  1
  H  H118  1  0.72650000  0.17860000  0.16800000  1
  H  H119  1  0.72680000  0.60190000  0.77940000  1
  H  H120  1  0.72720000  0.29410000  0.16910000  1
  H  H121  1  0.74870000  0.57810000  0.36010000  1
  H  H122  1  0.75130000  0.42190000  0.86010000  1
  H  H123  1  0.77280000  0.70590000  0.66910000  1
  H  H124  1  0.77320000  0.39810000  0.27940000  1
  H  H125  1  0.77350000  0.82140000  0.66800000  1
  H  H126  1  0.77380000  0.63020000  0.69260000  1
  H  H127  1  0.77740000  0.90020000  0.68470000  1
  H  H128  1  0.78640000  0.06020000  0.86960000  1
  H  H129  1  0.78750000  0.98770000  0.22340000  1
  H  H130  1  0.79620000  0.38210000  0.01640000  1
  H  H131  1  0.80290000  0.10860000  0.07210000  1
  H  H132  1  0.80900000  0.38070000  0.07720000  1
  H  H133  1  0.81470000  0.10150000  0.01140000  1
  H  H134  1  0.82600000  0.74590000  0.46750000  1
  H  H135  1  0.84370000  0.84670000  0.70800000  1
  H  H136  1  0.84590000  0.68390000  0.70820000  1
  H  H137  1  0.88510000  0.40430000  0.04080000  1
  H  H138  1  0.89200000  0.08480000  0.04910000  1
  H  H139  1  0.89470000  0.32550000  0.29550000  1
  H  H140  1  0.90140000  0.43860000  0.92200000  1
  H  H141  1  0.93550000  0.03430000  0.90870000  1
  H  H142  1  0.93840000  0.99000000  0.20170000  1
  H  H143  1  0.95290000  0.45170000  0.38610000  1
  H  H144  1  0.95590000  0.50650000  0.91260000  1
  H  H145  1  0.95750000  0.46980000  0.96750000  1
  H  H146  1  0.96230000  0.34410000  0.33460000  1
  H  H147  1  0.96500000  0.94050000  0.33050000  1
  H  H148  1  0.97050000  0.04210000  0.96590000  1
  H  H149  1  0.97650000  0.35960000  0.60180000  1
  H  H150  1  0.98400000  0.29550000  0.52020000  1
  H  H151  1  0.98860000  0.21770000  0.51930000  1
  H  H152  1  0.98910000  0.48630000  0.57180000  1
  H  H153  1  0.98970000  0.75530000  0.76290000  1
  H  H154  1  0.99470000  0.47140000  0.25870000  1
  H  H155  1  0.99990000  0.14990000  0.60030000  1
  C  C156  1  0.00060000  0.69190000  0.88130000  1
  C  C157  1  0.00380000  0.25510000  0.70090000  1
  C  C158  1  0.00500000  0.19190000  0.67330000  1
  C  C159  1  0.00690000  0.75530000  0.90820000  1
  C  C160  1  0.00710000  0.81760000  0.82610000  1
  C  C161  1  0.00900000  0.12410000  0.70130000  1
  C  C162  1  0.01120000  0.88580000  0.79710000  1
  C  C163  1  0.01390000  0.53220000  0.56970000  1
  C  C164  1  0.01410000  0.81790000  0.88050000  1
  C  C165  1  0.02850000  0.41900000  0.91340000  1
  C  C166  1  0.04570000  0.96230000  0.56960000  1
  C  C167  1  0.05070000  0.08510000  0.91170000  1
  C  C168  1  0.09250000  0.44690000  0.17870000  1
  C  C169  1  0.09790000  0.96140000  0.13190000  1
  C  C170  1  0.10900000  0.07230000  0.08170000  1
  C  C171  1  0.11330000  0.46580000  0.22970000  1
  C  C172  1  0.12870000  0.37390000  0.86650000  1
  C  C173  1  0.12890000  0.91420000  0.16970000  1
  C  C174  1  0.12910000  0.68820000  0.45920000  1
  C  C175  1  0.13290000  0.79960000  0.45920000  1
  C  C176  1  0.13450000  0.41410000  0.08690000  1
  C  C177  1  0.13670000  0.14370000  0.86460000  1
  C  C178  1  0.14320000  0.02290000  0.12130000  1
  C  C179  1  0.14440000  0.52490000  0.72170000  1
  C  C180  1  0.15600000  0.43750000  0.14180000  1
  C  C181  1  0.15740000  0.61430000  0.45640000  1
  C  C182  1  0.16340000  0.87320000  0.45590000  1
  C  C183  1  0.16410000  0.99560000  0.71220000  1
  C  C184  1  0.18890000  0.35930000  0.82260000  1
  C  C185  1  0.19090000  0.16810000  0.81960000  1
  C  C186  1  0.19820000  0.47500000  0.24250000  1
  C  C187  1  0.20560000  0.92920000  0.19570000  1
  C  C188  1  0.22070000  0.03750000  0.14750000  1
  C  C189  1  0.23660000  0.53420000  0.70620000  1
  C  C190  1  0.24310000  0.44650000  0.15510000  1
  C  C191  1  0.24850000  0.00910000  0.68470000  1
  C  C192  1  0.25150000  0.99090000  0.18470000  1
  C  C193  1  0.25690000  0.55350000  0.65510000  1
  C  C194  1  0.26340000  0.46580000  0.20620000  1
  C  C195  1  0.27930000  0.96250000  0.64750000  1
  C  C196  1  0.29440000  0.07080000  0.69570000  1
  C  C197  1  0.30180000  0.52500000  0.74250000  1
  C  C198  1  0.30910000  0.83190000  0.31960000  1
  C  C199  1  0.31110000  0.64070000  0.32260000  1
  C  C200  1  0.33590000  0.00440000  0.21220000  1
  C  C201  1  0.33660000  0.12680000  0.95590000  1
  C  C202  1  0.34260000  0.38570000  0.95640000  1
  C  C203  1  0.34400000  0.56250000  0.64180000  1
  C  C204  1  0.35560000  0.47510000  0.22170000  1
  C  C205  1  0.35680000  0.97710000  0.62130000  1
  C  C206  1  0.36330000  0.85630000  0.36460000  1
  C  C207  1  0.36550000  0.58590000  0.58690000  1
  C  C208  1  0.36710000  0.20040000  0.95920000  1
  C  C209  1  0.37090000  0.31180000  0.95920000  1
  C  C210  1  0.37110000  0.08580000  0.66970000  1
  C  C211  1  0.37130000  0.62610000  0.36650000  1
  C  C212  1  0.38670000  0.53420000  0.72970000  1
  C  C213  1  0.39100000  0.92770000  0.58170000  1
  C  C214  1  0.40210000  0.03860000  0.63190000  1
  C  C215  1  0.40750000  0.55310000  0.67870000  1
  C  C216  1  0.44930000  0.91490000  0.41170000  1
  C  C217  1  0.45430000  0.03770000  0.06960000  1
  C  C218  1  0.47150000  0.58100000  0.41340000  1
  C  C219  1  0.48590000  0.18210000  0.38050000  1
  C  C220  1  0.48610000  0.46780000  0.06970000  1
  C  C221  1  0.48880000  0.11420000  0.29710000  1
  C  C222  1  0.49100000  0.87590000  0.20130000  1
  C  C223  1  0.49290000  0.18240000  0.32610000  1
  C  C224  1  0.49310000  0.24470000  0.40820000  1
  C  C225  1  0.49500000  0.80810000  0.17330000  1
  C  C226  1  0.49620000  0.74490000  0.20090000  1
  C  C227  1  0.49940000  0.30810000  0.38130000  1
  C  C228  1  0.50060000  0.80810000  0.11870000  1
  C  C229  1  0.50380000  0.24490000  0.29910000  1
  C  C230  1  0.50500000  0.30810000  0.32670000  1
  C  C231  1  0.50690000  0.74470000  0.09180000  1
  C  C232  1  0.50710000  0.68240000  0.17390000  1
  C  C233  1  0.50900000  0.37590000  0.29870000  1
  C  C234  1  0.51120000  0.61420000  0.20290000  1
  C  C235  1  0.51390000  0.96780000  0.43030000  1
  C  C236  1  0.51410000  0.68210000  0.11950000  1
  C  C237  1  0.52850000  0.08100000  0.08660000  1
  C  C238  1  0.54570000  0.53770000  0.43040000  1
  C  C239  1  0.55070000  0.41490000  0.08830000  1
  C  C240  1  0.59250000  0.05310000  0.82130000  1
  C  C241  1  0.59790000  0.53860000  0.86810000  1
  C  C242  1  0.60900000  0.42770000  0.91830000  1
  C  C243  1  0.61330000  0.03420000  0.77030000  1
  C  C244  1  0.62870000  0.12610000  0.13350000  1
  C  C245  1  0.62890000  0.58580000  0.83030000  1
  C  C246  1  0.62910000  0.81180000  0.54080000  1
  C  C247  1  0.63290000  0.70040000  0.54080000  1
  C  C248  1  0.63450000  0.08590000  0.91310000  1
  C  C249  1  0.63670000  0.35630000  0.13540000  1
  C  C250  1  0.64320000  0.47710000  0.87870000  1
  C  C251  1  0.64440000  0.97510000  0.27830000  1
  C  C252  1  0.65600000  0.06250000  0.85820000  1
  C  C253  1  0.65740000  0.88570000  0.54360000  1
  C  C254  1  0.66340000  0.62680000  0.54410000  1
  C  C255  1  0.66410000  0.50440000  0.28780000  1
  C  C256  1  0.68890000  0.14070000  0.17740000  1
  C  C257  1  0.69090000  0.33190000  0.18040000  1
  C  C258  1  0.69820000  0.02500000  0.75750000  1
  C  C259  1  0.70560000  0.57080000  0.80430000  1
  C  C260  1  0.72070000  0.46250000  0.85250000  1
  C  C261  1  0.73660000  0.96580000  0.29380000  1
  C  C262  1  0.74310000  0.05350000  0.84490000  1
  C  C263  1  0.74850000  0.49090000  0.31530000  1
  C  C264  1  0.75150000  0.50910000  0.81530000  1
  C  C265  1  0.75690000  0.94650000  0.34490000  1
  C  C266  1  0.76340000  0.03420000  0.79380000  1
  C  C267  1  0.77930000  0.53750000  0.35250000  1
  C  C268  1  0.79440000  0.42920000  0.30430000  1
  C  C269  1  0.80180000  0.97500000  0.25750000  1
  C  C270  1  0.80910000  0.66810000  0.68040000  1
  C  C271  1  0.81110000  0.85930000  0.67740000  1
  C  C272  1  0.83590000  0.49560000  0.78780000  1
  C  C273  1  0.83660000  0.37320000  0.04410000  1
  C  C274  1  0.84260000  0.11430000  0.04360000  1
  C  C275  1  0.84400000  0.93750000  0.35820000  1
  C  C276  1  0.85560000  0.02490000  0.77830000  1
  C  C277  1  0.85680000  0.52290000  0.37870000  1
  C  C278  1  0.86330000  0.64370000  0.63540000  1
  C  C279  1  0.86550000  0.91410000  0.41310000  1
  C  C280  1  0.86710000  0.29960000  0.04080000  1
  C  C281  1  0.87090000  0.18820000  0.04080000  1
  C  C282  1  0.87110000  0.41420000  0.33030000  1
  C  C283  1  0.87130000  0.87390000  0.63350000  1
  C  C284  1  0.88670000  0.96580000  0.27030000  1
  C  C285  1  0.89100000  0.57230000  0.41830000  1
  C  C286  1  0.90210000  0.46140000  0.36810000  1
  C  C287  1  0.90750000  0.94690000  0.32130000  1
  C  C288  1  0.94930000  0.58510000  0.58830000  1
  C  C289  1  0.95430000  0.46230000  0.93040000  1
  C  C290  1  0.97150000  0.91900000  0.58660000  1
  C  C291  1  0.98590000  0.31790000  0.61950000  1
  C  C292  1  0.98610000  0.03220000  0.93030000  1
  C  C293  1  0.98880000  0.38580000  0.70290000  1
  C  C294  1  0.99100000  0.62410000  0.79870000  1
  C  C295  1  0.99290000  0.31760000  0.67390000  1
  C  C296  1  0.99310000  0.25530000  0.59180000  1
  C  C297  1  0.99500000  0.69190000  0.82670000  1
  C  C298  1  0.99620000  0.75510000  0.79910000  1
  C  C299  1  0.99940000  0.19190000  0.61870000  1
  N  N300  1  0.01210000  0.75630000  0.96340000  1
  N  N301  1  0.04810000  0.47720000  0.26710000  1
  N  N302  1  0.05040000  0.71000000  0.47170000  1
  N  N303  1  0.05290000  0.78210000  0.47190000  1
  N  N304  1  0.06420000  0.42070000  0.86480000  1
  N  N305  1  0.06850000  0.37320000  0.94280000  1
  N  N306  1  0.08230000  0.08920000  0.86310000  1
  N  N307  1  0.08310000  0.13410000  0.94270000  1
  N  N308  1  0.08520000  0.85370000  0.18130000  1
  N  N309  1  0.13350000  0.34350000  0.91290000  1
  N  N310  1  0.13900000  0.17250000  0.91170000  1
  N  N311  1  0.18220000  0.74320000  0.45070000  1
  N  N312  1  0.31780000  0.25680000  0.95070000  1
  N  N313  1  0.36100000  0.82750000  0.41170000  1
  N  N314  1  0.36650000  0.65650000  0.41290000  1
  N  N315  1  0.41480000  0.14630000  0.68130000  1
  N  N316  1  0.41690000  0.86590000  0.44270000  1
  N  N317  1  0.41770000  0.91080000  0.36310000  1
  N  N318  1  0.43150000  0.62680000  0.44280000  1
  N  N319  1  0.43580000  0.57930000  0.36480000  1
  N  N320  1  0.44710000  0.21790000  0.97190000  1
  N  N321  1  0.44960000  0.29000000  0.97170000  1
  N  N322  1  0.45190000  0.52280000  0.76710000  1
  N  N323  1  0.48790000  0.24370000  0.46340000  1
  N  N324  1  0.51210000  0.74370000  0.03660000  1
  N  N325  1  0.54810000  0.02280000  0.73290000  1
  N  N326  1  0.55040000  0.79000000  0.52830000  1
  N  N327  1  0.55290000  0.71790000  0.52810000  1
  N  N328  1  0.56420000  0.07930000  0.13520000  1
  N  N329  1  0.56850000  0.12680000  0.05720000  1
  N  N330  1  0.58230000  0.41080000  0.13690000  1
  N  N331  1  0.58310000  0.36590000  0.05730000  1
  N  N332  1  0.58520000  0.64630000  0.81870000  1
  N  N333  1  0.63350000  0.15650000  0.08710000  1
  N  N334  1  0.63900000  0.32750000  0.08830000  1
  N  N335  1  0.68220000  0.75680000  0.54930000  1
  N  N336  1  0.81780000  0.24320000  0.04930000  1
  N  N337  1  0.86100000  0.67250000  0.58830000  1
  N  N338  1  0.86650000  0.84350000  0.58710000  1
  N  N339  1  0.91480000  0.35370000  0.31870000  1
  N  N340  1  0.91690000  0.63410000  0.55730000  1
  N  N341  1  0.91770000  0.58920000  0.63690000  1
  N  N342  1  0.93150000  0.87320000  0.55720000  1
  N  N343  1  0.93580000  0.92070000  0.63520000  1
  N  N344  1  0.94710000  0.28210000  0.02810000  1
  N  N345  1  0.94960000  0.21000000  0.02830000  1
  N  N346  1  0.95190000  0.97720000  0.23290000  1
  N  N347  1  0.98790000  0.25630000  0.53660000  1
  O  O348  1  0.00580000  0.06950000  0.67450000  1
  O  O349  1  0.01650000  0.12560000  0.75070000  1
  O  O350  1  0.01980000  0.38680000  0.74880000  1
  O  O351  1  0.04080000  0.05990000  0.05680000  1
  O  O352  1  0.04510000  0.93700000  0.82020000  1
  O  O353  1  0.05540000  0.39420000  0.07970000  1
  O  O354  1  0.08810000  0.53690000  0.68770000  1
  O  O355  1  0.11320000  0.95400000  0.69080000  1
  O  O356  1  0.13010000  0.50450000  0.76780000  1
  O  O357  1  0.13360000  0.25570000  0.01107000  1
  O  O358  1  0.15010000  0.12760000  0.07290000  1
  O  O359  1  0.15150000  0.02880000  0.75400000  1
  O  O360  1  0.18900000  0.41190000  0.05210000  1
  O  O361  1  0.31100000  0.58810000  0.55210000  1
  O  O362  1  0.34850000  0.97120000  0.25400000  1
  O  O363  1  0.34990000  0.87240000  0.57290000  1
  O  O364  1  0.36640000  0.74430000  0.51107000  1
  O  O365  1  0.36990000  0.49550000  0.26780000  1
  O  O366  1  0.38680000  0.04600000  0.19080000  1
  O  O367  1  0.41190000  0.46310000  0.18770000  1
  O  O368  1  0.44460000  0.60580000  0.57970000  1
  O  O369  1  0.45490000  0.06300000  0.32020000  1
  O  O370  1  0.45920000  0.94010000  0.55680000  1
  O  O371  1  0.48020000  0.61320000  0.24880000  1
  O  O372  1  0.48350000  0.87440000  0.25070000  1
  O  O373  1  0.49420000  0.93050000  0.17450000  1
  O  O374  1  0.50580000  0.43050000  0.32550000  1
  O  O375  1  0.51650000  0.37440000  0.24930000  1
  O  O376  1  0.51980000  0.11320000  0.25120000  1
  O  O377  1  0.54080000  0.44010000  0.94320000  1
  O  O378  1  0.54510000  0.56300000  0.17980000  1
  O  O379  1  0.55540000  0.10580000  0.92030000  1
  O  O380  1  0.58810000  0.96310000  0.31230000  1
  O  O381  1  0.61320000  0.54600000  0.30920000  1
  O  O382  1  0.63010000  0.99550000  0.23220000  1
  O  O383  1  0.63360000  0.24430000  0.98893000  1
  O  O384  1  0.65010000  0.37240000  0.92710000  1
  O  O385  1  0.65150000  0.47120000  0.24600000  1
  O  O386  1  0.68900000  0.08810000  0.94790000  1
  O  O387  1  0.81100000  0.91190000  0.44790000  1
  O  O388  1  0.84850000  0.52880000  0.74600000  1
  O  O389  1  0.84990000  0.62760000  0.42710000  1
  O  O390  1  0.86640000  0.75570000  0.48893000  1
  O  O391  1  0.86990000  0.00450000  0.73220000  1
  O  O392  1  0.88680000  0.45400000  0.80920000  1
  O  O393  1  0.91190000  0.03690000  0.81230000  1
  O  O394  1  0.94460000  0.89420000  0.42030000  1
  O  O395  1  0.95490000  0.43700000  0.67980000  1
  O  O396  1  0.95920000  0.55990000  0.44320000  1
  O  O397  1  0.98020000  0.88680000  0.75120000  1
  O  O398  1  0.98350000  0.62560000  0.74930000  1
  O  O399  1  0.99420000  0.56950000  0.82550000  1
