# generated using pymatgen
data_Mn6Cu6B8H288C264(ClO16)3
_symmetry_space_group_name_H-M   'P 1'
_cell_length_a   22.70980000
_cell_length_b   22.70980000
_cell_length_c   22.70980000
_cell_angle_alpha   90.00000000
_cell_angle_beta   90.00000000
_cell_angle_gamma   90.00000000
_symmetry_Int_Tables_number   1
_chemical_formula_structural   Mn6Cu6B8H288C264(ClO16)3
_chemical_formula_sum   'Mn6 Cu6 B8 H288 C264 Cl3 O48'
_cell_volume   11712.23906727
_cell_formula_units_Z   1
loop_
 _symmetry_equiv_pos_site_id
 _symmetry_equiv_pos_as_xyz
  1  'x, y, z'
loop_
 _atom_site_type_symbol
 _atom_site_label
 _atom_site_symmetry_multiplicity
 _atom_site_fract_x
 _atom_site_fract_y
 _atom_site_fract_z
 _atom_site_occupancy
  Mn  Mn0  1  0.00000000  0.38860000  0.50000000  1
  Mn  Mn1  1  0.00000000  0.50000000  0.38860000  1
  Mn  Mn2  1  0.38860000  0.00000000  0.50000000  1
  Mn  Mn3  1  0.38860000  0.50000000  0.00000000  1
  Mn  Mn4  1  0.50000000  0.00000000  0.61140000  1
  Mn  Mn5  1  0.50000000  0.38860000  0.00000000  1
  Cu  Cu6  1  0.00000000  0.50000000  0.61140000  1
  Cu  Cu7  1  0.00000000  0.61140000  0.50000000  1
  Cu  Cu8  1  0.50000000  0.00000000  0.38860000  1
  Cu  Cu9  1  0.50000000  0.61140000  0.00000000  1
  Cu  Cu10  1  0.61140000  0.00000000  0.50000000  1
  Cu  Cu11  1  0.61140000  0.50000000  0.00000000  1
  B  B12  1  0.28660000  0.28660000  0.28660000  1
  B  B13  1  0.28660000  0.28660000  0.71340000  1
  B  B14  1  0.28660000  0.71340000  0.28660000  1
  B  B15  1  0.28660000  0.71340000  0.71340000  1
  B  B16  1  0.71340000  0.28660000  0.28660000  1
  B  B17  1  0.71340000  0.28660000  0.71340000  1
  B  B18  1  0.71340000  0.71340000  0.28660000  1
  B  B19  1  0.71340000  0.71340000  0.71340000  1
  H  H20  1  0.04330000  0.30080000  0.62430000  1
  H  H21  1  0.04330000  0.37570000  0.30080000  1
  H  H22  1  0.04330000  0.62430000  0.69920000  1
  H  H23  1  0.04330000  0.69920000  0.37570000  1
  H  H24  1  0.05790000  0.26380000  0.68070000  1
  H  H25  1  0.05790000  0.31930000  0.26380000  1
  H  H26  1  0.05790000  0.68070000  0.73620000  1
  H  H27  1  0.05790000  0.73620000  0.31930000  1
  H  H28  1  0.07880000  0.24190000  0.61870000  1
  H  H29  1  0.07880000  0.38130000  0.24190000  1
  H  H30  1  0.07880000  0.61870000  0.75810000  1
  H  H31  1  0.07880000  0.75810000  0.38130000  1
  H  H32  1  0.15110000  0.19940000  0.66680000  1
  H  H33  1  0.15110000  0.33320000  0.19940000  1
  H  H34  1  0.15110000  0.66680000  0.80060000  1
  H  H35  1  0.15110000  0.80060000  0.33320000  1
  H  H36  1  0.15260000  0.40770000  0.47350000  1
  H  H37  1  0.15260000  0.47350000  0.59230000  1
  H  H38  1  0.15260000  0.52650000  0.40770000  1
  H  H39  1  0.15260000  0.59230000  0.52650000  1
  H  H40  1  0.15340000  0.21900000  0.73290000  1
  H  H41  1  0.15340000  0.26710000  0.21900000  1
  H  H42  1  0.15340000  0.73290000  0.78100000  1
  H  H43  1  0.15340000  0.78100000  0.26710000  1
  H  H44  1  0.18980000  0.35250000  0.49190000  1
  H  H45  1  0.18980000  0.49190000  0.64750000  1
  H  H46  1  0.18980000  0.50810000  0.35250000  1
  H  H47  1  0.18980000  0.64750000  0.50810000  1
  H  H48  1  0.19940000  0.15110000  0.33320000  1
  H  H49  1  0.19940000  0.33320000  0.84890000  1
  H  H50  1  0.19940000  0.66680000  0.15110000  1
  H  H51  1  0.19940000  0.84890000  0.66680000  1
  H  H52  1  0.20390000  0.21180000  0.30070000  1
  H  H53  1  0.20390000  0.30070000  0.78820000  1
  H  H54  1  0.20390000  0.69930000  0.21180000  1
  H  H55  1  0.20390000  0.78820000  0.69930000  1
  H  H56  1  0.21180000  0.20390000  0.69930000  1
  H  H57  1  0.21180000  0.30070000  0.20390000  1
  H  H58  1  0.21180000  0.69930000  0.79610000  1
  H  H59  1  0.21180000  0.79610000  0.30070000  1
  H  H60  1  0.21900000  0.15340000  0.26710000  1
  H  H61  1  0.21900000  0.26710000  0.84660000  1
  H  H62  1  0.21900000  0.73290000  0.15340000  1
  H  H63  1  0.21900000  0.84660000  0.73290000  1
  H  H64  1  0.22150000  0.40960000  0.46980000  1
  H  H65  1  0.22150000  0.46980000  0.59040000  1
  H  H66  1  0.22150000  0.53020000  0.40960000  1
  H  H67  1  0.22150000  0.59040000  0.53020000  1
  H  H68  1  0.24190000  0.07880000  0.38130000  1
  H  H69  1  0.24190000  0.38130000  0.92120000  1
  H  H70  1  0.24190000  0.61870000  0.07880000  1
  H  H71  1  0.24190000  0.92120000  0.61870000  1
  H  H72  1  0.26380000  0.05790000  0.31930000  1
  H  H73  1  0.26380000  0.31930000  0.94210000  1
  H  H74  1  0.26380000  0.68070000  0.05790000  1
  H  H75  1  0.26380000  0.94210000  0.68070000  1
  H  H76  1  0.26710000  0.15340000  0.78100000  1
  H  H77  1  0.26710000  0.21900000  0.15340000  1
  H  H78  1  0.26710000  0.78100000  0.84660000  1
  H  H79  1  0.26710000  0.84660000  0.21900000  1
  H  H80  1  0.27790000  0.33280000  0.45540000  1
  H  H81  1  0.27790000  0.45540000  0.66720000  1
  H  H82  1  0.27790000  0.54460000  0.33280000  1
  H  H83  1  0.27790000  0.66720000  0.54460000  1
  H  H84  1  0.28300000  0.29840000  0.58770000  1
  H  H85  1  0.28300000  0.41230000  0.29840000  1
  H  H86  1  0.28300000  0.58770000  0.70160000  1
  H  H87  1  0.28300000  0.70160000  0.41230000  1
  H  H88  1  0.29840000  0.28300000  0.41230000  1
  H  H89  1  0.29840000  0.41230000  0.71700000  1
  H  H90  1  0.29840000  0.58770000  0.28300000  1
  H  H91  1  0.29840000  0.71700000  0.58770000  1
  H  H92  1  0.30070000  0.20390000  0.21180000  1
  H  H93  1  0.30070000  0.21180000  0.79610000  1
  H  H94  1  0.30070000  0.78820000  0.20390000  1
  H  H95  1  0.30070000  0.79610000  0.78820000  1
  H  H96  1  0.30080000  0.04330000  0.37570000  1
  H  H97  1  0.30080000  0.37570000  0.95670000  1
  H  H98  1  0.30080000  0.62430000  0.04330000  1
  H  H99  1  0.30080000  0.95670000  0.62430000  1
  H  H100  1  0.31850000  0.34810000  0.40180000  1
  H  H101  1  0.31850000  0.40180000  0.65190000  1
  H  H102  1  0.31850000  0.59820000  0.34810000  1
  H  H103  1  0.31850000  0.65190000  0.59820000  1
  H  H104  1  0.31930000  0.05790000  0.73620000  1
  H  H105  1  0.31930000  0.26380000  0.05790000  1
  H  H106  1  0.31930000  0.73620000  0.94210000  1
  H  H107  1  0.31930000  0.94210000  0.26380000  1
  H  H108  1  0.33280000  0.27790000  0.54460000  1
  H  H109  1  0.33280000  0.45540000  0.27790000  1
  H  H110  1  0.33280000  0.54460000  0.72210000  1
  H  H111  1  0.33280000  0.72210000  0.45540000  1
  H  H112  1  0.33320000  0.15110000  0.80060000  1
  H  H113  1  0.33320000  0.19940000  0.15110000  1
  H  H114  1  0.33320000  0.80060000  0.84890000  1
  H  H115  1  0.33320000  0.84890000  0.19940000  1
  H  H116  1  0.34810000  0.31850000  0.59820000  1
  H  H117  1  0.34810000  0.40180000  0.31850000  1
  H  H118  1  0.34810000  0.59820000  0.68150000  1
  H  H119  1  0.34810000  0.68150000  0.40180000  1
  H  H120  1  0.35250000  0.18980000  0.50810000  1
  H  H121  1  0.35250000  0.49190000  0.18980000  1
  H  H122  1  0.35250000  0.50810000  0.81020000  1
  H  H123  1  0.35250000  0.81020000  0.49190000  1
  H  H124  1  0.37570000  0.04330000  0.69920000  1
  H  H125  1  0.37570000  0.30080000  0.04330000  1
  H  H126  1  0.37570000  0.69920000  0.95670000  1
  H  H127  1  0.37570000  0.95670000  0.30080000  1
  H  H128  1  0.38130000  0.07880000  0.75810000  1
  H  H129  1  0.38130000  0.24190000  0.07880000  1
  H  H130  1  0.38130000  0.75810000  0.92120000  1
  H  H131  1  0.38130000  0.92120000  0.24190000  1
  H  H132  1  0.40180000  0.31850000  0.34810000  1
  H  H133  1  0.40180000  0.34810000  0.68150000  1
  H  H134  1  0.40180000  0.65190000  0.31850000  1
  H  H135  1  0.40180000  0.68150000  0.65190000  1
  H  H136  1  0.40770000  0.15260000  0.52650000  1
  H  H137  1  0.40770000  0.47350000  0.15260000  1
  H  H138  1  0.40770000  0.52650000  0.84740000  1
  H  H139  1  0.40770000  0.84740000  0.47350000  1
  H  H140  1  0.40960000  0.22150000  0.53020000  1
  H  H141  1  0.40960000  0.46980000  0.22150000  1
  H  H142  1  0.40960000  0.53020000  0.77850000  1
  H  H143  1  0.40960000  0.77850000  0.46980000  1
  H  H144  1  0.41230000  0.28300000  0.70160000  1
  H  H145  1  0.41230000  0.29840000  0.28300000  1
  H  H146  1  0.41230000  0.70160000  0.71700000  1
  H  H147  1  0.41230000  0.71700000  0.29840000  1
  H  H148  1  0.45540000  0.27790000  0.33280000  1
  H  H149  1  0.45540000  0.33280000  0.72210000  1
  H  H150  1  0.45540000  0.66720000  0.27790000  1
  H  H151  1  0.45540000  0.72210000  0.66720000  1
  H  H152  1  0.46980000  0.22150000  0.40960000  1
  H  H153  1  0.46980000  0.40960000  0.77850000  1
  H  H154  1  0.46980000  0.59040000  0.22150000  1
  H  H155  1  0.46980000  0.77850000  0.59040000  1
  H  H156  1  0.47350000  0.15260000  0.40770000  1
  H  H157  1  0.47350000  0.40770000  0.84740000  1
  H  H158  1  0.47350000  0.59230000  0.15260000  1
  H  H159  1  0.47350000  0.84740000  0.59230000  1
  H  H160  1  0.49190000  0.18980000  0.35250000  1
  H  H161  1  0.49190000  0.35250000  0.81020000  1
  H  H162  1  0.49190000  0.64750000  0.18980000  1
  H  H163  1  0.49190000  0.81020000  0.64750000  1
  H  H164  1  0.50810000  0.18980000  0.64750000  1
  H  H165  1  0.50810000  0.35250000  0.18980000  1
  H  H166  1  0.50810000  0.64750000  0.81020000  1
  H  H167  1  0.50810000  0.81020000  0.35250000  1
  H  H168  1  0.52650000  0.15260000  0.59230000  1
  H  H169  1  0.52650000  0.40770000  0.15260000  1
  H  H170  1  0.52650000  0.59230000  0.84740000  1
  H  H171  1  0.52650000  0.84740000  0.40770000  1
  H  H172  1  0.53020000  0.22150000  0.59040000  1
  H  H173  1  0.53020000  0.40960000  0.22150000  1
  H  H174  1  0.53020000  0.59040000  0.77850000  1
  H  H175  1  0.53020000  0.77850000  0.40960000  1
  H  H176  1  0.54460000  0.27790000  0.66720000  1
  H  H177  1  0.54460000  0.33280000  0.27790000  1
  H  H178  1  0.54460000  0.66720000  0.72210000  1
  H  H179  1  0.54460000  0.72210000  0.33280000  1
  H  H180  1  0.58770000  0.28300000  0.29840000  1
  H  H181  1  0.58770000  0.29840000  0.71700000  1
  H  H182  1  0.58770000  0.70160000  0.28300000  1
  H  H183  1  0.58770000  0.71700000  0.70160000  1
  H  H184  1  0.59040000  0.22150000  0.46980000  1
  H  H185  1  0.59040000  0.46980000  0.77850000  1
  H  H186  1  0.59040000  0.53020000  0.22150000  1
  H  H187  1  0.59040000  0.77850000  0.53020000  1
  H  H188  1  0.59230000  0.15260000  0.47350000  1
  H  H189  1  0.59230000  0.47350000  0.84740000  1
  H  H190  1  0.59230000  0.52650000  0.15260000  1
  H  H191  1  0.59230000  0.84740000  0.52650000  1
  H  H192  1  0.59820000  0.31850000  0.65190000  1
  H  H193  1  0.59820000  0.34810000  0.31850000  1
  H  H194  1  0.59820000  0.65190000  0.68150000  1
  H  H195  1  0.59820000  0.68150000  0.34810000  1
  H  H196  1  0.61870000  0.07880000  0.24190000  1
  H  H197  1  0.61870000  0.24190000  0.92120000  1
  H  H198  1  0.61870000  0.75810000  0.07880000  1
  H  H199  1  0.61870000  0.92120000  0.75810000  1
  H  H200  1  0.62430000  0.04330000  0.30080000  1
  H  H201  1  0.62430000  0.30080000  0.95670000  1
  H  H202  1  0.62430000  0.69920000  0.04330000  1
  H  H203  1  0.62430000  0.95670000  0.69920000  1
  H  H204  1  0.64750000  0.18980000  0.49190000  1
  H  H205  1  0.64750000  0.49190000  0.81020000  1
  H  H206  1  0.64750000  0.50810000  0.18980000  1
  H  H207  1  0.64750000  0.81020000  0.50810000  1
  H  H208  1  0.65190000  0.31850000  0.40180000  1
  H  H209  1  0.65190000  0.40180000  0.68150000  1
  H  H210  1  0.65190000  0.59820000  0.31850000  1
  H  H211  1  0.65190000  0.68150000  0.59820000  1
  H  H212  1  0.66680000  0.15110000  0.19940000  1
  H  H213  1  0.66680000  0.19940000  0.84890000  1
  H  H214  1  0.66680000  0.80060000  0.15110000  1
  H  H215  1  0.66680000  0.84890000  0.80060000  1
  H  H216  1  0.66720000  0.27790000  0.45540000  1
  H  H217  1  0.66720000  0.45540000  0.72210000  1
  H  H218  1  0.66720000  0.54460000  0.27790000  1
  H  H219  1  0.66720000  0.72210000  0.54460000  1
  H  H220  1  0.68070000  0.05790000  0.26380000  1
  H  H221  1  0.68070000  0.26380000  0.94210000  1
  H  H222  1  0.68070000  0.73620000  0.05790000  1
  H  H223  1  0.68070000  0.94210000  0.73620000  1
  H  H224  1  0.68150000  0.34810000  0.59820000  1
  H  H225  1  0.68150000  0.40180000  0.34810000  1
  H  H226  1  0.68150000  0.59820000  0.65190000  1
  H  H227  1  0.68150000  0.65190000  0.40180000  1
  H  H228  1  0.69920000  0.04330000  0.62430000  1
  H  H229  1  0.69920000  0.37570000  0.04330000  1
  H  H230  1  0.69920000  0.62430000  0.95670000  1
  H  H231  1  0.69920000  0.95670000  0.37570000  1
  H  H232  1  0.69930000  0.20390000  0.78820000  1
  H  H233  1  0.69930000  0.21180000  0.20390000  1
  H  H234  1  0.69930000  0.78820000  0.79610000  1
  H  H235  1  0.69930000  0.79610000  0.21180000  1
  H  H236  1  0.70160000  0.28300000  0.58770000  1
  H  H237  1  0.70160000  0.41230000  0.28300000  1
  H  H238  1  0.70160000  0.58770000  0.71700000  1
  H  H239  1  0.70160000  0.71700000  0.41230000  1
  H  H240  1  0.71700000  0.29840000  0.41230000  1
  H  H241  1  0.71700000  0.41230000  0.70160000  1
  H  H242  1  0.71700000  0.58770000  0.29840000  1
  H  H243  1  0.71700000  0.70160000  0.58770000  1
  H  H244  1  0.72210000  0.33280000  0.54460000  1
  H  H245  1  0.72210000  0.45540000  0.33280000  1
  H  H246  1  0.72210000  0.54460000  0.66720000  1
  H  H247  1  0.72210000  0.66720000  0.45540000  1
  H  H248  1  0.73290000  0.15340000  0.21900000  1
  H  H249  1  0.73290000  0.21900000  0.84660000  1
  H  H250  1  0.73290000  0.78100000  0.15340000  1
  H  H251  1  0.73290000  0.84660000  0.78100000  1
  H  H252  1  0.73620000  0.05790000  0.68070000  1
  H  H253  1  0.73620000  0.31930000  0.05790000  1
  H  H254  1  0.73620000  0.68070000  0.94210000  1
  H  H255  1  0.73620000  0.94210000  0.31930000  1
  H  H256  1  0.75810000  0.07880000  0.61870000  1
  H  H257  1  0.75810000  0.38130000  0.07880000  1
  H  H258  1  0.75810000  0.61870000  0.92120000  1
  H  H259  1  0.75810000  0.92120000  0.38130000  1
  H  H260  1  0.77850000  0.40960000  0.53020000  1
  H  H261  1  0.77850000  0.46980000  0.40960000  1
  H  H262  1  0.77850000  0.53020000  0.59040000  1
  H  H263  1  0.77850000  0.59040000  0.46980000  1
  H  H264  1  0.78100000  0.15340000  0.73290000  1
  H  H265  1  0.78100000  0.26710000  0.15340000  1
  H  H266  1  0.78100000  0.73290000  0.84660000  1
  H  H267  1  0.78100000  0.84660000  0.26710000  1
  H  H268  1  0.78820000  0.20390000  0.30070000  1
  H  H269  1  0.78820000  0.30070000  0.79610000  1
  H  H270  1  0.78820000  0.69930000  0.20390000  1
  H  H271  1  0.78820000  0.79610000  0.69930000  1
  H  H272  1  0.79610000  0.21180000  0.69930000  1
  H  H273  1  0.79610000  0.30070000  0.21180000  1
  H  H274  1  0.79610000  0.69930000  0.78820000  1
  H  H275  1  0.79610000  0.78820000  0.30070000  1
  H  H276  1  0.80060000  0.15110000  0.66680000  1
  H  H277  1  0.80060000  0.33320000  0.15110000  1
  H  H278  1  0.80060000  0.66680000  0.84890000  1
  H  H279  1  0.80060000  0.84890000  0.33320000  1
  H  H280  1  0.81020000  0.35250000  0.50810000  1
  H  H281  1  0.81020000  0.49190000  0.35250000  1
  H  H282  1  0.81020000  0.50810000  0.64750000  1
  H  H283  1  0.81020000  0.64750000  0.49190000  1
  H  H284  1  0.84660000  0.21900000  0.26710000  1
  H  H285  1  0.84660000  0.26710000  0.78100000  1
  H  H286  1  0.84660000  0.73290000  0.21900000  1
  H  H287  1  0.84660000  0.78100000  0.73290000  1
  H  H288  1  0.84740000  0.40770000  0.52650000  1
  H  H289  1  0.84740000  0.47350000  0.40770000  1
  H  H290  1  0.84740000  0.52650000  0.59230000  1
  H  H291  1  0.84740000  0.59230000  0.47350000  1
  H  H292  1  0.84890000  0.19940000  0.33320000  1
  H  H293  1  0.84890000  0.33320000  0.80060000  1
  H  H294  1  0.84890000  0.66680000  0.19940000  1
  H  H295  1  0.84890000  0.80060000  0.66680000  1
  H  H296  1  0.92120000  0.24190000  0.38130000  1
  H  H297  1  0.92120000  0.38130000  0.75810000  1
  H  H298  1  0.92120000  0.61870000  0.24190000  1
  H  H299  1  0.92120000  0.75810000  0.61870000  1
  H  H300  1  0.94210000  0.26380000  0.31930000  1
  H  H301  1  0.94210000  0.31930000  0.73620000  1
  H  H302  1  0.94210000  0.68070000  0.26380000  1
  H  H303  1  0.94210000  0.73620000  0.68070000  1
  H  H304  1  0.95670000  0.30080000  0.37570000  1
  H  H305  1  0.95670000  0.37570000  0.69920000  1
  H  H306  1  0.95670000  0.62430000  0.30080000  1
  H  H307  1  0.95670000  0.69920000  0.62430000  1
  C  C308  1  0.07200000  0.27600000  0.64280000  1
  C  C309  1  0.07200000  0.35720000  0.27600000  1
  C  C310  1  0.07200000  0.64280000  0.72400000  1
  C  C311  1  0.07200000  0.72400000  0.35720000  1
  C  C312  1  0.08111000  0.39750000  0.39770000  1
  C  C313  1  0.08111000  0.39770000  0.60250000  1
  C  C314  1  0.08111000  0.60230000  0.39750000  1
  C  C315  1  0.08111000  0.60250000  0.60230000  1
  C  C316  1  0.12950000  0.30990000  0.65020000  1
  C  C317  1  0.12950000  0.34980000  0.30990000  1
  C  C318  1  0.12950000  0.65020000  0.69010000  1
  C  C319  1  0.12950000  0.69010000  0.34980000  1
  C  C320  1  0.13300000  0.36850000  0.36890000  1
  C  C321  1  0.13300000  0.36890000  0.63150000  1
  C  C322  1  0.13300000  0.63110000  0.36850000  1
  C  C323  1  0.13300000  0.63150000  0.63110000  1
  C  C324  1  0.17320000  0.22090000  0.69560000  1
  C  C325  1  0.17320000  0.30440000  0.22090000  1
  C  C326  1  0.17320000  0.69560000  0.77910000  1
  C  C327  1  0.17320000  0.77910000  0.30440000  1
  C  C328  1  0.17880000  0.28470000  0.67650000  1
  C  C329  1  0.17880000  0.32350000  0.28470000  1
  C  C330  1  0.17880000  0.67650000  0.71530000  1
  C  C331  1  0.17880000  0.71530000  0.32350000  1
  C  C332  1  0.18460000  0.36210000  0.40180000  1
  C  C333  1  0.18460000  0.40180000  0.63790000  1
  C  C334  1  0.18460000  0.59820000  0.36210000  1
  C  C335  1  0.18460000  0.63790000  0.59820000  1
  C  C336  1  0.18740000  0.38510000  0.46520000  1
  C  C337  1  0.18740000  0.46520000  0.61490000  1
  C  C338  1  0.18740000  0.53480000  0.38510000  1
  C  C339  1  0.18740000  0.61490000  0.53480000  1
  C  C340  1  0.22090000  0.17320000  0.30440000  1
  C  C341  1  0.22090000  0.30440000  0.82680000  1
  C  C342  1  0.22090000  0.69560000  0.17320000  1
  C  C343  1  0.22090000  0.82680000  0.69560000  1
  C  C344  1  0.23028000  0.31510000  0.31600000  1
  C  C345  1  0.23028000  0.31600000  0.68490000  1
  C  C346  1  0.23028000  0.68400000  0.31510000  1
  C  C347  1  0.23028000  0.68490000  0.68400000  1
  C  C348  1  0.23280000  0.33410000  0.37730000  1
  C  C349  1  0.23280000  0.37730000  0.66590000  1
  C  C350  1  0.23280000  0.62270000  0.33410000  1
  C  C351  1  0.23280000  0.66590000  0.62270000  1
  C  C352  1  0.27600000  0.07200000  0.35720000  1
  C  C353  1  0.27600000  0.35720000  0.92800000  1
  C  C354  1  0.27600000  0.64280000  0.07200000  1
  C  C355  1  0.27600000  0.92800000  0.64280000  1
  C  C356  1  0.28470000  0.17880000  0.32350000  1
  C  C357  1  0.28470000  0.32350000  0.82120000  1
  C  C358  1  0.28470000  0.67650000  0.17880000  1
  C  C359  1  0.28470000  0.82120000  0.67650000  1
  C  C360  1  0.28690000  0.32350000  0.41520000  1
  C  C361  1  0.28690000  0.41520000  0.67650000  1
  C  C362  1  0.28690000  0.58480000  0.32350000  1
  C  C363  1  0.28690000  0.67650000  0.58480000  1
  C  C364  1  0.30440000  0.17320000  0.77910000  1
  C  C365  1  0.30440000  0.22090000  0.17320000  1
  C  C366  1  0.30440000  0.77910000  0.82680000  1
  C  C367  1  0.30440000  0.82680000  0.22090000  1
  C  C368  1  0.30990000  0.12950000  0.34980000  1
  C  C369  1  0.30990000  0.34980000  0.87050000  1
  C  C370  1  0.30990000  0.65020000  0.12950000  1
  C  C371  1  0.30990000  0.87050000  0.65020000  1
  C  C372  1  0.31510000  0.23028000  0.68400000  1
  C  C373  1  0.31510000  0.31600000  0.23028000  1
  C  C374  1  0.31510000  0.68400000  0.76972000  1
  C  C375  1  0.31510000  0.76972000  0.31600000  1
  C  C376  1  0.31600000  0.23028000  0.31510000  1
  C  C377  1  0.31600000  0.31510000  0.76972000  1
  C  C378  1  0.31600000  0.68490000  0.23028000  1
  C  C379  1  0.31600000  0.76972000  0.68490000  1
  C  C380  1  0.32350000  0.17880000  0.71530000  1
  C  C381  1  0.32350000  0.28470000  0.17880000  1
  C  C382  1  0.32350000  0.28690000  0.58480000  1
  C  C383  1  0.32350000  0.41520000  0.28690000  1
  C  C384  1  0.32350000  0.58480000  0.71310000  1
  C  C385  1  0.32350000  0.71310000  0.41520000  1
  C  C386  1  0.32350000  0.71530000  0.82120000  1
  C  C387  1  0.32350000  0.82120000  0.28470000  1
  C  C388  1  0.33410000  0.23280000  0.62270000  1
  C  C389  1  0.33410000  0.37730000  0.23280000  1
  C  C390  1  0.33410000  0.62270000  0.76720000  1
  C  C391  1  0.33410000  0.76720000  0.37730000  1
  C  C392  1  0.34980000  0.12950000  0.69010000  1
  C  C393  1  0.34980000  0.30990000  0.12950000  1
  C  C394  1  0.34980000  0.69010000  0.87050000  1
  C  C395  1  0.34980000  0.87050000  0.30990000  1
  C  C396  1  0.35720000  0.07200000  0.72400000  1
  C  C397  1  0.35720000  0.27600000  0.07200000  1
  C  C398  1  0.35720000  0.72400000  0.92800000  1
  C  C399  1  0.35720000  0.92800000  0.27600000  1
  C  C400  1  0.36210000  0.18460000  0.59820000  1
  C  C401  1  0.36210000  0.40180000  0.18460000  1
  C  C402  1  0.36210000  0.59820000  0.81540000  1
  C  C403  1  0.36210000  0.81540000  0.40180000  1
  C  C404  1  0.36850000  0.13300000  0.63110000  1
  C  C405  1  0.36850000  0.36890000  0.13300000  1
  C  C406  1  0.36850000  0.63110000  0.86700000  1
  C  C407  1  0.36850000  0.86700000  0.36890000  1
  C  C408  1  0.36890000  0.13300000  0.36850000  1
  C  C409  1  0.36890000  0.36850000  0.86700000  1
  C  C410  1  0.36890000  0.63150000  0.13300000  1
  C  C411  1  0.36890000  0.86700000  0.63150000  1
  C  C412  1  0.37730000  0.23280000  0.33410000  1
  C  C413  1  0.37730000  0.33410000  0.76720000  1
  C  C414  1  0.37730000  0.66590000  0.23280000  1
  C  C415  1  0.37730000  0.76720000  0.66590000  1
  C  C416  1  0.38510000  0.18740000  0.53480000  1
  C  C417  1  0.38510000  0.46520000  0.18740000  1
  C  C418  1  0.38510000  0.53480000  0.81260000  1
  C  C419  1  0.38510000  0.81260000  0.46520000  1
  C  C420  1  0.39750000  0.08111000  0.60230000  1
  C  C421  1  0.39750000  0.39770000  0.08111000  1
  C  C422  1  0.39750000  0.60230000  0.91889000  1
  C  C423  1  0.39750000  0.91889000  0.39770000  1
  C  C424  1  0.39770000  0.08111000  0.39750000  1
  C  C425  1  0.39770000  0.39750000  0.91889000  1
  C  C426  1  0.39770000  0.60250000  0.08111000  1
  C  C427  1  0.39770000  0.91889000  0.60250000  1
  C  C428  1  0.40180000  0.18460000  0.36210000  1
  C  C429  1  0.40180000  0.36210000  0.81540000  1
  C  C430  1  0.40180000  0.63790000  0.18460000  1
  C  C431  1  0.40180000  0.81540000  0.63790000  1
  C  C432  1  0.41520000  0.28690000  0.32350000  1
  C  C433  1  0.41520000  0.32350000  0.71310000  1
  C  C434  1  0.41520000  0.67650000  0.28690000  1
  C  C435  1  0.41520000  0.71310000  0.67650000  1
  C  C436  1  0.46520000  0.18740000  0.38510000  1
  C  C437  1  0.46520000  0.38510000  0.81260000  1
  C  C438  1  0.46520000  0.61490000  0.18740000  1
  C  C439  1  0.46520000  0.81260000  0.61490000  1
  C  C440  1  0.53480000  0.18740000  0.61490000  1
  C  C441  1  0.53480000  0.38510000  0.18740000  1
  C  C442  1  0.53480000  0.61490000  0.81260000  1
  C  C443  1  0.53480000  0.81260000  0.38510000  1
  C  C444  1  0.58480000  0.28690000  0.67650000  1
  C  C445  1  0.58480000  0.32350000  0.28690000  1
  C  C446  1  0.58480000  0.67650000  0.71310000  1
  C  C447  1  0.58480000  0.71310000  0.32350000  1
  C  C448  1  0.59820000  0.18460000  0.63790000  1
  C  C449  1  0.59820000  0.36210000  0.18460000  1
  C  C450  1  0.59820000  0.63790000  0.81540000  1
  C  C451  1  0.59820000  0.81540000  0.36210000  1
  C  C452  1  0.60230000  0.08111000  0.60250000  1
  C  C453  1  0.60230000  0.39750000  0.08111000  1
  C  C454  1  0.60230000  0.60250000  0.91889000  1
  C  C455  1  0.60230000  0.91889000  0.39750000  1
  C  C456  1  0.60250000  0.08111000  0.39770000  1
  C  C457  1  0.60250000  0.39770000  0.91889000  1
  C  C458  1  0.60250000  0.60230000  0.08111000  1
  C  C459  1  0.60250000  0.91889000  0.60230000  1
  C  C460  1  0.61490000  0.18740000  0.46520000  1
  C  C461  1  0.61490000  0.46520000  0.81260000  1
  C  C462  1  0.61490000  0.53480000  0.18740000  1
  C  C463  1  0.61490000  0.81260000  0.53480000  1
  C  C464  1  0.62270000  0.23280000  0.66590000  1
  C  C465  1  0.62270000  0.33410000  0.23280000  1
  C  C466  1  0.62270000  0.66590000  0.76720000  1
  C  C467  1  0.62270000  0.76720000  0.33410000  1
  C  C468  1  0.63110000  0.13300000  0.63150000  1
  C  C469  1  0.63110000  0.36850000  0.13300000  1
  C  C470  1  0.63110000  0.63150000  0.86700000  1
  C  C471  1  0.63110000  0.86700000  0.36850000  1
  C  C472  1  0.63150000  0.13300000  0.36890000  1
  C  C473  1  0.63150000  0.36890000  0.86700000  1
  C  C474  1  0.63150000  0.63110000  0.13300000  1
  C  C475  1  0.63150000  0.86700000  0.63110000  1
  C  C476  1  0.63790000  0.18460000  0.40180000  1
  C  C477  1  0.63790000  0.40180000  0.81540000  1
  C  C478  1  0.63790000  0.59820000  0.18460000  1
  C  C479  1  0.63790000  0.81540000  0.59820000  1
  C  C480  1  0.64280000  0.07200000  0.27600000  1
  C  C481  1  0.64280000  0.27600000  0.92800000  1
  C  C482  1  0.64280000  0.72400000  0.07200000  1
  C  C483  1  0.64280000  0.92800000  0.72400000  1
  C  C484  1  0.65020000  0.12950000  0.30990000  1
  C  C485  1  0.65020000  0.30990000  0.87050000  1
  C  C486  1  0.65020000  0.69010000  0.12950000  1
  C  C487  1  0.65020000  0.87050000  0.69010000  1
  C  C488  1  0.66590000  0.23280000  0.37730000  1
  C  C489  1  0.66590000  0.37730000  0.76720000  1
  C  C490  1  0.66590000  0.62270000  0.23280000  1
  C  C491  1  0.66590000  0.76720000  0.62270000  1
  C  C492  1  0.67650000  0.17880000  0.28470000  1
  C  C493  1  0.67650000  0.28470000  0.82120000  1
  C  C494  1  0.67650000  0.28690000  0.41520000  1
  C  C495  1  0.67650000  0.41520000  0.71310000  1
  C  C496  1  0.67650000  0.58480000  0.28690000  1
  C  C497  1  0.67650000  0.71310000  0.58480000  1
  C  C498  1  0.67650000  0.71530000  0.17880000  1
  C  C499  1  0.67650000  0.82120000  0.71530000  1
  C  C500  1  0.68400000  0.23028000  0.68490000  1
  C  C501  1  0.68400000  0.31510000  0.23028000  1
  C  C502  1  0.68400000  0.68490000  0.76972000  1
  C  C503  1  0.68400000  0.76972000  0.31510000  1
  C  C504  1  0.68490000  0.23028000  0.31600000  1
  C  C505  1  0.68490000  0.31600000  0.76972000  1
  C  C506  1  0.68490000  0.68400000  0.23028000  1
  C  C507  1  0.68490000  0.76972000  0.68400000  1
  C  C508  1  0.69010000  0.12950000  0.65020000  1
  C  C509  1  0.69010000  0.34980000  0.12950000  1
  C  C510  1  0.69010000  0.65020000  0.87050000  1
  C  C511  1  0.69010000  0.87050000  0.34980000  1
  C  C512  1  0.69560000  0.17320000  0.22090000  1
  C  C513  1  0.69560000  0.22090000  0.82680000  1
  C  C514  1  0.69560000  0.77910000  0.17320000  1
  C  C515  1  0.69560000  0.82680000  0.77910000  1
  C  C516  1  0.71310000  0.32350000  0.58480000  1
  C  C517  1  0.71310000  0.41520000  0.32350000  1
  C  C518  1  0.71310000  0.58480000  0.67650000  1
  C  C519  1  0.71310000  0.67650000  0.41520000  1
  C  C520  1  0.71530000  0.17880000  0.67650000  1
  C  C521  1  0.71530000  0.32350000  0.17880000  1
  C  C522  1  0.71530000  0.67650000  0.82120000  1
  C  C523  1  0.71530000  0.82120000  0.32350000  1
  C  C524  1  0.72400000  0.07200000  0.64280000  1
  C  C525  1  0.72400000  0.35720000  0.07200000  1
  C  C526  1  0.72400000  0.64280000  0.92800000  1
  C  C527  1  0.72400000  0.92800000  0.35720000  1
  C  C528  1  0.76720000  0.33410000  0.62270000  1
  C  C529  1  0.76720000  0.37730000  0.33410000  1
  C  C530  1  0.76720000  0.62270000  0.66590000  1
  C  C531  1  0.76720000  0.66590000  0.37730000  1
  C  C532  1  0.76972000  0.31510000  0.68400000  1
  C  C533  1  0.76972000  0.31600000  0.31510000  1
  C  C534  1  0.76972000  0.68400000  0.68490000  1
  C  C535  1  0.76972000  0.68490000  0.31600000  1
  C  C536  1  0.77910000  0.17320000  0.69560000  1
  C  C537  1  0.77910000  0.30440000  0.17320000  1
  C  C538  1  0.77910000  0.69560000  0.82680000  1
  C  C539  1  0.77910000  0.82680000  0.30440000  1
  C  C540  1  0.81260000  0.38510000  0.53480000  1
  C  C541  1  0.81260000  0.46520000  0.38510000  1
  C  C542  1  0.81260000  0.53480000  0.61490000  1
  C  C543  1  0.81260000  0.61490000  0.46520000  1
  C  C544  1  0.81540000  0.36210000  0.59820000  1
  C  C545  1  0.81540000  0.40180000  0.36210000  1
  C  C546  1  0.81540000  0.59820000  0.63790000  1
  C  C547  1  0.81540000  0.63790000  0.40180000  1
  C  C548  1  0.82120000  0.28470000  0.32350000  1
  C  C549  1  0.82120000  0.32350000  0.71530000  1
  C  C550  1  0.82120000  0.67650000  0.28470000  1
  C  C551  1  0.82120000  0.71530000  0.67650000  1
  C  C552  1  0.82680000  0.22090000  0.30440000  1
  C  C553  1  0.82680000  0.30440000  0.77910000  1
  C  C554  1  0.82680000  0.69560000  0.22090000  1
  C  C555  1  0.82680000  0.77910000  0.69560000  1
  C  C556  1  0.86700000  0.36850000  0.63110000  1
  C  C557  1  0.86700000  0.36890000  0.36850000  1
  C  C558  1  0.86700000  0.63110000  0.63150000  1
  C  C559  1  0.86700000  0.63150000  0.36890000  1
  C  C560  1  0.87050000  0.30990000  0.34980000  1
  C  C561  1  0.87050000  0.34980000  0.69010000  1
  C  C562  1  0.87050000  0.65020000  0.30990000  1
  C  C563  1  0.87050000  0.69010000  0.65020000  1
  C  C564  1  0.91889000  0.39750000  0.60230000  1
  C  C565  1  0.91889000  0.39770000  0.39750000  1
  C  C566  1  0.91889000  0.60230000  0.60250000  1
  C  C567  1  0.91889000  0.60250000  0.39770000  1
  C  C568  1  0.92800000  0.27600000  0.35720000  1
  C  C569  1  0.92800000  0.35720000  0.72400000  1
  C  C570  1  0.92800000  0.64280000  0.27600000  1
  C  C571  1  0.92800000  0.72400000  0.64280000  1
  Cl  Cl572  1  0.00000000  0.50000000  0.50000000  1
  Cl  Cl573  1  0.50000000  0.00000000  0.50000000  1
  Cl  Cl574  1  0.50000000  0.50000000  0.00000000  1
  O  O575  1  0.05242000  0.36914000  0.43359000  1
  O  O576  1  0.05242000  0.43359000  0.63086000  1
  O  O577  1  0.05242000  0.56641000  0.36914000  1
  O  O578  1  0.05242000  0.63086000  0.56641000  1
  O  O579  1  0.06952000  0.37990000  0.54934000  1
  O  O580  1  0.06952000  0.45066000  0.37990000  1
  O  O581  1  0.06952000  0.54934000  0.62010000  1
  O  O582  1  0.06952000  0.62010000  0.45066000  1
  O  O583  1  0.36914000  0.05242000  0.56641000  1
  O  O584  1  0.36914000  0.43359000  0.05242000  1
  O  O585  1  0.36914000  0.56641000  0.94758000  1
  O  O586  1  0.36914000  0.94758000  0.43359000  1
  O  O587  1  0.37990000  0.06952000  0.45066000  1
  O  O588  1  0.37990000  0.45066000  0.93048000  1
  O  O589  1  0.37990000  0.54934000  0.06952000  1
  O  O590  1  0.37990000  0.93048000  0.54934000  1
  O  O591  1  0.43359000  0.05242000  0.36914000  1
  O  O592  1  0.43359000  0.36914000  0.94758000  1
  O  O593  1  0.43359000  0.63086000  0.05242000  1
  O  O594  1  0.43359000  0.94758000  0.63086000  1
  O  O595  1  0.45066000  0.06952000  0.62010000  1
  O  O596  1  0.45066000  0.37990000  0.06952000  1
  O  O597  1  0.45066000  0.62010000  0.93048000  1
  O  O598  1  0.45066000  0.93048000  0.37990000  1
  O  O599  1  0.54934000  0.06952000  0.37990000  1
  O  O600  1  0.54934000  0.37990000  0.93048000  1
  O  O601  1  0.54934000  0.62010000  0.06952000  1
  O  O602  1  0.54934000  0.93048000  0.62010000  1
  O  O603  1  0.56641000  0.05242000  0.63086000  1
  O  O604  1  0.56641000  0.36914000  0.05242000  1
  O  O605  1  0.56641000  0.63086000  0.94758000  1
  O  O606  1  0.56641000  0.94758000  0.36914000  1
  O  O607  1  0.62010000  0.06952000  0.54934000  1
  O  O608  1  0.62010000  0.45066000  0.06952000  1
  O  O609  1  0.62010000  0.54934000  0.93048000  1
  O  O610  1  0.62010000  0.93048000  0.45066000  1
  O  O611  1  0.63086000  0.05242000  0.43359000  1
  O  O612  1  0.63086000  0.43359000  0.94758000  1
  O  O613  1  0.63086000  0.56641000  0.05242000  1
  O  O614  1  0.63086000  0.94758000  0.56641000  1
  O  O615  1  0.93048000  0.37990000  0.45066000  1
  O  O616  1  0.93048000  0.45066000  0.62010000  1
  O  O617  1  0.93048000  0.54934000  0.37990000  1
  O  O618  1  0.93048000  0.62010000  0.54934000  1
  O  O619  1  0.94758000  0.36914000  0.56641000  1
  O  O620  1  0.94758000  0.43359000  0.36914000  1
  O  O621  1  0.94758000  0.56641000  0.63086000  1
  O  O622  1  0.94758000  0.63086000  0.43359000  1
