# generated using pymatgen
data_ZnCoH15C24(NO)6
_symmetry_space_group_name_H-M   'P 1'
_cell_length_a   7.15990000
_cell_length_b   9.71270000
_cell_length_c   39.15900000
_cell_angle_alpha   90.00000000
_cell_angle_beta   90.00000000
_cell_angle_gamma   90.00000000
_symmetry_Int_Tables_number   1
_chemical_formula_structural   ZnCoH15C24(NO)6
_chemical_formula_sum   'Zn4 Co4 H60 C96 N24 O24'
_cell_volume   2723.19364023
_cell_formula_units_Z   4
loop_
 _symmetry_equiv_pos_site_id
 _symmetry_equiv_pos_as_xyz
  1  'x, y, z'
loop_
 _atom_site_type_symbol
 _atom_site_label
 _atom_site_symmetry_multiplicity
 _atom_site_fract_x
 _atom_site_fract_y
 _atom_site_fract_z
 _atom_site_occupancy
  Zn  Zn0  1  0.75769000  0.34774000  0.53567000  1
  Zn  Zn1  1  0.74231000  0.84774000  0.46433000  1
  Zn  Zn2  1  0.25769000  0.65226000  0.96433000  1
  Zn  Zn3  1  0.24231000  0.15226000  0.03567000  1
  Co  Co4  1  0.94745000  0.38206000  0.67750000  1
  Co  Co5  1  0.55255000  0.88206000  0.32250000  1
  Co  Co6  1  0.44745000  0.61794000  0.82250000  1
  Co  Co7  1  0.05255000  0.11794000  0.17750000  1
  H  H8  1  0.96720000  0.46540000  0.84420000  1
  H  H9  1  0.96650000  0.41180000  0.98510000  1
  H  H10  1  0.93890000  0.67860000  0.57170000  1
  H  H11  1  0.93280000  0.21360000  0.74930000  1
  H  H12  1  0.92540000  0.61350000  0.73300000  1
  H  H13  1  0.89380000  0.57880000  0.79520000  1
  H  H14  1  0.89370000  0.42270000  0.19260000  1
  H  H15  1  0.88370000  0.96570000  0.39360000  1
  H  H16  1  0.87940000  0.89170000  0.89510000  1
  H  H17  1  0.83720000  0.83480000  0.66420000  1
  H  H18  1  0.83620000  0.12700000  0.89840000  1
  H  H19  1  0.81530000  0.11440000  0.79590000  1
  H  H20  1  0.80470000  0.26500000  0.94380000  1
  H  H21  1  0.77650000  0.04360000  0.63900000  1
  H  H22  1  0.76190000  0.17110000  0.11670000  1
  H  H23  1  0.73810000  0.67110000  0.88330000  1
  H  H24  1  0.72350000  0.54360000  0.36100000  1
  H  H25  1  0.69530000  0.76500000  0.05620000  1
  H  H26  1  0.68470000  0.61440000  0.20410000  1
  H  H27  1  0.66380000  0.62700000  0.10160000  1
  H  H28  1  0.66280000  0.33480000  0.33580000  1
  H  H29  1  0.62060000  0.39170000  0.10490000  1
  H  H30  1  0.61630000  0.46570000  0.60640000  1
  H  H31  1  0.60630000  0.92270000  0.80740000  1
  H  H32  1  0.60620000  0.07880000  0.20480000  1
  H  H33  1  0.57460000  0.11350000  0.26700000  1
  H  H34  1  0.56720000  0.71360000  0.25070000  1
  H  H35  1  0.56110000  0.17860000  0.42830000  1
  H  H36  1  0.53350000  0.91180000  0.01490000  1
  H  H37  1  0.53280000  0.96540000  0.15580000  1
  H  H38  1  0.46720000  0.53460000  0.65580000  1
  H  H39  1  0.46650000  0.58820000  0.51490000  1
  H  H40  1  0.43890000  0.32140000  0.92830000  1
  H  H41  1  0.43280000  0.78640000  0.75070000  1
  H  H42  1  0.42540000  0.38650000  0.76700000  1
  H  H43  1  0.39380000  0.42120000  0.70480000  1
  H  H44  1  0.39370000  0.57730000  0.30740000  1
  H  H45  1  0.38370000  0.03430000  0.10640000  1
  H  H46  1  0.37940000  0.10830000  0.60490000  1
  H  H47  1  0.33720000  0.16520000  0.83580000  1
  H  H48  1  0.33620000  0.87300000  0.60160000  1
  H  H49  1  0.31530000  0.88560000  0.70410000  1
  H  H50  1  0.30470000  0.73500000  0.55620000  1
  H  H51  1  0.27650000  0.95640000  0.86100000  1
  H  H52  1  0.26190000  0.82890000  0.38330000  1
  H  H53  1  0.23810000  0.32890000  0.61670000  1
  H  H54  1  0.22350000  0.45640000  0.13900000  1
  H  H55  1  0.19530000  0.23500000  0.44380000  1
  H  H56  1  0.18470000  0.38560000  0.29590000  1
  H  H57  1  0.16380000  0.37300000  0.39840000  1
  H  H58  1  0.16280000  0.66520000  0.16420000  1
  H  H59  1  0.12060000  0.60830000  0.39510000  1
  H  H60  1  0.11630000  0.53430000  0.89360000  1
  H  H61  1  0.10630000  0.07730000  0.69260000  1
  H  H62  1  0.10620000  0.92120000  0.29520000  1
  H  H63  1  0.07460000  0.88650000  0.23300000  1
  H  H64  1  0.06720000  0.28640000  0.24930000  1
  H  H65  1  0.06110000  0.82140000  0.07170000  1
  H  H66  1  0.03350000  0.08820000  0.48510000  1
  H  H67  1  0.03280000  0.03460000  0.34420000  1
  C  C68  1  0.97630000  0.41750000  0.96150000  1
  C  C69  1  0.94710000  0.59480000  0.63510000  1
  C  C70  1  0.93870000  0.01460000  0.41130000  1
  C  C71  1  0.92920000  0.37390000  0.84504000  1
  C  C72  1  0.92680000  0.30820000  0.75280000  1
  C  C73  1  0.92220000  0.52880000  0.74410000  1
  C  C74  1  0.90550000  0.51110000  0.77860000  1
  C  C75  1  0.90510000  0.30740000  0.87570000  1
  C  C76  1  0.90150000  0.75200000  0.58530000  1
  C  C77  1  0.89640000  0.73530000  0.61980000  1
  C  C78  1  0.89450000  0.29870000  0.81500000  1
  C  C79  1  0.88830000  0.33560000  0.93890000  1
  C  C80  1  0.86230000  0.87550000  0.53040000  1
  C  C81  1  0.85220000  0.87570000  0.56980000  1
  C  C82  1  0.85030000  0.17050000  0.87740000  1
  C  C83  1  0.84500000  0.84500000  0.64060000  1
  C  C84  1  0.84430000  0.38740000  0.17250000  1
  C  C85  1  0.83830000  0.16280000  0.81590000  1
  C  C86  1  0.81700000  0.10030000  0.84760000  1
  C  C87  1  0.80760000  0.98880000  0.59040000  1
  C  C88  1  0.80700000  0.87010000  0.87620000  1
  C  C89  1  0.80590000  0.96890000  0.62510000  1
  C  C90  1  0.77070000  0.24890000  0.13040000  1
  C  C91  1  0.76700000  0.13100000  0.57640000  1
  C  C92  1  0.73300000  0.63100000  0.42360000  1
  C  C93  1  0.72930000  0.74890000  0.86960000  1
  C  C94  1  0.69410000  0.46890000  0.37490000  1
  C  C95  1  0.69300000  0.37010000  0.12380000  1
  C  C96  1  0.69240000  0.48880000  0.40960000  1
  C  C97  1  0.68300000  0.60030000  0.15240000  1
  C  C98  1  0.66170000  0.66280000  0.18410000  1
  C  C99  1  0.65570000  0.88740000  0.82750000  1
  C  C100  1  0.65500000  0.34500000  0.35940000  1
  C  C101  1  0.64970000  0.67050000  0.12260000  1
  C  C102  1  0.64780000  0.37570000  0.43020000  1
  C  C103  1  0.63770000  0.37550000  0.46960000  1
  C  C104  1  0.61170000  0.83560000  0.06110000  1
  C  C105  1  0.60550000  0.79870000  0.18500000  1
  C  C106  1  0.60360000  0.23530000  0.38020000  1
  C  C107  1  0.59850000  0.25200000  0.41470000  1
  C  C108  1  0.59490000  0.80740000  0.12430000  1
  C  C109  1  0.59450000  0.01110000  0.22140000  1
  C  C110  1  0.57780000  0.02880000  0.25590000  1
  C  C111  1  0.57320000  0.80820000  0.24720000  1
  C  C112  1  0.57080000  0.87390000  0.15496000  1
  C  C113  1  0.56130000  0.51460000  0.58870000  1
  C  C114  1  0.55290000  0.09480000  0.36490000  1
  C  C115  1  0.52370000  0.91750000  0.03850000  1
  C  C116  1  0.47630000  0.58250000  0.53850000  1
  C  C117  1  0.44710000  0.40520000  0.86490000  1
  C  C118  1  0.43870000  0.98540000  0.08870000  1
  C  C119  1  0.42920000  0.62610000  0.65496000  1
  C  C120  1  0.42680000  0.69180000  0.74720000  1
  C  C121  1  0.42220000  0.47120000  0.75590000  1
  C  C122  1  0.40550000  0.48890000  0.72140000  1
  C  C123  1  0.40510000  0.69260000  0.62430000  1
  C  C124  1  0.40150000  0.24800000  0.91470000  1
  C  C125  1  0.39640000  0.26470000  0.88020000  1
  C  C126  1  0.39450000  0.70130000  0.68500000  1
  C  C127  1  0.38830000  0.66440000  0.56110000  1
  C  C128  1  0.36230000  0.12450000  0.96960000  1
  C  C129  1  0.35220000  0.12430000  0.93020000  1
  C  C130  1  0.35030000  0.82950000  0.62260000  1
  C  C131  1  0.34500000  0.15500000  0.85940000  1
  C  C132  1  0.34430000  0.61260000  0.32750000  1
  C  C133  1  0.33830000  0.83720000  0.68410000  1
  C  C134  1  0.31700000  0.89970000  0.65240000  1
  C  C135  1  0.30760000  0.01120000  0.90960000  1
  C  C136  1  0.30700000  0.12990000  0.62380000  1
  C  C137  1  0.30590000  0.03110000  0.87490000  1
  C  C138  1  0.27070000  0.75110000  0.36960000  1
  C  C139  1  0.26700000  0.86900000  0.92360000  1
  C  C140  1  0.23300000  0.36900000  0.07640000  1
  C  C141  1  0.22930000  0.25110000  0.63040000  1
  C  C142  1  0.19410000  0.53110000  0.12510000  1
  C  C143  1  0.19300000  0.62990000  0.37620000  1
  C  C144  1  0.19240000  0.51120000  0.09040000  1
  C  C145  1  0.18300000  0.39970000  0.34760000  1
  C  C146  1  0.16170000  0.33720000  0.31590000  1
  C  C147  1  0.15570000  0.11260000  0.67250000  1
  C  C148  1  0.15500000  0.65500000  0.14060000  1
  C  C149  1  0.14970000  0.32950000  0.37740000  1
  C  C150  1  0.14780000  0.62430000  0.06980000  1
  C  C151  1  0.13770000  0.62450000  0.03040000  1
  C  C152  1  0.11170000  0.16440000  0.43890000  1
  C  C153  1  0.10550000  0.20130000  0.31500000  1
  C  C154  1  0.10360000  0.76470000  0.11980000  1
  C  C155  1  0.09850000  0.74800000  0.08530000  1
  C  C156  1  0.09490000  0.19260000  0.37570000  1
  C  C157  1  0.09450000  0.98890000  0.27860000  1
  C  C158  1  0.07780000  0.97120000  0.24410000  1
  C  C159  1  0.07320000  0.19180000  0.25280000  1
  C  C160  1  0.07080000  0.12610000  0.34504000  1
  C  C161  1  0.06130000  0.48540000  0.91130000  1
  C  C162  1  0.05290000  0.90520000  0.13510000  1
  C  C163  1  0.02370000  0.08250000  0.46150000  1
  N  N164  1  0.94660000  0.37700000  0.90726000  1
  N  N165  1  0.93370000  0.40120000  0.72800000  1
  N  N166  1  0.91530000  0.98750000  0.44356000  1
  N  N167  1  0.91010000  0.36720000  0.78330000  1
  N  N168  1  0.86660000  0.25650000  0.16090000  1
  N  N169  1  0.76140000  0.95750000  0.85007000  1
  N  N170  1  0.73860000  0.45750000  0.14993000  1
  N  N171  1  0.63340000  0.75650000  0.83910000  1
  N  N172  1  0.58990000  0.86720000  0.21670000  1
  N  N173  1  0.58470000  0.48750000  0.55644000  1
  N  N174  1  0.56630000  0.90120000  0.27200000  1
  N  N175  1  0.55340000  0.87700000  0.09274000  1
  N  N176  1  0.44660000  0.62300000  0.59274000  1
  N  N177  1  0.43370000  0.59880000  0.77200000  1
  N  N178  1  0.41530000  0.01250000  0.05644000  1
  N  N179  1  0.41010000  0.63280000  0.71670000  1
  N  N180  1  0.36660000  0.74350000  0.33910000  1
  N  N181  1  0.26140000  0.04250000  0.64993000  1
  N  N182  1  0.23860000  0.54250000  0.35007000  1
  N  N183  1  0.13340000  0.24350000  0.66090000  1
  N  N184  1  0.08990000  0.13280000  0.28330000  1
  N  N185  1  0.08470000  0.51250000  0.94356000  1
  N  N186  1  0.06630000  0.09880000  0.22800000  1
  N  N187  1  0.05340000  0.12300000  0.40726000  1
  O  O188  1  0.99530000  0.50040000  0.61563000  1
  O  O189  1  0.98010000  0.63410000  0.01837000  1
  O  O190  1  0.93530000  0.58050000  0.66662000  1
  O  O191  1  0.78510000  0.37610000  0.48642000  1
  O  O192  1  0.78440000  0.14810000  0.54520000  1
  O  O193  1  0.77040000  0.72630000  0.40295000  1
  O  O194  1  0.72960000  0.22630000  0.59705000  1
  O  O195  1  0.71560000  0.64810000  0.45480000  1
  O  O196  1  0.71490000  0.87610000  0.51358000  1
  O  O197  1  0.56470000  0.08050000  0.33333333  1
  O  O198  1  0.51990000  0.13410000  0.98163000  1
  O  O199  1  0.50470000  0.00040000  0.38437000  1
  O  O200  1  0.49530000  0.49960000  0.88437000  1
  O  O201  1  0.48010000  0.36590000  0.48163000  1
  O  O202  1  0.43530000  0.41950000  0.83338000  1
  O  O203  1  0.28510000  0.62390000  0.01358000  1
  O  O204  1  0.28440000  0.85190000  0.95480000  1
  O  O205  1  0.27040000  0.27370000  0.09705000  1
  O  O206  1  0.22960000  0.77370000  0.90295000  1
  O  O207  1  0.21560000  0.35190000  0.04520000  1
  O  O208  1  0.21490000  0.12390000  0.98642000  1
  O  O209  1  0.06470000  0.91950000  0.16662000  1
  O  O210  1  0.01990000  0.86590000  0.51837000  1
  O  O211  1  0.00470000  0.99960000  0.11563000  1
