# generated using pymatgen
data_CaH4(C2O)4
_symmetry_space_group_name_H-M   'P 1'
_cell_length_a   6.72990000
_cell_length_b   10.93750000
_cell_length_c   18.58400000
_cell_angle_alpha   90.00000000
_cell_angle_beta   90.00000000
_cell_angle_gamma   90.00000000
_symmetry_Int_Tables_number   1
_chemical_formula_structural   CaH4(C2O)4
_chemical_formula_sum   'Ca4 H16 C32 O16'
_cell_volume   1367.93629875
_cell_formula_units_Z   4
loop_
 _symmetry_equiv_pos_site_id
 _symmetry_equiv_pos_as_xyz
  1  'x, y, z'
loop_
 _atom_site_type_symbol
 _atom_site_label
 _atom_site_symmetry_multiplicity
 _atom_site_fract_x
 _atom_site_fract_y
 _atom_site_fract_z
 _atom_site_occupancy
  Ca  Ca0  1  0.25000000  0.09047000  0.48652000  1
  Ca  Ca1  1  0.25000000  0.59047000  0.01348000  1
  Ca  Ca2  1  0.75000000  0.40953000  0.98652000  1
  Ca  Ca3  1  0.75000000  0.90953000  0.51348000  1
  H  H4  1  0.04370000  0.25620000  0.21780000  1
  H  H5  1  0.04370000  0.75620000  0.28220000  1
  H  H6  1  0.04630000  0.18500000  0.33410000  1
  H  H7  1  0.04630000  0.68500000  0.16590000  1
  H  H8  1  0.45370000  0.18500000  0.33410000  1
  H  H9  1  0.45370000  0.68500000  0.16590000  1
  H  H10  1  0.45630000  0.25620000  0.21780000  1
  H  H11  1  0.45630000  0.75620000  0.28220000  1
  H  H12  1  0.54370000  0.24380000  0.71780000  1
  H  H13  1  0.54370000  0.74380000  0.78220000  1
  H  H14  1  0.54630000  0.31500000  0.83410000  1
  H  H15  1  0.54630000  0.81500000  0.66590000  1
  H  H16  1  0.95370000  0.31500000  0.83410000  1
  H  H17  1  0.95370000  0.81500000  0.66590000  1
  H  H18  1  0.95630000  0.24380000  0.71780000  1
  H  H19  1  0.95630000  0.74380000  0.78220000  1
  C  C20  1  0.07430000  0.30230000  0.81080000  1
  C  C21  1  0.07430000  0.80230000  0.68920000  1
  C  C22  1  0.07600000  0.25860000  0.74130000  1
  C  C23  1  0.07600000  0.75860000  0.75870000  1
  C  C24  1  0.25000000  0.19370000  0.62860000  1
  C  C25  1  0.25000000  0.23660000  0.70630000  1
  C  C26  1  0.25000000  0.32740000  0.84640000  1
  C  C27  1  0.25000000  0.38310000  0.91930000  1
  C  C28  1  0.25000000  0.69370000  0.87140000  1
  C  C29  1  0.25000000  0.73660000  0.79370000  1
  C  C30  1  0.25000000  0.82740000  0.65360000  1
  C  C31  1  0.25000000  0.88310000  0.58070000  1
  C  C32  1  0.42400000  0.25860000  0.74130000  1
  C  C33  1  0.42400000  0.75860000  0.75870000  1
  C  C34  1  0.42570000  0.30230000  0.81080000  1
  C  C35  1  0.42570000  0.80230000  0.68920000  1
  C  C36  1  0.57430000  0.19770000  0.31080000  1
  C  C37  1  0.57430000  0.69770000  0.18920000  1
  C  C38  1  0.57600000  0.24140000  0.24130000  1
  C  C39  1  0.57600000  0.74140000  0.25870000  1
  C  C40  1  0.75000000  0.11690000  0.41930000  1
  C  C41  1  0.75000000  0.17260000  0.34640000  1
  C  C42  1  0.75000000  0.26340000  0.20630000  1
  C  C43  1  0.75000000  0.30630000  0.12860000  1
  C  C44  1  0.75000000  0.61690000  0.08070000  1
  C  C45  1  0.75000000  0.67260000  0.15360000  1
  C  C46  1  0.75000000  0.76340000  0.29370000  1
  C  C47  1  0.75000000  0.80630000  0.37140000  1
  C  C48  1  0.92400000  0.24140000  0.24130000  1
  C  C49  1  0.92400000  0.74140000  0.25870000  1
  C  C50  1  0.92570000  0.19770000  0.31080000  1
  C  C51  1  0.92570000  0.69770000  0.18920000  1
  O  O52  1  0.08770000  0.40980000  0.94891000  1
  O  O53  1  0.08770000  0.90980000  0.55109000  1
  O  O54  1  0.08810000  0.17840000  0.59707000  1
  O  O55  1  0.08810000  0.67840000  0.90293000  1
  O  O56  1  0.41190000  0.17840000  0.59707000  1
  O  O57  1  0.41190000  0.67840000  0.90293000  1
  O  O58  1  0.41230000  0.40980000  0.94891000  1
  O  O59  1  0.41230000  0.90980000  0.55109000  1
  O  O60  1  0.58770000  0.09020000  0.44891000  1
  O  O61  1  0.58770000  0.59020000  0.05109000  1
  O  O62  1  0.58810000  0.32160000  0.09707000  1
  O  O63  1  0.58810000  0.82160000  0.40293000  1
  O  O64  1  0.91190000  0.32160000  0.09707000  1
  O  O65  1  0.91190000  0.82160000  0.40293000  1
  O  O66  1  0.91230000  0.09020000  0.44891000  1
  O  O67  1  0.91230000  0.59020000  0.05109000  1
