# generated using pymatgen
data_TbH7(C5O2)3
_symmetry_space_group_name_H-M   'P 1'
_cell_length_a   12.68040000
_cell_length_b   13.84400000
_cell_length_c   27.86500000
_cell_angle_alpha   104.24600000
_cell_angle_beta   97.31700000
_cell_angle_gamma   94.45600000
_symmetry_Int_Tables_number   1
_chemical_formula_structural   TbH7(C5O2)3
_chemical_formula_sum   'Tb8 H56 C120 O48'
_cell_volume   4672.24992722
_cell_formula_units_Z   8
loop_
 _symmetry_equiv_pos_site_id
 _symmetry_equiv_pos_as_xyz
  1  'x, y, z'
loop_
 _atom_site_type_symbol
 _atom_site_label
 _atom_site_symmetry_multiplicity
 _atom_site_fract_x
 _atom_site_fract_y
 _atom_site_fract_z
 _atom_site_occupancy
  Tb  Tb0  1  0.03600000  0.56599000  0.93992000  1
  Tb  Tb1  1  0.12156000  0.07335000  0.55197000  1
  Tb  Tb2  1  0.46399000  0.54780000  0.58547000  1
  Tb  Tb3  1  0.48915000  0.89152000  0.91347000  1
  Tb  Tb4  1  0.51085000  0.10848000  0.08653000  1
  Tb  Tb5  1  0.53601000  0.45220000  0.41453000  1
  Tb  Tb6  1  0.87844000  0.92665000  0.44803000  1
  Tb  Tb7  1  0.96400000  0.43401000  0.06008000  1
  H  H8  1  0.00360000  0.32040000  0.68080000  1
  H  H9  1  0.02690000  0.89380000  0.65480000  1
  H  H10  1  0.03360000  0.34560000  0.27560000  1
  H  H11  1  0.03740000  0.18000000  0.72230000  1
  H  H12  1  0.06120000  0.21420000  0.80870000  1
  H  H13  1  0.06130000  0.38350000  0.76570000  1
  H  H14  1  0.07500000  0.94380000  0.74490000  1
  H  H15  1  0.08500000  0.77340000  0.38920000  1
  H  H16  1  0.09640000  0.64340000  0.78840000  1
  H  H17  1  0.13820000  0.31390000  0.88610000  1
  H  H18  1  0.19010000  0.28940000  0.30660000  1
  H  H19  1  0.19050000  0.46000000  0.22220000  1
  H  H20  1  0.20580000  0.93210000  0.80830000  1
  H  H21  1  0.23970000  0.62880000  0.15660000  1
  H  H22  1  0.25150000  0.52890000  0.30670000  1
  H  H23  1  0.25380000  0.20570000  0.43440000  1
  H  H24  1  0.25400000  0.23970000  0.01150000  1
  H  H25  1  0.26270000  0.79470000  0.05750000  1
  H  H26  1  0.27090000  0.54890000  0.38370000  1
  H  H27  1  0.27800000  0.75830000  0.51300000  1
  H  H28  1  0.32320000  0.08760000  0.87880000  1
  H  H29  1  0.33240000  0.09680000  0.72100000  1
  H  H30  1  0.35770000  0.13280000  0.80740000  1
  H  H31  1  0.38320000  0.57580000  0.20250000  1
  H  H32  1  0.42380000  0.86960000  0.27410000  1
  H  H33  1  0.44710000  0.87810000  0.19220000  1
  H  H34  1  0.45230000  0.53780000  0.27500000  1
  H  H35  1  0.49290000  0.83040000  0.34720000  1
  H  H36  1  0.50710000  0.16960000  0.65280000  1
  H  H37  1  0.54770000  0.46220000  0.72500000  1
  H  H38  1  0.55290000  0.12190000  0.80780000  1
  H  H39  1  0.57620000  0.13040000  0.72590000  1
  H  H40  1  0.61680000  0.42420000  0.79750000  1
  H  H41  1  0.64230000  0.86720000  0.19260000  1
  H  H42  1  0.66760000  0.90320000  0.27900000  1
  H  H43  1  0.67680000  0.91240000  0.12120000  1
  H  H44  1  0.72200000  0.24170000  0.48700000  1
  H  H45  1  0.72910000  0.45110000  0.61630000  1
  H  H46  1  0.73730000  0.20530000  0.94250000  1
  H  H47  1  0.74600000  0.76030000  0.98850000  1
  H  H48  1  0.74620000  0.79430000  0.56560000  1
  H  H49  1  0.74850000  0.47110000  0.69330000  1
  H  H50  1  0.76030000  0.37120000  0.84340000  1
  H  H51  1  0.79420000  0.06790000  0.19170000  1
  H  H52  1  0.80950000  0.54000000  0.77780000  1
  H  H53  1  0.80990000  0.71060000  0.69340000  1
  H  H54  1  0.86180000  0.68610000  0.11390000  1
  H  H55  1  0.90360000  0.35660000  0.21160000  1
  H  H56  1  0.91500000  0.22660000  0.61080000  1
  H  H57  1  0.92500000  0.05620000  0.25510000  1
  H  H58  1  0.93870000  0.61650000  0.23430000  1
  H  H59  1  0.93880000  0.78580000  0.19130000  1
  H  H60  1  0.96260000  0.82000000  0.27770000  1
  H  H61  1  0.96640000  0.65440000  0.72440000  1
  H  H62  1  0.97310000  0.10620000  0.34520000  1
  H  H63  1  0.99640000  0.67960000  0.31920000  1
  C  C64  1  0.00160000  0.59790000  0.24878000  1
  C  C65  1  0.00910000  0.79900000  0.72683000  1
  C  C66  1  0.01510000  0.71000000  0.74080000  1
  C  C67  1  0.02040000  0.49310000  0.16422000  1
  C  C68  1  0.03650000  0.63640000  0.29986000  1
  C  C69  1  0.03920000  0.14480000  0.35201000  1
  C  C70  1  0.05830000  0.53310000  0.21935000  1
  C  C71  1  0.06870000  0.19770000  0.31812000  1
  C  C72  1  0.07030000  0.09950000  0.43481000  1
  C  C73  1  0.08020000  0.88290000  0.75300000  1
  C  C74  1  0.09370000  0.70340000  0.77920000  1
  C  C75  1  0.10180000  0.16980000  0.73935000  1
  C  C76  1  0.10810000  0.14920000  0.39592000  1
  C  C77  1  0.11610000  0.19080000  0.79135000  1
  C  C78  1  0.12590000  0.36380000  0.98332000  1
  C  C79  1  0.13090000  0.61070000  0.32218000  1
  C  C80  1  0.13600000  0.74150000  0.40468000  1
  C  C81  1  0.14320000  0.87560000  0.48526000  1
  C  C82  1  0.15140000  0.62850000  0.06362000  1
  C  C83  1  0.15200000  0.50530000  0.24132000  1
  C  C84  1  0.15870000  0.87590000  0.79105000  1
  C  C85  1  0.16520000  0.11550000  0.65697000  1
  C  C86  1  0.16750000  0.78470000  0.80373000  1
  C  C87  1  0.16940000  0.25320000  0.32857000  1
  C  C88  1  0.17090000  0.65410000  0.37672000  1
  C  C89  1  0.17690000  0.78110000  0.45547000  1
  C  C90  1  0.17750000  0.27310000  0.90163000  1
  C  C91  1  0.18060000  0.13430000  0.71273000  1
  C  C92  1  0.18670000  0.28770000  0.95339000  1
  C  C93  1  0.18770000  0.54600000  0.29242000  1
  C  C94  1  0.20760000  0.20350000  0.40530000  1
  C  C95  1  0.21230000  0.17690000  0.81755000  1
  C  C96  1  0.22730000  0.19690000  0.87297000  1
  C  C97  1  0.23600000  0.70120000  0.10119000  1
  C  C98  1  0.23930000  0.25490000  0.37182000  1
  C  C99  1  0.24610000  0.60650000  0.40151000  1
  C  C100  1  0.24820000  0.22960000  0.97698000  1
  C  C101  1  0.25080000  0.73220000  0.47921000  1
  C  C102  1  0.25920000  0.77350000  0.84151000  1
  C  C103  1  0.27100000  0.68420000  0.14825000  1
  C  C104  1  0.27790000  0.12040000  0.73860000  1
  C  C105  1  0.28370000  0.78410000  0.08884000  1
  C  C106  1  0.28410000  0.64440000  0.45236000  1
  C  C107  1  0.28970000  0.13830000  0.89732000  1
  C  C108  1  0.29280000  0.14190000  0.79036000  1
  C  C109  1  0.30120000  0.15630000  0.94939000  1
  C  C110  1  0.34730000  0.31600000  0.38274000  1
  C  C111  1  0.35170000  0.74900000  0.18240000  1
  C  C112  1  0.35770000  0.58740000  0.47856000  1
  C  C113  1  0.36210000  0.85110000  0.12272000  1
  C  C114  1  0.36810000  0.09660000  0.97673000  1
  C  C115  1  0.39500000  0.83290000  0.16932000  1
  C  C116  1  0.39520000  0.72660000  0.23048000  1
  C  C117  1  0.40480000  0.62710000  0.23150000  1
  C  C118  1  0.41390000  0.93860000  0.10923000  1
  C  C119  1  0.42900000  0.80300000  0.27420000  1
  C  C120  1  0.44620000  0.60440000  0.27510000  1
  C  C121  1  0.47050000  0.77920000  0.31820000  1
  C  C122  1  0.47900000  0.67950000  0.31938000  1
  C  C123  1  0.48020000  0.34810000  0.63349000  1
  C  C124  1  0.51980000  0.65190000  0.36651000  1
  C  C125  1  0.52100000  0.32050000  0.68062000  1
  C  C126  1  0.52950000  0.22080000  0.68180000  1
  C  C127  1  0.55380000  0.39560000  0.72490000  1
  C  C128  1  0.57100000  0.19700000  0.72580000  1
  C  C129  1  0.58610000  0.06140000  0.89077000  1
  C  C130  1  0.59520000  0.37290000  0.76850000  1
  C  C131  1  0.60480000  0.27340000  0.76952000  1
  C  C132  1  0.60500000  0.16710000  0.83068000  1
  C  C133  1  0.63190000  0.90340000  0.02327000  1
  C  C134  1  0.63790000  0.14890000  0.87728000  1
  C  C135  1  0.64230000  0.41260000  0.52144000  1
  C  C136  1  0.64830000  0.25100000  0.81760000  1
  C  C137  1  0.65270000  0.68400000  0.61726000  1
  C  C138  1  0.69880000  0.84370000  0.05061000  1
  C  C139  1  0.70720000  0.85810000  0.20964000  1
  C  C140  1  0.71030000  0.86170000  0.10268000  1
  C  C141  1  0.71590000  0.35560000  0.54764000  1
  C  C142  1  0.71630000  0.21590000  0.91116000  1
  C  C143  1  0.72210000  0.87960000  0.26140000  1
  C  C144  1  0.72900000  0.31580000  0.85175000  1
  C  C145  1  0.74080000  0.22650000  0.15849000  1
  C  C146  1  0.74920000  0.26780000  0.52079000  1
  C  C147  1  0.75180000  0.77040000  0.02302000  1
  C  C148  1  0.75390000  0.39350000  0.59849000  1
  C  C149  1  0.76070000  0.74510000  0.62818000  1
  C  C150  1  0.76400000  0.29880000  0.89881000  1
  C  C151  1  0.77270000  0.80310000  0.12703000  1
  C  C152  1  0.78770000  0.82310000  0.18245000  1
  C  C153  1  0.79240000  0.79650000  0.59470000  1
  C  C154  1  0.81230000  0.45400000  0.70758000  1
  C  C155  1  0.81330000  0.71230000  0.04661000  1
  C  C156  1  0.81940000  0.86570000  0.28727000  1
  C  C157  1  0.82250000  0.72690000  0.09837000  1
  C  C158  1  0.82310000  0.21890000  0.54453000  1
  C  C159  1  0.82910000  0.34590000  0.62328000  1
  C  C160  1  0.83060000  0.74680000  0.67143000  1
  C  C161  1  0.83250000  0.21530000  0.19627000  1
  C  C162  1  0.83480000  0.88450000  0.34303000  1
  C  C163  1  0.84130000  0.12410000  0.20895000  1
  C  C164  1  0.84800000  0.49470000  0.75868000  1
  C  C165  1  0.84860000  0.37150000  0.93638000  1
  C  C166  1  0.85680000  0.12440000  0.51474000  1
  C  C167  1  0.86400000  0.25850000  0.59532000  1
  C  C168  1  0.86910000  0.38930000  0.67782000  1
  C  C169  1  0.87410000  0.63620000  0.01668000  1
  C  C170  1  0.88390000  0.80920000  0.20865000  1
  C  C171  1  0.89190000  0.85080000  0.60408000  1
  C  C172  1  0.89820000  0.83020000  0.26065000  1
  C  C173  1  0.90630000  0.29660000  0.22080000  1
  C  C174  1  0.91980000  0.11710000  0.24700000  1
  C  C175  1  0.92970000  0.90050000  0.56519000  1
  C  C176  1  0.93130000  0.80230000  0.68188000  1
  C  C177  1  0.94170000  0.46690000  0.78065000  1
  C  C178  1  0.96080000  0.85520000  0.64799000  1
  C  C179  1  0.96350000  0.36360000  0.70014000  1
  C  C180  1  0.97960000  0.50690000  0.83578000  1
  C  C181  1  0.98490000  0.29000000  0.25920000  1
  C  C182  1  0.99090000  0.20100000  0.27317000  1
  C  C183  1  0.99840000  0.40210000  0.75122000  1
  O  O184  1  0.02120000  0.95070000  0.57742000  1
  O  O185  1  0.05070000  0.46530000  0.85658000  1
  O  O186  1  0.05530000  0.90570000  0.47177000  1
  O  O187  1  0.05970000  0.41940000  0.13914000  1
  O  O188  1  0.08990000  0.15360000  0.63638000  1
  O  O189  1  0.09900000  0.43550000  0.96663000  1
  O  O190  1  0.10340000  0.34940000  0.02441000  1
  O  O191  1  0.11080000  0.55580000  0.07781000  1
  O  O192  1  0.12510000  0.64660000  0.02227000  1
  O  O193  1  0.13300000  0.10890000  0.47403000  1
  O  O194  1  0.20680000  0.92540000  0.52368000  1
  O  O195  1  0.22490000  0.06170000  0.63196000  1
  O  O196  1  0.26300000  0.69090000  0.85225000  1
  O  O197  1  0.32990000  0.84880000  0.85854000  1
  O  O198  1  0.37100000  0.37090000  0.35482000  1
  O  O199  1  0.37470000  0.61440000  0.52581000  1
  O  O200  1  0.38530000  0.95300000  0.06671000  1
  O  O201  1  0.38570000  0.12830000  0.02373000  1
  O  O202  1  0.39660000  0.51630000  0.45258000  1
  O  O203  1  0.40260000  0.02010000  0.95176000  1
  O  O204  1  0.41180000  0.31330000  0.42070000  1
  O  O205  1  0.44730000  0.28000000  0.59431000  1
  O  O206  1  0.48310000  0.44120000  0.63620000  1
  O  O207  1  0.48540000  0.99880000  0.14091000  1
  O  O208  1  0.51460000  0.00120000  0.85909000  1
  O  O209  1  0.51690000  0.55880000  0.36380000  1
  O  O210  1  0.55270000  0.72000000  0.40569000  1
  O  O211  1  0.58820000  0.68670000  0.57930000  1
  O  O212  1  0.59740000  0.97990000  0.04824000  1
  O  O213  1  0.60340000  0.48370000  0.54742000  1
  O  O214  1  0.61430000  0.87170000  0.97627000  1
  O  O215  1  0.61470000  0.04700000  0.93329000  1
  O  O216  1  0.62530000  0.38560000  0.47419000  1
  O  O217  1  0.62900000  0.62910000  0.64518000  1
  O  O218  1  0.67010000  0.15120000  0.14146000  1
  O  O219  1  0.73700000  0.30910000  0.14775000  1
  O  O220  1  0.77510000  0.93830000  0.36804000  1
  O  O221  1  0.79320000  0.07460000  0.47632000  1
  O  O222  1  0.86700000  0.89110000  0.52597000  1
  O  O223  1  0.87490000  0.35340000  0.97773000  1
  O  O224  1  0.88920000  0.44420000  0.92219000  1
  O  O225  1  0.89660000  0.65060000  0.97559000  1
  O  O226  1  0.90100000  0.56450000  0.03337000  1
  O  O227  1  0.91010000  0.84640000  0.36362000  1
  O  O228  1  0.94030000  0.58060000  0.86086000  1
  O  O229  1  0.94470000  0.09430000  0.52823000  1
  O  O230  1  0.94930000  0.53470000  0.14342000  1
  O  O231  1  0.97880000  0.04930000  0.42258000  1
