# generated using pymatgen
data_Yb3H36C66O13
_symmetry_space_group_name_H-M   'P 1'
_cell_length_a   19.84800000
_cell_length_b   19.84800000
_cell_length_c   27.85300000
_cell_angle_alpha   90.00000000
_cell_angle_beta   90.00000000
_cell_angle_gamma   120.00000000
_symmetry_Int_Tables_number   1
_chemical_formula_structural   Yb3H36C66O13
_chemical_formula_sum   'Yb6 H72 C132 O26'
_cell_volume   9502.46138372
_cell_formula_units_Z   2
loop_
 _symmetry_equiv_pos_site_id
 _symmetry_equiv_pos_as_xyz
  1  'x, y, z'
loop_
 _atom_site_type_symbol
 _atom_site_label
 _atom_site_symmetry_multiplicity
 _atom_site_fract_x
 _atom_site_fract_y
 _atom_site_fract_z
 _atom_site_occupancy
  Yb  Yb0  1  0.78540000  0.36573000  0.75000000  1
  Yb  Yb1  1  0.63427000  0.41967000  0.75000000  1
  Yb  Yb2  1  0.58033000  0.21460000  0.75000000  1
  Yb  Yb3  1  0.41967000  0.63427000  0.25000000  1
  Yb  Yb4  1  0.36573000  0.78540000  0.25000000  1
  Yb  Yb5  1  0.21460000  0.58033000  0.25000000  1
  H  H6  1  0.00000000  0.11680000  0.00000000  1
  H  H7  1  0.00000000  0.11680000  0.50000000  1
  H  H8  1  0.00000000  0.66840000  0.00000000  1
  H  H9  1  0.00000000  0.66840000  0.50000000  1
  H  H10  1  0.98460000  0.62700000  0.92210000  1
  H  H11  1  0.98460000  0.62700000  0.57790000  1
  H  H12  1  0.92480000  0.80470000  0.94500000  1
  H  H13  1  0.92480000  0.80470000  0.55500000  1
  H  H14  1  0.91610000  0.53530000  0.86370000  1
  H  H15  1  0.91610000  0.53530000  0.63630000  1
  H  H16  1  0.88320000  0.88320000  1.00000000  1
  H  H17  1  0.88320000  0.88320000  0.50000000  1
  H  H18  1  0.87990000  0.07520000  0.94500000  1
  H  H19  1  0.87990000  0.07520000  0.55500000  1
  H  H20  1  0.86550000  0.17940000  0.92400000  1
  H  H21  1  0.86550000  0.17940000  0.57600000  1
  H  H22  1  0.84080000  0.24630000  0.86640000  1
  H  H23  1  0.84080000  0.24630000  0.63360000  1
  H  H24  1  0.82060000  0.68610000  0.92400000  1
  H  H25  1  0.82060000  0.68610000  0.57600000  1
  H  H26  1  0.80470000  0.92480000  0.44500000  1
  H  H27  1  0.80470000  0.92480000  0.05500000  1
  H  H28  1  0.75370000  0.59450000  0.86640000  1
  H  H29  1  0.75370000  0.59450000  0.63360000  1
  H  H30  1  0.68610000  0.82060000  0.42400000  1
  H  H31  1  0.68610000  0.82060000  0.07600000  1
  H  H32  1  0.66840000  1.00000000  0.00000000  1
  H  H33  1  0.66840000  1.00000000  0.50000000  1
  H  H34  1  0.64240000  0.01540000  0.92210000  1
  H  H35  1  0.64240000  0.01540000  0.57790000  1
  H  H36  1  0.62700000  0.98460000  0.42210000  1
  H  H37  1  0.62700000  0.98460000  0.07790000  1
  H  H38  1  0.61920000  0.08390000  0.86370000  1
  H  H39  1  0.61920000  0.08390000  0.63630000  1
  H  H40  1  0.59450000  0.75370000  0.36640000  1
  H  H41  1  0.59450000  0.75370000  0.13360000  1
  H  H42  1  0.53530000  0.91610000  0.36370000  1
  H  H43  1  0.53530000  0.91610000  0.13630000  1
  H  H44  1  0.46470000  0.38080000  0.86370000  1
  H  H45  1  0.46470000  0.38080000  0.63630000  1
  H  H46  1  0.40550000  0.15920000  0.86640000  1
  H  H47  1  0.40550000  0.15920000  0.63360000  1
  H  H48  1  0.38080000  0.46470000  0.36370000  1
  H  H49  1  0.38080000  0.46470000  0.13630000  1
  H  H50  1  0.37300000  0.35760000  0.92210000  1
  H  H51  1  0.37300000  0.35760000  0.57790000  1
  H  H52  1  0.35760000  0.37300000  0.42210000  1
  H  H53  1  0.35760000  0.37300000  0.07790000  1
  H  H54  1  0.33160000  0.33160000  1.00000000  1
  H  H55  1  0.33160000  0.33160000  0.50000000  1
  H  H56  1  0.31390000  0.13450000  0.92400000  1
  H  H57  1  0.31390000  0.13450000  0.57600000  1
  H  H58  1  0.24630000  0.84080000  0.36640000  1
  H  H59  1  0.24630000  0.84080000  0.13360000  1
  H  H60  1  0.19530000  0.12010000  0.94500000  1
  H  H61  1  0.19530000  0.12010000  0.55500000  1
  H  H62  1  0.17940000  0.86550000  0.42400000  1
  H  H63  1  0.17940000  0.86550000  0.07600000  1
  H  H64  1  0.15920000  0.40550000  0.36640000  1
  H  H65  1  0.15920000  0.40550000  0.13360000  1
  H  H66  1  0.13450000  0.31390000  0.42400000  1
  H  H67  1  0.13450000  0.31390000  0.07600000  1
  H  H68  1  0.12010000  0.19530000  0.44500000  1
  H  H69  1  0.12010000  0.19530000  0.05500000  1
  H  H70  1  0.11680000  1.00000000  0.00000000  1
  H  H71  1  0.11680000  1.00000000  0.50000000  1
  H  H72  1  0.08390000  0.61920000  0.36370000  1
  H  H73  1  0.08390000  0.61920000  0.13630000  1
  H  H74  1  0.07520000  0.87990000  0.44500000  1
  H  H75  1  0.07520000  0.87990000  0.05500000  1
  H  H76  1  0.01540000  0.64240000  0.42210000  1
  H  H77  1  0.01540000  0.64240000  0.07790000  1
  C  C78  1  0.00000000  0.06990000  0.00000000  1
  C  C79  1  0.00000000  0.06990000  0.50000000  1
  C  C80  1  0.00000000  0.71520000  0.00000000  1
  C  C81  1  0.00000000  0.71520000  0.50000000  1
  C  C82  1  0.00000000  0.85450000  1.00000000  1
  C  C83  1  0.00000000  0.85450000  0.50000000  1
  C  C84  1  0.00000000  0.93010000  1.00000000  1
  C  C85  1  0.00000000  0.93010000  0.50000000  1
  C  C86  1  0.95570000  0.72730000  0.96580000  1
  C  C87  1  0.95570000  0.72730000  0.53420000  1
  C  C88  1  0.95540000  0.79650000  0.96690000  1
  C  C89  1  0.95540000  0.79650000  0.53310000  1
  C  C90  1  0.93770000  0.62080000  0.91080000  1
  C  C91  1  0.93770000  0.62080000  0.58920000  1
  C  C92  1  0.93010000  0.93010000  1.00000000  1
  C  C93  1  0.93010000  0.93010000  0.50000000  1
  C  C94  1  0.93010000  0.00000000  0.00000000  1
  C  C95  1  0.93010000  0.00000000  0.50000000  1
  C  C96  1  0.90920000  0.66600000  0.92910000  1
  C  C97  1  0.90920000  0.66600000  0.57090000  1
  C  C98  1  0.89670000  0.56600000  0.87560000  1
  C  C99  1  0.89670000  0.56600000  0.62440000  1
  C  C100  1  0.85450000  1.00000000  1.00000000  1
  C  C101  1  0.85450000  1.00000000  0.50000000  1
  C  C102  1  0.84110000  0.04460000  0.96690000  1
  C  C103  1  0.84110000  0.04460000  0.53310000  1
  C  C104  1  0.84060000  0.65590000  0.91210000  1
  C  C105  1  0.84060000  0.65590000  0.58790000  1
  C  C106  1  0.82920000  0.55660000  0.85850000  1
  C  C107  1  0.82920000  0.55660000  0.64150000  1
  C  C108  1  0.81530000  0.15940000  0.91210000  1
  C  C109  1  0.81530000  0.15940000  0.58790000  1
  C  C110  1  0.80100000  0.60140000  0.87740000  1
  C  C111  1  0.80100000  0.60140000  0.62260000  1
  C  C112  1  0.80040000  0.19900000  0.87740000  1
  C  C113  1  0.80040000  0.19900000  0.62260000  1
  C  C114  1  0.79650000  0.95540000  0.46690000  1
  C  C115  1  0.79650000  0.95540000  0.03310000  1
  C  C116  1  0.78570000  0.49720000  0.81950000  1
  C  C117  1  0.78570000  0.49720000  0.68050000  1
  C  C118  1  0.77160000  0.04430000  0.96580000  1
  C  C119  1  0.77160000  0.04430000  0.53420000  1
  C  C120  1  0.75680000  0.09080000  0.92910000  1
  C  C121  1  0.75680000  0.09080000  0.57090000  1
  C  C122  1  0.72740000  0.17080000  0.85850000  1
  C  C123  1  0.72740000  0.17080000  0.64150000  1
  C  C124  1  0.72730000  0.95570000  0.46580000  1
  C  C125  1  0.72730000  0.95570000  0.03420000  1
  C  C126  1  0.71520000  1.00000000  1.00000000  1
  C  C127  1  0.71520000  1.00000000  0.50000000  1
  C  C128  1  0.71150000  0.21430000  0.81950000  1
  C  C129  1  0.71150000  0.21430000  0.68050000  1
  C  C130  1  0.68310000  0.06230000  0.91080000  1
  C  C131  1  0.68310000  0.06230000  0.58920000  1
  C  C132  1  0.66930000  0.10330000  0.87560000  1
  C  C133  1  0.66930000  0.10330000  0.62440000  1
  C  C134  1  0.66600000  0.90920000  0.42910000  1
  C  C135  1  0.66600000  0.90920000  0.07090000  1
  C  C136  1  0.65590000  0.84060000  0.41210000  1
  C  C137  1  0.65590000  0.84060000  0.08790000  1
  C  C138  1  0.62080000  0.93770000  0.41080000  1
  C  C139  1  0.62080000  0.93770000  0.08920000  1
  C  C140  1  0.60140000  0.80100000  0.37740000  1
  C  C141  1  0.60140000  0.80100000  0.12260000  1
  C  C142  1  0.56600000  0.89670000  0.37560000  1
  C  C143  1  0.56600000  0.89670000  0.12440000  1
  C  C144  1  0.55660000  0.82920000  0.35850000  1
  C  C145  1  0.55660000  0.82920000  0.14150000  1
  C  C146  1  0.50280000  0.28850000  0.81950000  1
  C  C147  1  0.50280000  0.28850000  0.68050000  1
  C  C148  1  0.49720000  0.78570000  0.31950000  1
  C  C149  1  0.49720000  0.78570000  0.18050000  1
  C  C150  1  0.44340000  0.27260000  0.85850000  1
  C  C151  1  0.44340000  0.27260000  0.64150000  1
  C  C152  1  0.43400000  0.33070000  0.87560000  1
  C  C153  1  0.43400000  0.33070000  0.62440000  1
  C  C154  1  0.39860000  0.19960000  0.87740000  1
  C  C155  1  0.39860000  0.19960000  0.62260000  1
  C  C156  1  0.37920000  0.31690000  0.91080000  1
  C  C157  1  0.37920000  0.31690000  0.58920000  1
  C  C158  1  0.34410000  0.18470000  0.91210000  1
  C  C159  1  0.34410000  0.18470000  0.58790000  1
  C  C160  1  0.33400000  0.24320000  0.92910000  1
  C  C161  1  0.33400000  0.24320000  0.57090000  1
  C  C162  1  0.33070000  0.43400000  0.37560000  1
  C  C163  1  0.33070000  0.43400000  0.12440000  1
  C  C164  1  0.31690000  0.37920000  0.41080000  1
  C  C165  1  0.31690000  0.37920000  0.08920000  1
  C  C166  1  0.28850000  0.50280000  0.31950000  1
  C  C167  1  0.28850000  0.50280000  0.18050000  1
  C  C168  1  0.28480000  0.28480000  1.00000000  1
  C  C169  1  0.28480000  0.28480000  0.50000000  1
  C  C170  1  0.27270000  0.22840000  0.96580000  1
  C  C171  1  0.27270000  0.22840000  0.53420000  1
  C  C172  1  0.27260000  0.44340000  0.35850000  1
  C  C173  1  0.27260000  0.44340000  0.14150000  1
  C  C174  1  0.24320000  0.33400000  0.42910000  1
  C  C175  1  0.24320000  0.33400000  0.07090000  1
  C  C176  1  0.22840000  0.27270000  0.46580000  1
  C  C177  1  0.22840000  0.27270000  0.03420000  1
  C  C178  1  0.21430000  0.71150000  0.31950000  1
  C  C179  1  0.21430000  0.71150000  0.18050000  1
  C  C180  1  0.20350000  0.15890000  0.96690000  1
  C  C181  1  0.20350000  0.15890000  0.53310000  1
  C  C182  1  0.19960000  0.39860000  0.37740000  1
  C  C183  1  0.19960000  0.39860000  0.12260000  1
  C  C184  1  0.19900000  0.80040000  0.37740000  1
  C  C185  1  0.19900000  0.80040000  0.12260000  1
  C  C186  1  0.18470000  0.34410000  0.41210000  1
  C  C187  1  0.18470000  0.34410000  0.08790000  1
  C  C188  1  0.17080000  0.72740000  0.35850000  1
  C  C189  1  0.17080000  0.72740000  0.14150000  1
  C  C190  1  0.15940000  0.81530000  0.41210000  1
  C  C191  1  0.15940000  0.81530000  0.08790000  1
  C  C192  1  0.15890000  0.20350000  0.46690000  1
  C  C193  1  0.15890000  0.20350000  0.03310000  1
  C  C194  1  0.14550000  0.14550000  1.00000000  1
  C  C195  1  0.14550000  0.14550000  0.50000000  1
  C  C196  1  0.10330000  0.66930000  0.37560000  1
  C  C197  1  0.10330000  0.66930000  0.12440000  1
  C  C198  1  0.09080000  0.75680000  0.42910000  1
  C  C199  1  0.09080000  0.75680000  0.07090000  1
  C  C200  1  0.06990000  0.06990000  1.00000000  1
  C  C201  1  0.06990000  0.06990000  0.50000000  1
  C  C202  1  0.06990000  1.00000000  1.00000000  1
  C  C203  1  0.06990000  1.00000000  0.50000000  1
  C  C204  1  0.06230000  0.68310000  0.41080000  1
  C  C205  1  0.06230000  0.68310000  0.08920000  1
  C  C206  1  0.04460000  0.84110000  0.46690000  1
  C  C207  1  0.04460000  0.84110000  0.03310000  1
  C  C208  1  0.04430000  0.77160000  0.46580000  1
  C  C209  1  0.04430000  0.77160000  0.03420000  1
  O  O210  1  0.81360000  0.45740000  0.80490000  1
  O  O211  1  0.81360000  0.45740000  0.69510000  1
  O  O212  1  0.76890000  0.27870000  0.80540000  1
  O  O213  1  0.76890000  0.27870000  0.69460000  1
  O  O214  1  0.72130000  0.49020000  0.80540000  1
  O  O215  1  0.72130000  0.49020000  0.69460000  1
  O  O216  1  0.66666667  0.33333333  0.75000000  1
  O  O217  1  0.64380000  0.18640000  0.80490000  1
  O  O218  1  0.64380000  0.18640000  0.69510000  1
  O  O219  1  0.54260000  0.35620000  0.80490000  1
  O  O220  1  0.54260000  0.35620000  0.69510000  1
  O  O221  1  0.50980000  0.23110000  0.80540000  1
  O  O222  1  0.50980000  0.23110000  0.69460000  1
  O  O223  1  0.49020000  0.72130000  0.30540000  1
  O  O224  1  0.49020000  0.72130000  0.19460000  1
  O  O225  1  0.45740000  0.81360000  0.30490000  1
  O  O226  1  0.45740000  0.81360000  0.19510000  1
  O  O227  1  0.35620000  0.54260000  0.30490000  1
  O  O228  1  0.35620000  0.54260000  0.19510000  1
  O  O229  1  0.33333333  0.66666667  0.25000000  1
  O  O230  1  0.27870000  0.76890000  0.30540000  1
  O  O231  1  0.27870000  0.76890000  0.19460000  1
  O  O232  1  0.23110000  0.50980000  0.30540000  1
  O  O233  1  0.23110000  0.50980000  0.19460000  1
  O  O234  1  0.18640000  0.64380000  0.30490000  1
  O  O235  1  0.18640000  0.64380000  0.19510000  1
