# generated using pymatgen
data_Cu3H24C48(N5O6)2
_symmetry_space_group_name_H-M   'P 1'
_cell_length_a   34.68530000
_cell_length_b   34.68530000
_cell_length_c   35.26985060
_cell_angle_alpha   119.45277012
_cell_angle_beta   119.45372091
_cell_angle_gamma   90.00000000
_symmetry_Int_Tables_number   1
_chemical_formula_structural   Cu3H24C48(N5O6)2
_chemical_formula_sum   'Cu24 H192 C384 N80 O96'
_cell_volume   30493.19414487
_cell_formula_units_Z   8
loop_
 _symmetry_equiv_pos_site_id
 _symmetry_equiv_pos_as_xyz
  1  'x, y, z'
loop_
 _atom_site_type_symbol
 _atom_site_label
 _atom_site_symmetry_multiplicity
 _atom_site_fract_x
 _atom_site_fract_y
 _atom_site_fract_z
 _atom_site_occupancy
  Cu  Cu0  1  0.96042000  0.03091000  0.77438000  1
  Cu  Cu1  1  0.25653000  0.03958000  0.22562000  1
  Cu  Cu2  1  0.94920000  0.04281000  0.70104000  1
  Cu  Cu3  1  0.34177000  0.05080000  0.29896000  1
  Cu  Cu4  1  0.21673000  0.06661000  0.00000000  1
  Cu  Cu5  1  0.29021000  0.08862000  0.00000000  1
  Cu  Cu6  1  0.96909000  0.18604000  0.22562000  1
  Cu  Cu7  1  0.93339000  0.21673000  1.00000000  1
  Cu  Cu8  1  0.95719000  0.24816000  0.29896000  1
  Cu  Cu9  1  0.18604000  0.25653000  0.22562000  1
  Cu  Cu10  1  0.91138000  0.29021000  0.00000000  1
  Cu  Cu11  1  0.24816000  0.34177000  0.29896000  1
  Cu  Cu12  1  0.75184000  0.65823000  0.70104000  1
  Cu  Cu13  1  0.08862000  0.70979000  0.00000000  1
  Cu  Cu14  1  0.81396000  0.74347000  0.77438000  1
  Cu  Cu15  1  0.04281000  0.75184000  0.70104000  1
  Cu  Cu16  1  0.06661000  0.78327000  1.00000000  1
  Cu  Cu17  1  0.03091000  0.81396000  0.77438000  1
  Cu  Cu18  1  0.70979000  0.91138000  1.00000000  1
  Cu  Cu19  1  0.78327000  0.93339000  0.00000000  1
  Cu  Cu20  1  0.65823000  0.94920000  0.70104000  1
  Cu  Cu21  1  0.05080000  0.95719000  0.29896000  1
  Cu  Cu22  1  0.74347000  0.96042000  0.77438000  1
  Cu  Cu23  1  0.03958000  0.96909000  0.22562000  1
  H  H24  1  0.54130000  0.00840000  0.27060000  1
  H  H25  1  0.46300000  0.00880000  0.21760000  1
  H  H26  1  0.18150000  0.01560000  0.28200000  1
  H  H27  1  0.20160000  0.01780000  0.40640000  1
  H  H28  1  0.40690000  0.02170000  0.69320000  1
  H  H29  1  0.27540000  0.03000000  0.55700000  1
  H  H30  1  0.40280000  0.03010000  0.21280000  1
  H  H31  1  0.25660000  0.03390000  0.48780000  1
  H  H32  1  0.28900000  0.04390000  0.63500000  1
  H  H33  1  0.33220000  0.04410000  0.75380000  1
  H  H34  1  0.38660000  0.04730000  0.09960000  1
  H  H35  1  0.71300000  0.05230000  0.09960000  1
  H  H36  1  0.31240000  0.05410000  0.40420000  1
  H  H37  1  0.27950000  0.05680000  0.77440000  1
  H  H38  1  0.29040000  0.05980000  0.13420000  1
  H  H39  1  0.46930000  0.07370000  0.86140000  1
  H  H40  1  0.84380000  0.07440000  0.13420000  1
  H  H41  1  0.10920000  0.07620000  0.87500000  1
  H  H42  1  0.23740000  0.08420000  0.81260000  1
  H  H43  1  0.09260000  0.08930000  0.76120000  1
  H  H44  1  0.05410000  0.09180000  0.40420000  1
  H  H45  1  0.67190000  0.09260000  0.76120000  1
  H  H46  1  0.40690000  0.09520000  0.63220000  1
  H  H47  1  0.01560000  0.10050000  0.28200000  1
  H  H48  1  0.41170000  0.10350000  0.82260000  1
  H  H49  1  0.22170000  0.10580000  0.87580000  1
  H  H50  1  0.79880000  0.10920000  0.87500000  1
  H  H51  1  0.42070000  0.11250000  0.71060000  1
  H  H52  1  0.32270000  0.14270000  0.72940000  1
  H  H53  1  0.26580000  0.15610000  0.75040000  1
  H  H54  1  0.94020000  0.15620000  0.86580000  1
  H  H55  1  0.26640000  0.18150000  0.28200000  1
  H  H56  1  0.81000000  0.18270000  0.21280000  1
  H  H57  1  0.96990000  0.19000000  0.78720000  1
  H  H58  1  0.23420000  0.20120000  0.12500000  1
  H  H59  1  0.38860000  0.20160000  0.40640000  1
  H  H60  1  0.01780000  0.20480000  0.40640000  1
  H  H61  1  0.75460000  0.20880000  0.21760000  1
  H  H62  1  0.60790000  0.21230000  0.13860000  1
  H  H63  1  0.77000000  0.22170000  0.87580000  1
  H  H64  1  0.09520000  0.22530000  0.63220000  1
  H  H65  1  0.34590000  0.23000000  0.12420000  1
  H  H66  1  0.03390000  0.23120000  0.48780000  1
  H  H67  1  0.92380000  0.23420000  0.12500000  1
  H  H68  1  0.72840000  0.23740000  0.81260000  1
  H  H69  1  0.99120000  0.24540000  0.78240000  1
  H  H70  1  0.45390000  0.25660000  0.48780000  1
  H  H71  1  0.72930000  0.26220000  0.27060000  1
  H  H72  1  0.59430000  0.26580000  0.75040000  1
  H  H73  1  0.10050000  0.26640000  0.28200000  1
  H  H74  1  0.99160000  0.27070000  0.72940000  1
  H  H75  1  0.42480000  0.27160000  0.18740000  1
  H  H76  1  0.52700000  0.27540000  0.55700000  1
  H  H77  1  0.71760000  0.27950000  0.77440000  1
  H  H78  1  0.58910000  0.28090000  0.17740000  1
  H  H79  1  0.03000000  0.28160000  0.55700000  1
  H  H80  1  0.50510000  0.28240000  0.22560000  1
  H  H81  1  0.02170000  0.28630000  0.69320000  1
  H  H82  1  0.95270000  0.28700000  0.90040000  1
  H  H83  1  0.59110000  0.28900000  0.63500000  1
  H  H84  1  0.11250000  0.28990000  0.71060000  1
  H  H85  1  0.57840000  0.29030000  0.24620000  1
  H  H86  1  0.07440000  0.29040000  0.13420000  1
  H  H87  1  0.35010000  0.31240000  0.40420000  1
  H  H88  1  0.58670000  0.32270000  0.72940000  1
  H  H89  1  0.33140000  0.32810000  0.23880000  1
  H  H90  1  0.71370000  0.32850000  0.30680000  1
  H  H91  1  0.91070000  0.33140000  0.23880000  1
  H  H92  1  0.70970000  0.33220000  0.75380000  1
  H  H93  1  0.89420000  0.34590000  0.12420000  1
  H  H94  1  0.04390000  0.34600000  0.63500000  1
  H  H95  1  0.09180000  0.35010000  0.40420000  1
  H  H96  1  0.05230000  0.38660000  0.09960000  1
  H  H97  1  0.20480000  0.38860000  0.40640000  1
  H  H98  1  0.07370000  0.39210000  0.86140000  1
  H  H99  1  0.71010000  0.40190000  0.28940000  1
  H  H100  1  0.18270000  0.40280000  0.21280000  1
  H  H101  1  0.51540000  0.40570000  0.24960000  1
  H  H102  1  0.14270000  0.40670000  0.72940000  1
  H  H103  1  0.67150000  0.40690000  0.69320000  1
  H  H104  1  0.53700000  0.40690000  0.63220000  1
  H  H105  1  0.65400000  0.40890000  0.36500000  1
  H  H106  1  0.10350000  0.41090000  0.82260000  1
  H  H107  1  0.71910000  0.41170000  0.82260000  1
  H  H108  1  0.59330000  0.41330000  0.27060000  1
  H  H109  1  0.59810000  0.42070000  0.71060000  1
  H  H110  1  0.04410000  0.42160000  0.75380000  1
  H  H111  1  0.91580000  0.42480000  0.18740000  1
  H  H112  1  0.23120000  0.45390000  0.48780000  1
  H  H113  1  0.73780000  0.45870000  0.72940000  1
  H  H114  1  0.20880000  0.46300000  0.21760000  1
  H  H115  1  0.77470000  0.46300000  0.36780000  1
  H  H116  1  0.78770000  0.46930000  0.86140000  1
  H  H117  1  0.71840000  0.47300000  0.44300000  1
  H  H118  1  0.15610000  0.48460000  0.75040000  1
  H  H119  1  0.05680000  0.49490000  0.77440000  1
  H  H120  1  0.94320000  0.50510000  0.22560000  1
  H  H121  1  0.84390000  0.51540000  0.24960000  1
  H  H122  1  0.28160000  0.52700000  0.55700000  1
  H  H123  1  0.21230000  0.53070000  0.13860000  1
  H  H124  1  0.22530000  0.53700000  0.63220000  1
  H  H125  1  0.79120000  0.53700000  0.78240000  1
  H  H126  1  0.26220000  0.54130000  0.27060000  1
  H  H127  1  0.76880000  0.54610000  0.51220000  1
  H  H128  1  0.08420000  0.57520000  0.81260000  1
  H  H129  1  0.95590000  0.57840000  0.24620000  1
  H  H130  1  0.40190000  0.57930000  0.28940000  1
  H  H131  1  0.40670000  0.58670000  0.72940000  1
  H  H132  1  0.28090000  0.58830000  0.17740000  1
  H  H133  1  0.89650000  0.58910000  0.17740000  1
  H  H134  1  0.34600000  0.59110000  0.63500000  1
  H  H135  1  0.46300000  0.59310000  0.36780000  1
  H  H136  1  0.32850000  0.59310000  0.30680000  1
  H  H137  1  0.85730000  0.59330000  0.27060000  1
  H  H138  1  0.48460000  0.59430000  0.75040000  1
  H  H139  1  0.81730000  0.59720000  0.78720000  1
  H  H140  1  0.28990000  0.59810000  0.71060000  1
  H  H141  1  0.92630000  0.60790000  0.13860000  1
  H  H142  1  0.79520000  0.61140000  0.59360000  1
  H  H143  1  0.94770000  0.61340000  0.90040000  1
  H  H144  1  0.90820000  0.64990000  0.59580000  1
  H  H145  1  0.95610000  0.65400000  0.36500000  1
  H  H146  1  0.10580000  0.65410000  0.87580000  1
  H  H147  1  0.29030000  0.66780000  0.24620000  1
  H  H148  1  0.08930000  0.66860000  0.76120000  1
  H  H149  1  0.28630000  0.67150000  0.69320000  1
  H  H150  1  0.66860000  0.67190000  0.76120000  1
  H  H151  1  0.41330000  0.67730000  0.27060000  1
  H  H152  1  0.64990000  0.68760000  0.59580000  1
  H  H153  1  0.92560000  0.70960000  0.86580000  1
  H  H154  1  0.42160000  0.70970000  0.75380000  1
  H  H155  1  0.88750000  0.71010000  0.28940000  1
  H  H156  1  0.40890000  0.71100000  0.36500000  1
  H  H157  1  0.04730000  0.71300000  0.09960000  1
  H  H158  1  0.97830000  0.71370000  0.30680000  1
  H  H159  1  0.49490000  0.71760000  0.77440000  1
  H  H160  1  0.97000000  0.71840000  0.44300000  1
  H  H161  1  0.41090000  0.71910000  0.82260000  1
  H  H162  1  0.28240000  0.72050000  0.22560000  1
  H  H163  1  0.47300000  0.72460000  0.44300000  1
  H  H164  1  0.57520000  0.72840000  0.81260000  1
  H  H165  1  0.00840000  0.72930000  0.27060000  1
  H  H166  1  0.89950000  0.73360000  0.71800000  1
  H  H167  1  0.40570000  0.73420000  0.24960000  1
  H  H168  1  0.27070000  0.73780000  0.72940000  1
  H  H169  1  0.54610000  0.74340000  0.51220000  1
  H  H170  1  0.00880000  0.75460000  0.21760000  1
  H  H171  1  0.27160000  0.76260000  0.18740000  1
  H  H172  1  0.07620000  0.76580000  0.87500000  1
  H  H173  1  0.96610000  0.76880000  0.51220000  1
  H  H174  1  0.65410000  0.77000000  0.87580000  1
  H  H175  1  0.90480000  0.77470000  0.36780000  1
  H  H176  1  0.23000000  0.77830000  0.12420000  1
  H  H177  1  0.39210000  0.78770000  0.86140000  1
  H  H178  1  0.24540000  0.79120000  0.78240000  1
  H  H179  1  0.98220000  0.79520000  0.59360000  1
  H  H180  1  0.61140000  0.79840000  0.59360000  1
  H  H181  1  0.76580000  0.79880000  0.87500000  1
  H  H182  1  0.03010000  0.81000000  0.21280000  1
  H  H183  1  0.19000000  0.81730000  0.78720000  1
  H  H184  1  0.73360000  0.81850000  0.71800000  1
  H  H185  1  0.05980000  0.84380000  0.13420000  1
  H  H186  1  0.73420000  0.84390000  0.24960000  1
  H  H187  1  0.67730000  0.85730000  0.27060000  1
  H  H188  1  0.57930000  0.88750000  0.28940000  1
  H  H189  1  0.20120000  0.89080000  0.12500000  1
  H  H190  1  0.77830000  0.89420000  0.12420000  1
  H  H191  1  0.58830000  0.89650000  0.17740000  1
  H  H192  1  0.98440000  0.89950000  0.71800000  1
  H  H193  1  0.59310000  0.90480000  0.36780000  1
  H  H194  1  0.32810000  0.90740000  0.23880000  1
  H  H195  1  0.94590000  0.90820000  0.59580000  1
  H  H196  1  0.90740000  0.91070000  0.23880000  1
  H  H197  1  0.76260000  0.91580000  0.18740000  1
  H  H198  1  0.89080000  0.92380000  0.12500000  1
  H  H199  1  0.15620000  0.92560000  0.86580000  1
  H  H200  1  0.53070000  0.92630000  0.13860000  1
  H  H201  1  0.70960000  0.94020000  0.86580000  1
  H  H202  1  0.72050000  0.94320000  0.22560000  1
  H  H203  1  0.68760000  0.94590000  0.59580000  1
  H  H204  1  0.28700000  0.94770000  0.90040000  1
  H  H205  1  0.61340000  0.95270000  0.90040000  1
  H  H206  1  0.66780000  0.95590000  0.24620000  1
  H  H207  1  0.71100000  0.95610000  0.36500000  1
  H  H208  1  0.74340000  0.96610000  0.51220000  1
  H  H209  1  0.59720000  0.96990000  0.78720000  1
  H  H210  1  0.72460000  0.97000000  0.44300000  1
  H  H211  1  0.59310000  0.97830000  0.30680000  1
  H  H212  1  0.79840000  0.98220000  0.59360000  1
  H  H213  1  0.81850000  0.98440000  0.71800000  1
  H  H214  1  0.53700000  0.99120000  0.78240000  1
  H  H215  1  0.45870000  0.99160000  0.72940000  1
  C  C216  1  0.50050000  0.00320000  0.81700000  1
  C  C217  1  0.76496000  0.00405000  0.06984000  1
  C  C218  1  0.86991000  0.00690000  0.69036000  1
  C  C219  1  0.46610000  0.00890000  0.19240000  1
  C  C220  1  0.18401000  0.01251000  0.33906000  1
  C  C221  1  0.45020000  0.01530000  0.74960000  1
  C  C222  1  0.20207000  0.02023000  0.31520000  1
  C  C223  1  0.21366000  0.02139000  0.38890000  1
  C  C224  1  0.46830000  0.03140000  0.79720000  1
  C  C225  1  0.41880000  0.03260000  0.72860000  1
  C  C226  1  0.39998000  0.03384000  0.15548000  1
  C  C227  1  0.25026000  0.03475000  0.33940000  1
  C  C228  1  0.26093000  0.03553000  0.41206000  1
  C  C229  1  0.38531000  0.03628000  0.18676000  1
  C  C230  1  0.26864000  0.03942000  0.31054000  1
  C  C231  1  0.71945000  0.04078000  0.78576000  1
  C  C232  1  0.03942000  0.04190000  0.31054000  1
  C  C233  1  0.28638000  0.04306000  0.49472000  1
  C  C234  1  0.27963000  0.04322000  0.38710000  1
  C  C235  1  0.37496000  0.04576000  0.11832000  1
  C  C236  1  0.34586000  0.04756000  0.18000000  1
  C  C237  1  0.30530000  0.04860000  0.58940000  1
  C  C238  1  0.32882000  0.05003000  0.21304000  1
  C  C239  1  0.31930000  0.05480000  0.14064000  1
  C  C240  1  0.33394000  0.05489000  0.11012000  1
  C  C241  1  0.77618000  0.05523000  0.11012000  1
  C  C242  1  0.31390000  0.05590000  0.63540000  1
  C  C243  1  0.32717000  0.05887000  0.53974000  1
  C  C244  1  0.45550000  0.06300000  0.82580000  1
  C  C245  1  0.40150000  0.06460000  0.75240000  1
  C  C246  1  0.30488000  0.06579000  0.06984000  1
  C  C247  1  0.04078000  0.06631000  0.78576000  1
  C  C248  1  0.33900000  0.06780000  0.59120000  1
  C  C249  1  0.31900000  0.06790000  0.75300000  1
  C  C250  1  0.74336000  0.07256000  0.11832000  1
  C  C251  1  0.28660000  0.07400000  0.76320000  1
  C  C252  1  0.35680000  0.07960000  0.68080000  1
  C  C253  1  0.42090000  0.08060000  0.80260000  1
  C  C254  1  0.12232000  0.08217000  0.85954000  1
  C  C255  1  0.09391000  0.08252000  0.81488000  1
  C  C256  1  0.82134000  0.08584000  0.14064000  1
  C  C257  1  0.20136000  0.08629000  0.92800000  1
  C  C258  1  0.38160000  0.08690000  0.63340000  1
  C  C259  1  0.03475000  0.08914000  0.33940000  1
  C  C260  1  0.16907000  0.09047000  0.88084000  1
  C  C261  1  0.11232000  0.09065000  0.79268000  1
  C  C262  1  0.33360000  0.09330000  0.74120000  1
  C  C263  1  0.73236000  0.09391000  0.81488000  1
  C  C264  1  0.39020000  0.09520000  0.67940000  1
  C  C265  1  0.21879000  0.09769000  0.79518000  1
  C  C266  1  0.18908000  0.10005000  0.86030000  1
  C  C267  1  0.16122000  0.10126000  0.81632000  1
  C  C268  1  0.26480000  0.10360000  0.75860000  1
  C  C269  1  0.04322000  0.10747000  0.38710000  1
  C  C270  1  0.70203000  0.11232000  0.79268000  1
  C  C271  1  0.22580000  0.11240000  0.76840000  1
  C  C272  1  0.02023000  0.11313000  0.31520000  1
  C  C273  1  0.94997000  0.11578000  0.78696000  1
  C  C274  1  0.75550000  0.12164000  0.15548000  1
  C  C275  1  0.77737000  0.12232000  0.85954000  1
  C  C276  1  0.31380000  0.12450000  0.73860000  1
  C  C277  1  0.31654000  0.13009000  0.30964000  1
  C  C278  1  0.27860000  0.13170000  0.74960000  1
  C  C279  1  0.83414000  0.13244000  0.18000000  1
  C  C280  1  0.80145000  0.15048000  0.18676000  1
  C  C281  1  0.03553000  0.15113000  0.41206000  1
  C  C282  1  0.01251000  0.15505000  0.33906000  1
  C  C283  1  0.27336000  0.15829000  0.07200000  1
  C  C284  1  0.71506000  0.16122000  0.81632000  1
  C  C285  1  0.88422000  0.16301000  0.21304000  1
  C  C286  1  0.95244000  0.16586000  0.82000000  1
  C  C287  1  0.79037000  0.16907000  0.88084000  1
  C  C288  1  0.02139000  0.17524000  0.38890000  1
  C  C289  1  0.94520000  0.17866000  0.85936000  1
  C  C290  1  0.99310000  0.17955000  0.30964000  1
  C  C291  1  0.72630000  0.18350000  0.19240000  1
  C  C292  1  0.32655000  0.18401000  0.33906000  1
  C  C293  1  0.68350000  0.18620000  0.18300000  1
  C  C294  1  0.76025000  0.18908000  0.86030000  1
  C  C295  1  0.96372000  0.19855000  0.81324000  1
  C  C296  1  0.84171000  0.20136000  0.92800000  1
  C  C297  1  0.29497000  0.20207000  0.31520000  1
  C  C298  1  0.04306000  0.20834000  0.49472000  1
  C  C299  1  0.28823000  0.20963000  0.11916000  1
  C  C300  1  0.05887000  0.21257000  0.53974000  1
  C  C301  1  0.36751000  0.21366000  0.38890000  1
  C  C302  1  0.69749000  0.21879000  0.79518000  1
  C  C303  1  0.26278000  0.22263000  0.14046000  1
  C  C304  1  0.94511000  0.22382000  0.88988000  1
  C  C305  1  0.65600000  0.22580000  0.76840000  1
  C  C306  1  0.67110000  0.23420000  0.20280000  1
  C  C307  1  0.93421000  0.23504000  0.93016000  1
  C  C308  1  0.62970000  0.23720000  0.17420000  1
  C  C309  1  0.32878000  0.23975000  0.13970000  1
  C  C310  1  0.96616000  0.24450000  0.84452000  1
  C  C311  1  0.30465000  0.25026000  0.33940000  1
  C  C312  1  0.08690000  0.25180000  0.63340000  1
  C  C313  1  0.06780000  0.25220000  0.59120000  1
  C  C314  1  0.93369000  0.25502000  0.21424000  1
  C  C315  1  0.95424000  0.25664000  0.88168000  1
  C  C316  1  0.37653000  0.26093000  0.41206000  1
  C  C317  1  0.91783000  0.26278000  0.14046000  1
  C  C318  1  0.65500000  0.26480000  0.75860000  1
  C  C319  1  0.70060000  0.26570000  0.25040000  1
  C  C320  1  0.27903000  0.26764000  0.18512000  1
  C  C321  1  0.27112000  0.26864000  0.31054000  1
  C  C322  1  0.04190000  0.27112000  0.31054000  1
  C  C323  1  0.91371000  0.27336000  0.07200000  1
  C  C324  1  0.99110000  0.27370000  0.80760000  1
  C  C325  1  0.61830000  0.27800000  0.19740000  1
  C  C326  1  0.61790000  0.27860000  0.74960000  1
  C  C327  1  0.91748000  0.27903000  0.18512000  1
  C  C328  1  0.34388000  0.27963000  0.38710000  1
  C  C329  1  0.25502000  0.28055000  0.21424000  1
  C  C330  1  0.04860000  0.28410000  0.58940000  1
  C  C331  1  0.34490000  0.28494000  0.18368000  1
  C  C332  1  0.45166000  0.28638000  0.49472000  1
  C  C333  1  0.68920000  0.28660000  0.76320000  1
  C  C334  1  0.90953000  0.28823000  0.11916000  1
  C  C335  1  0.09520000  0.28920000  0.67940000  1
  C  C336  1  0.11313000  0.29497000  0.31520000  1
  C  C337  1  0.31964000  0.29797000  0.20732000  1
  C  C338  1  0.01530000  0.29940000  0.74960000  1
  C  C339  1  0.42361000  0.30251000  0.20482000  1
  C  C340  1  0.69020000  0.30400000  0.27140000  1
  C  C341  1  0.08914000  0.30465000  0.33940000  1
  C  C342  1  0.00405000  0.30488000  0.06984000  1
  C  C343  1  0.54080000  0.30530000  0.58940000  1
  C  C344  1  0.03260000  0.30980000  0.72860000  1
  C  C345  1  0.52340000  0.31080000  0.23680000  1
  C  C346  1  0.64910000  0.31220000  0.24760000  1
  C  C347  1  0.61410000  0.31380000  0.73860000  1
  C  C348  1  0.57950000  0.31390000  0.63540000  1
  C  C349  1  0.56600000  0.31490000  0.24700000  1
  C  C350  1  0.00320000  0.31650000  0.81700000  1
  C  C351  1  0.17955000  0.31654000  0.30964000  1
  C  C352  1  0.68510000  0.31900000  0.75300000  1
  C  C353  1  0.08584000  0.31930000  0.14064000  1
  C  C354  1  0.90935000  0.31964000  0.20732000  1
  C  C355  1  0.05590000  0.32150000  0.63540000  1
  C  C356  1  0.07960000  0.32400000  0.68080000  1
  C  C357  1  0.15505000  0.32655000  0.33906000  1
  C  C358  1  0.48087000  0.32717000  0.53974000  1
  C  C359  1  0.89995000  0.32878000  0.13970000  1
  C  C360  1  0.16301000  0.32882000  0.21304000  1
  C  C361  1  0.03140000  0.32890000  0.79720000  1
  C  C362  1  0.64790000  0.33360000  0.74120000  1
  C  C363  1  0.05523000  0.33394000  0.11012000  1
  C  C364  1  0.52340000  0.33900000  0.59120000  1
  C  C365  1  0.10747000  0.34388000  0.38710000  1
  C  C366  1  0.45740000  0.34400000  0.23160000  1
  C  C367  1  0.89874000  0.34490000  0.18368000  1
  C  C368  1  0.50620000  0.34500000  0.24140000  1
  C  C369  1  0.13244000  0.34586000  0.18000000  1
  C  C370  1  0.06460000  0.35090000  0.75240000  1
  C  C371  1  0.59240000  0.35210000  0.25880000  1
  C  C372  1  0.60120000  0.35680000  0.68080000  1
  C  C373  1  0.17524000  0.36751000  0.38890000  1
  C  C374  1  0.06300000  0.37030000  0.82580000  1
  C  C375  1  0.07256000  0.37496000  0.11832000  1
  C  C376  1  0.15113000  0.37653000  0.41206000  1
  C  C377  1  0.54650000  0.38160000  0.63340000  1
  C  C378  1  0.08060000  0.38170000  0.80260000  1
  C  C379  1  0.52900000  0.38210000  0.25040000  1
  C  C380  1  0.15048000  0.38531000  0.18676000  1
  C  C381  1  0.57520000  0.38590000  0.26140000  1
  C  C382  1  0.58420000  0.39020000  0.67940000  1
  C  C383  1  0.67600000  0.39880000  0.31920000  1
  C  C384  1  0.12164000  0.39998000  0.15548000  1
  C  C385  1  0.68780000  0.40150000  0.75240000  1
  C  C386  1  0.09330000  0.40760000  0.74120000  1
  C  C387  1  0.71080000  0.41580000  0.32060000  1
  C  C388  1  0.69600000  0.41880000  0.72860000  1
  C  C389  1  0.67850000  0.42050000  0.36460000  1
  C  C390  1  0.72200000  0.42090000  0.80260000  1
  C  C391  1  0.90231000  0.42361000  0.20482000  1
  C  C392  1  0.12450000  0.42480000  0.73860000  1
  C  C393  1  0.06790000  0.43400000  0.75300000  1
  C  C394  1  0.73430000  0.45020000  0.74960000  1
  C  C395  1  0.20834000  0.45166000  0.49472000  1
  C  C396  1  0.74820000  0.45350000  0.36660000  1
  C  C397  1  0.76280000  0.45550000  0.82580000  1
  C  C398  1  0.88760000  0.45740000  0.23160000  1
  C  C399  1  0.71590000  0.45920000  0.41060000  1
  C  C400  1  0.18350000  0.46610000  0.19240000  1
  C  C401  1  0.76580000  0.46830000  0.79720000  1
  C  C402  1  0.13170000  0.47100000  0.74960000  1
  C  C403  1  0.74780000  0.47660000  0.40880000  1
  C  C404  1  0.07400000  0.47660000  0.76320000  1
  C  C405  1  0.21257000  0.48087000  0.53974000  1
  C  C406  1  0.10360000  0.49380000  0.75860000  1
  C  C407  1  0.18620000  0.49950000  0.18300000  1
  C  C408  1  0.81380000  0.50050000  0.81700000  1
  C  C409  1  0.89640000  0.50620000  0.24140000  1
  C  C410  1  0.78743000  0.51913000  0.46026000  1
  C  C411  1  0.92600000  0.52340000  0.23680000  1
  C  C412  1  0.25220000  0.52340000  0.59120000  1
  C  C413  1  0.86830000  0.52900000  0.25040000  1
  C  C414  1  0.23420000  0.53170000  0.20280000  1
  C  C415  1  0.81650000  0.53390000  0.80760000  1
  C  C416  1  0.28410000  0.54080000  0.58940000  1
  C  C417  1  0.11240000  0.54260000  0.76840000  1
  C  C418  1  0.23720000  0.54450000  0.17420000  1
  C  C419  1  0.25180000  0.54650000  0.63340000  1
  C  C420  1  0.79166000  0.54834000  0.50528000  1
  C  C421  1  0.26570000  0.54980000  0.25040000  1
  C  C422  1  0.93210000  0.56600000  0.24700000  1
  C  C423  1  0.87550000  0.57520000  0.26140000  1
  C  C424  1  0.09769000  0.57639000  0.79518000  1
  C  C425  1  0.27800000  0.57910000  0.19740000  1
  C  C426  1  0.32150000  0.57950000  0.63540000  1
  C  C427  1  0.30400000  0.58120000  0.27140000  1
  C  C428  1  0.28920000  0.58420000  0.67940000  1
  C  C429  1  0.90670000  0.59240000  0.25880000  1
  C  C430  1  0.31220000  0.59850000  0.24760000  1
  C  C431  1  0.87836000  0.60002000  0.84452000  1
  C  C432  1  0.32400000  0.60120000  0.68080000  1
  C  C433  1  0.41580000  0.60980000  0.32060000  1
  C  C434  1  0.42480000  0.61410000  0.73860000  1
  C  C435  1  0.84952000  0.61469000  0.81324000  1
  C  C436  1  0.47100000  0.61790000  0.74960000  1
  C  C437  1  0.91940000  0.61830000  0.19740000  1
  C  C438  1  0.45350000  0.61840000  0.36660000  1
  C  C439  1  0.84887000  0.62347000  0.58794000  1
  C  C440  1  0.92744000  0.62504000  0.88168000  1
  C  C441  1  0.93700000  0.62970000  0.17420000  1
  C  C442  1  0.82476000  0.63249000  0.61110000  1
  C  C443  1  0.39880000  0.64320000  0.31920000  1
  C  C444  1  0.40760000  0.64790000  0.74120000  1
  C  C445  1  0.93540000  0.64910000  0.24760000  1
  C  C446  1  0.86756000  0.65414000  0.82000000  1
  C  C447  1  0.49380000  0.65500000  0.75860000  1
  C  C448  1  0.10126000  0.65510000  0.81632000  1
  C  C449  1  0.54260000  0.65600000  0.76840000  1
  C  C450  1  0.89253000  0.65612000  0.61290000  1
  C  C451  1  0.47660000  0.66100000  0.40880000  1
  C  C452  1  0.94477000  0.66606000  0.88988000  1
  C  C453  1  0.35210000  0.66640000  0.25880000  1
  C  C454  1  0.96860000  0.67110000  0.20280000  1
  C  C455  1  0.83699000  0.67118000  0.78696000  1
  C  C456  1  0.10005000  0.67122000  0.86030000  1
  C  C457  1  0.51913000  0.67283000  0.46026000  1
  C  C458  1  0.84495000  0.67345000  0.66094000  1
  C  C459  1  0.92040000  0.67600000  0.31920000  1
  C  C460  1  0.94410000  0.67850000  0.36460000  1
  C  C461  1  0.09065000  0.68036000  0.79268000  1
  C  C462  1  0.91416000  0.68070000  0.85936000  1
  C  C463  1  0.31490000  0.68100000  0.24700000  1
  C  C464  1  0.82045000  0.68346000  0.69036000  1
  C  C465  1  0.99680000  0.68350000  0.18300000  1
  C  C466  1  0.43400000  0.68510000  0.75300000  1
  C  C467  1  0.42050000  0.68610000  0.36460000  1
  C  C468  1  0.38590000  0.68620000  0.26140000  1
  C  C469  1  0.35090000  0.68780000  0.75240000  1
  C  C470  1  0.47660000  0.68920000  0.76320000  1
  C  C471  1  0.96740000  0.69020000  0.27140000  1
  C  C472  1  0.45920000  0.69470000  0.41060000  1
  C  C473  1  0.99595000  0.69512000  0.93016000  1
  C  C474  1  0.91086000  0.69535000  0.66060000  1
  C  C475  1  0.30980000  0.69600000  0.72860000  1
  C  C476  1  0.57639000  0.69749000  0.79518000  1
  C  C477  1  0.98470000  0.70060000  0.25040000  1
  C  C478  1  0.68036000  0.70203000  0.79268000  1
  C  C479  1  0.88687000  0.70503000  0.68480000  1
  C  C480  1  0.90480000  0.71080000  0.32060000  1
  C  C481  1  0.09047000  0.71177000  0.88084000  1
  C  C482  1  0.31080000  0.71340000  0.23680000  1
  C  C483  1  0.54834000  0.71362000  0.50528000  1
  C  C484  1  0.65510000  0.71506000  0.81632000  1
  C  C485  1  0.95140000  0.71590000  0.41060000  1
  C  C486  1  0.74498000  0.71945000  0.78576000  1
  C  C487  1  0.65612000  0.72037000  0.61290000  1
  C  C488  1  0.08252000  0.72097000  0.81488000  1
  C  C489  1  0.38210000  0.72140000  0.25040000  1
  C  C490  1  0.38170000  0.72200000  0.80260000  1
  C  C491  1  0.00890000  0.72630000  0.19240000  1
  C  C492  1  0.08629000  0.72664000  0.92800000  1
  C  C493  1  0.95810000  0.72888000  0.68946000  1
  C  C494  1  0.72888000  0.73136000  0.68946000  1
  C  C495  1  0.72097000  0.73236000  0.81488000  1
  C  C496  1  0.29940000  0.73430000  0.74960000  1
  C  C497  1  0.34500000  0.73520000  0.24140000  1
  C  C498  1  0.08217000  0.73722000  0.85954000  1
  C  C499  1  0.62347000  0.73907000  0.58794000  1
  C  C500  1  0.04576000  0.74336000  0.11832000  1
  C  C501  1  0.06631000  0.74498000  0.78576000  1
  C  C502  1  0.93220000  0.74780000  0.40880000  1
  C  C503  1  0.91310000  0.74820000  0.36660000  1
  C  C504  1  0.69535000  0.74974000  0.66060000  1
  C  C505  1  0.03384000  0.75550000  0.15548000  1
  C  C506  1  0.67122000  0.76025000  0.86030000  1
  C  C507  1  0.37030000  0.76280000  0.82580000  1
  C  C508  1  0.06579000  0.76496000  0.06984000  1
  C  C509  1  0.32890000  0.76580000  0.79720000  1
  C  C510  1  0.34400000  0.77420000  0.23160000  1
  C  C511  1  0.05489000  0.77618000  0.11012000  1
  C  C512  1  0.73722000  0.77737000  0.85954000  1
  C  C513  1  0.30251000  0.78121000  0.20482000  1
  C  C514  1  0.63249000  0.78634000  0.61110000  1
  C  C515  1  0.94113000  0.78743000  0.46026000  1
  C  C516  1  0.71177000  0.79037000  0.88084000  1
  C  C517  1  0.95694000  0.79166000  0.50528000  1
  C  C518  1  0.70503000  0.79793000  0.68480000  1
  C  C519  1  0.15829000  0.79864000  0.07200000  1
  C  C520  1  0.03628000  0.80145000  0.18676000  1
  C  C521  1  0.23975000  0.81092000  0.13970000  1
  C  C522  1  0.31650000  0.81380000  0.81700000  1
  C  C523  1  0.67345000  0.81599000  0.66094000  1
  C  C524  1  0.27370000  0.81650000  0.80760000  1
  C  C525  1  0.00690000  0.82045000  0.69036000  1
  C  C526  1  0.05480000  0.82134000  0.14064000  1
  C  C527  1  0.97861000  0.82476000  0.61110000  1
  C  C528  1  0.20963000  0.83093000  0.11916000  1
  C  C529  1  0.04756000  0.83414000  0.18000000  1
  C  C530  1  0.11578000  0.83699000  0.78696000  1
  C  C531  1  0.28494000  0.83878000  0.18368000  1
  C  C532  1  0.72664000  0.84171000  0.92800000  1
  C  C533  1  0.98749000  0.84495000  0.66094000  1
  C  C534  1  0.96447000  0.84887000  0.58794000  1
  C  C535  1  0.19855000  0.84952000  0.81324000  1
  C  C536  1  0.16586000  0.86756000  0.82000000  1
  C  C537  1  0.72140000  0.86830000  0.25040000  1
  C  C538  1  0.68346000  0.86991000  0.69036000  1
  C  C539  1  0.68620000  0.87550000  0.26140000  1
  C  C540  1  0.22263000  0.87768000  0.14046000  1
  C  C541  1  0.24450000  0.87836000  0.84452000  1
  C  C542  1  0.05003000  0.88422000  0.21304000  1
  C  C543  1  0.97977000  0.88687000  0.68480000  1
  C  C544  1  0.77420000  0.88760000  0.23160000  1
  C  C545  1  0.29797000  0.88768000  0.20732000  1
  C  C546  1  0.95678000  0.89253000  0.61290000  1
  C  C547  1  0.73520000  0.89640000  0.24140000  1
  C  C548  1  0.83878000  0.89874000  0.18368000  1
  C  C549  1  0.81092000  0.89995000  0.13970000  1
  C  C550  1  0.78121000  0.90231000  0.20482000  1
  C  C551  1  0.60980000  0.90480000  0.32060000  1
  C  C552  1  0.26764000  0.90609000  0.18512000  1
  C  C553  1  0.66640000  0.90670000  0.25880000  1
  C  C554  1  0.88768000  0.90935000  0.20732000  1
  C  C555  1  0.83093000  0.90953000  0.11916000  1
  C  C556  1  0.96525000  0.91086000  0.66060000  1
  C  C557  1  0.61840000  0.91310000  0.36660000  1
  C  C558  1  0.79864000  0.91371000  0.07200000  1
  C  C559  1  0.17866000  0.91416000  0.85936000  1
  C  C560  1  0.90609000  0.91748000  0.18512000  1
  C  C561  1  0.87768000  0.91783000  0.14046000  1
  C  C562  1  0.57910000  0.91940000  0.19740000  1
  C  C563  1  0.64320000  0.92040000  0.31920000  1
  C  C564  1  0.71340000  0.92600000  0.23680000  1
  C  C565  1  0.25664000  0.92744000  0.88168000  1
  C  C566  1  0.68100000  0.93210000  0.24700000  1
  C  C567  1  0.66100000  0.93220000  0.40880000  1
  C  C568  1  0.95922000  0.93369000  0.21424000  1
  C  C569  1  0.69512000  0.93421000  0.93016000  1
  C  C570  1  0.59850000  0.93540000  0.24760000  1
  C  C571  1  0.54450000  0.93700000  0.17420000  1
  C  C572  1  0.67283000  0.94113000  0.46026000  1
  C  C573  1  0.68610000  0.94410000  0.36460000  1
  C  C574  1  0.22382000  0.94477000  0.88988000  1
  C  C575  1  0.66606000  0.94511000  0.88988000  1
  C  C576  1  0.68070000  0.94520000  0.85936000  1
  C  C577  1  0.67118000  0.94997000  0.78696000  1
  C  C578  1  0.69470000  0.95140000  0.41060000  1
  C  C579  1  0.65414000  0.95244000  0.82000000  1
  C  C580  1  0.62504000  0.95424000  0.88168000  1
  C  C581  1  0.72037000  0.95678000  0.61290000  1
  C  C582  1  0.71362000  0.95694000  0.50528000  1
  C  C583  1  0.96058000  0.95810000  0.68946000  1
  C  C584  1  0.28055000  0.95922000  0.21424000  1
  C  C585  1  0.73136000  0.96058000  0.68946000  1
  C  C586  1  0.61469000  0.96372000  0.81324000  1
  C  C587  1  0.73907000  0.96447000  0.58794000  1
  C  C588  1  0.74974000  0.96525000  0.66060000  1
  C  C589  1  0.60002000  0.96616000  0.84452000  1
  C  C590  1  0.58120000  0.96740000  0.27140000  1
  C  C591  1  0.53170000  0.96860000  0.20280000  1
  C  C592  1  0.78634000  0.97861000  0.61110000  1
  C  C593  1  0.79793000  0.97977000  0.68480000  1
  C  C594  1  0.54980000  0.98470000  0.25040000  1
  C  C595  1  0.81599000  0.98749000  0.66094000  1
  C  C596  1  0.53390000  0.99110000  0.80760000  1
  C  C597  1  0.13009000  0.99310000  0.30964000  1
  C  C598  1  0.23504000  0.99595000  0.93016000  1
  C  C599  1  0.49950000  0.99680000  0.18300000  1
  N  N600  1  0.51270000  0.00100000  0.85760000  1
  N  N601  1  0.45150000  0.01200000  0.12940000  1
  N  N602  1  0.43954000  0.02052000  0.16104000  1
  N  N603  1  0.29363000  0.04224000  0.46248000  1
  N  N604  1  0.33803000  0.05753000  0.48706000  1
  N  N605  1  0.35798000  0.06418000  0.53176000  1
  N  N606  1  0.37093000  0.09220000  0.73500000  1
  N  N607  1  0.18214000  0.10623000  0.79126000  1
  N  N608  1  0.67790000  0.11740000  0.12940000  1
  N  N609  1  0.16899000  0.12880000  0.76860000  1
  N  N610  1  0.19810000  0.13250000  0.75640000  1
  N  N611  1  0.72150000  0.14052000  0.16104000  1
  N  N612  1  0.65510000  0.14340000  0.14240000  1
  N  N613  1  0.05753000  0.14903000  0.48706000  1
  N  N614  1  0.04224000  0.16885000  0.46248000  1
  N  N615  1  0.63980000  0.16899000  0.76860000  1
  N  N616  1  0.06418000  0.17378000  0.53176000  1
  N  N617  1  0.68503000  0.18214000  0.79126000  1
  N  N618  1  0.62390000  0.19810000  0.75640000  1
  N  N619  1  0.97948000  0.27850000  0.83896000  1
  N  N620  1  0.42024000  0.29363000  0.46248000  1
  N  N621  1  0.39088000  0.31497000  0.20874000  1
  N  N622  1  0.98800000  0.32210000  0.87060000  1
  N  N623  1  0.42953000  0.33803000  0.48706000  1
  N  N624  1  0.00100000  0.34490000  0.85760000  1
  N  N625  1  0.63593000  0.35720000  0.26500000  1
  N  N626  1  0.46758000  0.35798000  0.53176000  1
  N  N627  1  0.40039000  0.36020000  0.23140000  1
  N  N628  1  0.09220000  0.36407000  0.73500000  1
  N  N629  1  0.64280000  0.37093000  0.73500000  1
  N  N630  1  0.44170000  0.37610000  0.24360000  1
  N  N631  1  0.89377000  0.39088000  0.20874000  1
  N  N632  1  0.87120000  0.40039000  0.23140000  1
  N  N633  1  0.16885000  0.42024000  0.46248000  1
  N  N634  1  0.14903000  0.42953000  0.48706000  1
  N  N635  1  0.14052000  0.43954000  0.16104000  1
  N  N636  1  0.86750000  0.44170000  0.24360000  1
  N  N637  1  0.11740000  0.45150000  0.12940000  1
  N  N638  1  0.17378000  0.46758000  0.53176000  1
  N  N639  1  0.14340000  0.48730000  0.14240000  1
  N  N640  1  0.85660000  0.51270000  0.85760000  1
  N  N641  1  0.82622000  0.53242000  0.46824000  1
  N  N642  1  0.88260000  0.54850000  0.87060000  1
  N  N643  1  0.13250000  0.55830000  0.75640000  1
  N  N644  1  0.85948000  0.56046000  0.83896000  1
  N  N645  1  0.85097000  0.57047000  0.51294000  1
  N  N646  1  0.83115000  0.57976000  0.53752000  1
  N  N647  1  0.12880000  0.59961000  0.76860000  1
  N  N648  1  0.10623000  0.60912000  0.79126000  1
  N  N649  1  0.55830000  0.62390000  0.75640000  1
  N  N650  1  0.35720000  0.62907000  0.26500000  1
  N  N651  1  0.90780000  0.63593000  0.26500000  1
  N  N652  1  0.59961000  0.63980000  0.76860000  1
  N  N653  1  0.53242000  0.64202000  0.46824000  1
  N  N654  1  0.36407000  0.64280000  0.73500000  1
  N  N655  1  0.99900000  0.65510000  0.14240000  1
  N  N656  1  0.57047000  0.66197000  0.51294000  1
  N  N657  1  0.01200000  0.67790000  0.12940000  1
  N  N658  1  0.60912000  0.68503000  0.79126000  1
  N  N659  1  0.57976000  0.70637000  0.53752000  1
  N  N660  1  0.02052000  0.72150000  0.16104000  1
  N  N661  1  0.37610000  0.80190000  0.24360000  1
  N  N662  1  0.31497000  0.81786000  0.20874000  1
  N  N663  1  0.93582000  0.82622000  0.46824000  1
  N  N664  1  0.36020000  0.83101000  0.23140000  1
  N  N665  1  0.95776000  0.83115000  0.53752000  1
  N  N666  1  0.94247000  0.85097000  0.51294000  1
  N  N667  1  0.34490000  0.85660000  0.85760000  1
  N  N668  1  0.27850000  0.85948000  0.83896000  1
  N  N669  1  0.80190000  0.86750000  0.24360000  1
  N  N670  1  0.83101000  0.87120000  0.23140000  1
  N  N671  1  0.32210000  0.88260000  0.87060000  1
  N  N672  1  0.81786000  0.89377000  0.20874000  1
  N  N673  1  0.62907000  0.90780000  0.26500000  1
  N  N674  1  0.64202000  0.93582000  0.46824000  1
  N  N675  1  0.66197000  0.94247000  0.51294000  1
  N  N676  1  0.70637000  0.95776000  0.53752000  1
  N  N677  1  0.56046000  0.97948000  0.83896000  1
  N  N678  1  0.54850000  0.98800000  0.87060000  1
  N  N679  1  0.48730000  0.99900000  0.14240000  1
  O  O680  1  0.89244000  0.00315000  0.72810000  1
  O  O681  1  0.20869000  0.00404000  0.94520000  1
  O  O682  1  0.67929000  0.01751000  0.74292000  1
  O  O683  1  0.88235000  0.01937000  0.66944000  1
  O  O684  1  0.27208000  0.02161000  0.94644000  1
  O  O685  1  0.05104000  0.02176000  0.33438000  1
  O  O686  1  0.74871000  0.02631000  0.80938000  1
  O  O687  1  0.03344000  0.02888000  0.26812000  1
  O  O688  1  0.23924000  0.03344000  0.26812000  1
  O  O689  1  0.28723000  0.04623000  0.19474000  1
  O  O690  1  0.35734000  0.04814000  0.25152000  1
  O  O691  1  0.31262000  0.05104000  0.33438000  1
  O  O692  1  0.26349000  0.05884000  0.05480000  1
  O  O693  1  0.02631000  0.06067000  0.80938000  1
  O  O694  1  0.01751000  0.06363000  0.74292000  1
  O  O695  1  0.32564000  0.07517000  0.05356000  1
  O  O696  1  0.18103000  0.07784000  0.94508000  1
  O  O697  1  0.95377000  0.09249000  0.80526000  1
  O  O698  1  0.24325000  0.09560000  0.94480000  1
  O  O699  1  0.95186000  0.10582000  0.74848000  1
  O  O700  1  0.27505000  0.10756000  0.27190000  1
  O  O701  1  0.34993000  0.11765000  0.33056000  1
  O  O702  1  0.23595000  0.13276000  0.05492000  1
  O  O703  1  0.90751000  0.14851000  0.19474000  1
  O  O704  1  0.29845000  0.15080000  0.05520000  1
  O  O705  1  0.99685000  0.16434000  0.27190000  1
  O  O706  1  0.86724000  0.18103000  0.94508000  1
  O  O707  1  0.89418000  0.20338000  0.25152000  1
  O  O708  1  0.94116000  0.20869000  0.94520000  1
  O  O709  1  0.98063000  0.21291000  0.33056000  1
  O  O710  1  0.93933000  0.21693000  0.19062000  1
  O  O711  1  0.02888000  0.23468000  0.26812000  1
  O  O712  1  0.92216000  0.23595000  0.05492000  1
  O  O713  1  0.23468000  0.23924000  0.26812000  1
  O  O714  1  0.84920000  0.24325000  0.94480000  1
  O  O715  1  0.21693000  0.25129000  0.19062000  1
  O  O716  1  0.99596000  0.26349000  0.05480000  1
  O  O717  1  0.92483000  0.27208000  0.94644000  1
  O  O718  1  0.93637000  0.27459000  0.25708000  1
  O  O719  1  0.16434000  0.27505000  0.27190000  1
  O  O720  1  0.02176000  0.28334000  0.33438000  1
  O  O721  1  0.14851000  0.28723000  0.19474000  1
  O  O722  1  0.90440000  0.29845000  0.05520000  1
  O  O723  1  0.28334000  0.31262000  0.33438000  1
  O  O724  1  0.27459000  0.32071000  0.25708000  1
  O  O725  1  0.97839000  0.32564000  0.05356000  1
  O  O726  1  0.21291000  0.34993000  0.33056000  1
  O  O727  1  0.20338000  0.35734000  0.25152000  1
  O  O728  1  0.79662000  0.64266000  0.74848000  1
  O  O729  1  0.78709000  0.65007000  0.66944000  1
  O  O730  1  0.02161000  0.67436000  0.94644000  1
  O  O731  1  0.72541000  0.67929000  0.74292000  1
  O  O732  1  0.71666000  0.68738000  0.66562000  1
  O  O733  1  0.09560000  0.70155000  0.94480000  1
  O  O734  1  0.85149000  0.71277000  0.80526000  1
  O  O735  1  0.97824000  0.71666000  0.66562000  1
  O  O736  1  0.83566000  0.72495000  0.72810000  1
  O  O737  1  0.06363000  0.72541000  0.74292000  1
  O  O738  1  0.07517000  0.72792000  0.05356000  1
  O  O739  1  0.00404000  0.73651000  0.94520000  1
  O  O740  1  0.78307000  0.74871000  0.80938000  1
  O  O741  1  0.15080000  0.75675000  0.05520000  1
  O  O742  1  0.76532000  0.76076000  0.73188000  1
  O  O743  1  0.07784000  0.76405000  0.94508000  1
  O  O744  1  0.97112000  0.76532000  0.73188000  1
  O  O745  1  0.06067000  0.78307000  0.80938000  1
  O  O746  1  0.01937000  0.78709000  0.66944000  1
  O  O747  1  0.05884000  0.79131000  0.05480000  1
  O  O748  1  0.10582000  0.79662000  0.74848000  1
  O  O749  1  0.13276000  0.81897000  0.05492000  1
  O  O750  1  0.00315000  0.83566000  0.72810000  1
  O  O751  1  0.70155000  0.84920000  0.94480000  1
  O  O752  1  0.09249000  0.85149000  0.80526000  1
  O  O753  1  0.76405000  0.86724000  0.94508000  1
  O  O754  1  0.65007000  0.88235000  0.66944000  1
  O  O755  1  0.72495000  0.89244000  0.72810000  1
  O  O756  1  0.04814000  0.89418000  0.25152000  1
  O  O757  1  0.75675000  0.90440000  0.05520000  1
  O  O758  1  0.04623000  0.90751000  0.19474000  1
  O  O759  1  0.81897000  0.92216000  0.05492000  1
  O  O760  1  0.67436000  0.92483000  0.94644000  1
  O  O761  1  0.98249000  0.93637000  0.25708000  1
  O  O762  1  0.97369000  0.93933000  0.19062000  1
  O  O763  1  0.73651000  0.94116000  0.94520000  1
  O  O764  1  0.68738000  0.94896000  0.66562000  1
  O  O765  1  0.64266000  0.95186000  0.74848000  1
  O  O766  1  0.71277000  0.95377000  0.80526000  1
  O  O767  1  0.76076000  0.96656000  0.73188000  1
  O  O768  1  0.96656000  0.97112000  0.73188000  1
  O  O769  1  0.25129000  0.97369000  0.19062000  1
  O  O770  1  0.94896000  0.97824000  0.66562000  1
  O  O771  1  0.72792000  0.97839000  0.05356000  1
  O  O772  1  0.11765000  0.98063000  0.33056000  1
  O  O773  1  0.32071000  0.98249000  0.25708000  1
  O  O774  1  0.79131000  0.99596000  0.05480000  1
  O  O775  1  0.10756000  0.99685000  0.27190000  1
