# generated using pymatgen
data_LiH2(C2O)2
_symmetry_space_group_name_H-M   'P 1'
_cell_length_a   9.61960000
_cell_length_b   9.61960000
_cell_length_c   12.81700000
_cell_angle_alpha   90.00000000
_cell_angle_beta   90.00000000
_cell_angle_gamma   92.04700000
_symmetry_Int_Tables_number   1
_chemical_formula_structural   LiH2(C2O)2
_chemical_formula_sum   'Li8 H16 C32 O16'
_cell_volume   1185.28607881
_cell_formula_units_Z   8
loop_
 _symmetry_equiv_pos_site_id
 _symmetry_equiv_pos_as_xyz
  1  'x, y, z'
loop_
 _atom_site_type_symbol
 _atom_site_label
 _atom_site_symmetry_multiplicity
 _atom_site_fract_x
 _atom_site_fract_y
 _atom_site_fract_z
 _atom_site_occupancy
  Li  Li0  1  0.11770000  0.03950000  0.90340000  1
  Li  Li1  1  0.92900000  0.07100000  0.75000000  1
  Li  Li2  1  0.03950000  0.11770000  0.09660000  1
  Li  Li3  1  0.73060000  0.26940000  0.75000000  1
  Li  Li4  1  0.26940000  0.73060000  0.25000000  1
  Li  Li5  1  0.96050000  0.88230000  0.59660000  1
  Li  Li6  1  0.07100000  0.92900000  0.25000000  1
  Li  Li7  1  0.88230000  0.96050000  0.40340000  1
  H  H8  1  0.37140000  0.00320000  0.36090000  1
  H  H9  1  0.59850000  0.00990000  0.41370000  1
  H  H10  1  0.19520000  0.01980000  0.48200000  1
  H  H11  1  0.48000000  0.06740000  0.70960000  1
  H  H12  1  0.01980000  0.19520000  0.51800000  1
  H  H13  1  0.00320000  0.37140000  0.63910000  1
  H  H14  1  0.99010000  0.40150000  0.08630000  1
  H  H15  1  0.06740000  0.48000000  0.29040000  1
  H  H16  1  0.93260000  0.52000000  0.79040000  1
  H  H17  1  0.00990000  0.59850000  0.58630000  1
  H  H18  1  0.99680000  0.62860000  0.13910000  1
  H  H19  1  0.98020000  0.80480000  0.01800000  1
  H  H20  1  0.52000000  0.93260000  0.20960000  1
  H  H21  1  0.80480000  0.98020000  0.98200000  1
  H  H22  1  0.40150000  0.99010000  0.91370000  1
  H  H23  1  0.62860000  0.99680000  0.86090000  1
  C  C24  1  0.39280000  0.01400000  0.43121000  1
  C  C25  1  0.52839000  0.01939000  0.46283000  1
  C  C26  1  0.28760000  0.02456000  0.50350000  1
  C  C27  1  0.71338000  0.03830000  0.59995000  1
  C  C28  1  0.56358000  0.03888000  0.56688000  1
  C  C29  1  0.32000000  0.04246000  0.60950000  1
  C  C30  1  0.20313000  0.05053000  0.68771000  1
  C  C31  1  0.45776000  0.05204000  0.63983000  1
  C  C32  1  0.05053000  0.20313000  0.31229000  1
  C  C33  1  0.96170000  0.28662000  0.90005000  1
  C  C34  1  0.02456000  0.28760000  0.49650000  1
  C  C35  1  0.04246000  0.32000000  0.39050000  1
  C  C36  1  0.01400000  0.39280000  0.56879000  1
  C  C37  1  0.96112000  0.43642000  0.93312000  1
  C  C38  1  0.05204000  0.45776000  0.36017000  1
  C  C39  1  0.98061000  0.47161000  0.03717000  1
  C  C40  1  0.01939000  0.52839000  0.53717000  1
  C  C41  1  0.94796000  0.54224000  0.86017000  1
  C  C42  1  0.03888000  0.56358000  0.43312000  1
  C  C43  1  0.98600000  0.60720000  0.06879000  1
  C  C44  1  0.95754000  0.68000000  0.89050000  1
  C  C45  1  0.97544000  0.71240000  0.99650000  1
  C  C46  1  0.03830000  0.71338000  0.40005000  1
  C  C47  1  0.94947000  0.79687000  0.81229000  1
  C  C48  1  0.54224000  0.94796000  0.13983000  1
  C  C49  1  0.79687000  0.94947000  0.18771000  1
  C  C50  1  0.68000000  0.95754000  0.10950000  1
  C  C51  1  0.43642000  0.96112000  0.06688000  1
  C  C52  1  0.28662000  0.96170000  0.09995000  1
  C  C53  1  0.71240000  0.97544000  0.00350000  1
  C  C54  1  0.47161000  0.98061000  0.96283000  1
  C  C55  1  0.60720000  0.98600000  0.93121000  1
  O  O56  1  0.19991000  0.01431000  0.03895000  1
  O  O57  1  0.08218000  0.03312000  0.65319000  1
  O  O58  1  0.23312000  0.07566000  0.78084000  1
  O  O59  1  0.03312000  0.08218000  0.34681000  1
  O  O60  1  0.74469000  0.08381000  0.68899000  1
  O  O61  1  0.01431000  0.19991000  0.96105000  1
  O  O62  1  0.07566000  0.23312000  0.21916000  1
  O  O63  1  0.91619000  0.25531000  0.81101000  1
  O  O64  1  0.08381000  0.74469000  0.31101000  1
  O  O65  1  0.92434000  0.76688000  0.71916000  1
  O  O66  1  0.98569000  0.80009000  0.46105000  1
  O  O67  1  0.25531000  0.91619000  0.18899000  1
  O  O68  1  0.96688000  0.91782000  0.84681000  1
  O  O69  1  0.76688000  0.92434000  0.28084000  1
  O  O70  1  0.91782000  0.96688000  0.15319000  1
  O  O71  1  0.80009000  0.98569000  0.53895000  1
