# generated using pymatgen
data_Cu4Ag6Au4C40S8N8ClO16
_symmetry_space_group_name_H-M   'P 1'
_cell_length_a   32.74900000
_cell_length_b   32.74900000
_cell_length_c   32.74900000
_cell_angle_alpha   90.00000000
_cell_angle_beta   90.00000000
_cell_angle_gamma   90.00000000
_symmetry_Int_Tables_number   1
_chemical_formula_structural   Cu4Ag6Au4C40S8N8ClO16
_chemical_formula_sum   'Cu48 Ag72 Au48 C480 S96 N96 Cl12 O192'
_cell_volume   35123.20428575
_cell_formula_units_Z   12
loop_
 _symmetry_equiv_pos_site_id
 _symmetry_equiv_pos_as_xyz
  1  'x, y, z'
loop_
 _atom_site_type_symbol
 _atom_site_label
 _atom_site_symmetry_multiplicity
 _atom_site_fract_x
 _atom_site_fract_y
 _atom_site_fract_z
 _atom_site_occupancy
  Cu  Cu0  1  0.02532000  0.64517000  0.28245000  1
  Cu  Cu1  1  0.02664000  0.10928000  0.71995000  1
  Cu  Cu2  1  0.03124000  0.53469000  0.17744000  1
  Cu  Cu3  1  0.03469000  0.32256000  0.96876000  1
  Cu  Cu4  1  0.05067000  0.61049000  0.63320000  1
  Cu  Cu5  1  0.10928000  0.71995000  0.02664000  1
  Cu  Cu6  1  0.11049000  0.86680000  0.94933000  1
  Cu  Cu7  1  0.13320000  0.44933000  0.38951000  1
  Cu  Cu8  1  0.14517000  0.21755000  0.97468000  1
  Cu  Cu9  1  0.17744000  0.03124000  0.53469000  1
  Cu  Cu10  1  0.21755000  0.97468000  0.14517000  1
  Cu  Cu11  1  0.21995000  0.47336000  0.89072000  1
  Cu  Cu12  1  0.28005000  0.52664000  0.39072000  1
  Cu  Cu13  1  0.28245000  0.02532000  0.64517000  1
  Cu  Cu14  1  0.32256000  0.96876000  0.03469000  1
  Cu  Cu15  1  0.35483000  0.78245000  0.47468000  1
  Cu  Cu16  1  0.36680000  0.55067000  0.88951000  1
  Cu  Cu17  1  0.38951000  0.13320000  0.44933000  1
  Cu  Cu18  1  0.39072000  0.28005000  0.52664000  1
  Cu  Cu19  1  0.44933000  0.38951000  0.13320000  1
  Cu  Cu20  1  0.46531000  0.67744000  0.46876000  1
  Cu  Cu21  1  0.46876000  0.46531000  0.67744000  1
  Cu  Cu22  1  0.47336000  0.89072000  0.21995000  1
  Cu  Cu23  1  0.47468000  0.35483000  0.78245000  1
  Cu  Cu24  1  0.52532000  0.85483000  0.71755000  1
  Cu  Cu25  1  0.52664000  0.39072000  0.28005000  1
  Cu  Cu26  1  0.53124000  0.96531000  0.82256000  1
  Cu  Cu27  1  0.53469000  0.17744000  0.03124000  1
  Cu  Cu28  1  0.55067000  0.88951000  0.36680000  1
  Cu  Cu29  1  0.60928000  0.78005000  0.97336000  1
  Cu  Cu30  1  0.61049000  0.63320000  0.05067000  1
  Cu  Cu31  1  0.63320000  0.05067000  0.61049000  1
  Cu  Cu32  1  0.64517000  0.28245000  0.02532000  1
  Cu  Cu33  1  0.67744000  0.46876000  0.46531000  1
  Cu  Cu34  1  0.71755000  0.52532000  0.85483000  1
  Cu  Cu35  1  0.71995000  0.02664000  0.10928000  1
  Cu  Cu36  1  0.78005000  0.97336000  0.60928000  1
  Cu  Cu37  1  0.78245000  0.47468000  0.35483000  1
  Cu  Cu38  1  0.82256000  0.53124000  0.96531000  1
  Cu  Cu39  1  0.85483000  0.71755000  0.52532000  1
  Cu  Cu40  1  0.86680000  0.94933000  0.11049000  1
  Cu  Cu41  1  0.88951000  0.36680000  0.55067000  1
  Cu  Cu42  1  0.89072000  0.21995000  0.47336000  1
  Cu  Cu43  1  0.94933000  0.11049000  0.86680000  1
  Cu  Cu44  1  0.96531000  0.82256000  0.53124000  1
  Cu  Cu45  1  0.96876000  0.03469000  0.32256000  1
  Cu  Cu46  1  0.97336000  0.60928000  0.78005000  1
  Cu  Cu47  1  0.97468000  0.14517000  0.21755000  1
  Ag  Ag48  1  0.00362000  0.44299000  0.94206000  1
  Ag  Ag49  1  0.00949000  0.47605000  0.42204000  1
  Ag  Ag50  1  0.01232000  0.11674000  0.09570000  1
  Ag  Ag51  1  0.02374000  0.53763000  0.87372000  1
  Ag  Ag52  1  0.02395000  0.57796000  0.50949000  1
  Ag  Ag53  1  0.03763000  0.62628000  0.97626000  1
  Ag  Ag54  1  0.04810000  0.16736000  0.91777000  1
  Ag  Ag55  1  0.05701000  0.05794000  0.50362000  1
  Ag  Ag56  1  0.05794000  0.50362000  0.05701000  1
  Ag  Ag57  1  0.07415000  0.62699000  0.10963000  1
  Ag  Ag58  1  0.07796000  0.99051000  0.97605000  1
  Ag  Ag59  1  0.08223000  0.54810000  0.33264000  1
  Ag  Ag60  1  0.09570000  0.01232000  0.11674000  1
  Ag  Ag61  1  0.10963000  0.07415000  0.62699000  1
  Ag  Ag62  1  0.11674000  0.09570000  0.01232000  1
  Ag  Ag63  1  0.12628000  0.52374000  0.96237000  1
  Ag  Ag64  1  0.12699000  0.39037000  0.92585000  1
  Ag  Ag65  1  0.16736000  0.91777000  0.04810000  1
  Ag  Ag66  1  0.33264000  0.08223000  0.54810000  1
  Ag  Ag67  1  0.37301000  0.60963000  0.42585000  1
  Ag  Ag68  1  0.37372000  0.47626000  0.46237000  1
  Ag  Ag69  1  0.38326000  0.90430000  0.51232000  1
  Ag  Ag70  1  0.39037000  0.92585000  0.12699000  1
  Ag  Ag71  1  0.40430000  0.98768000  0.61674000  1
  Ag  Ag72  1  0.41777000  0.45190000  0.83264000  1
  Ag  Ag73  1  0.42204000  0.00949000  0.47605000  1
  Ag  Ag74  1  0.42585000  0.37301000  0.60963000  1
  Ag  Ag75  1  0.44206000  0.49638000  0.55701000  1
  Ag  Ag76  1  0.44299000  0.94206000  0.00362000  1
  Ag  Ag77  1  0.45190000  0.83264000  0.41777000  1
  Ag  Ag78  1  0.46237000  0.37372000  0.47626000  1
  Ag  Ag79  1  0.47605000  0.42204000  0.00949000  1
  Ag  Ag80  1  0.47626000  0.46237000  0.37372000  1
  Ag  Ag81  1  0.48768000  0.88326000  0.59570000  1
  Ag  Ag82  1  0.49051000  0.52395000  0.92204000  1
  Ag  Ag83  1  0.49638000  0.55701000  0.44206000  1
  Ag  Ag84  1  0.50362000  0.05701000  0.05794000  1
  Ag  Ag85  1  0.50949000  0.02395000  0.57796000  1
  Ag  Ag86  1  0.51232000  0.38326000  0.90430000  1
  Ag  Ag87  1  0.52374000  0.96237000  0.12628000  1
  Ag  Ag88  1  0.52395000  0.92204000  0.49051000  1
  Ag  Ag89  1  0.53763000  0.87372000  0.02374000  1
  Ag  Ag90  1  0.54810000  0.33264000  0.08223000  1
  Ag  Ag91  1  0.55701000  0.44206000  0.49638000  1
  Ag  Ag92  1  0.55794000  0.99638000  0.94299000  1
  Ag  Ag93  1  0.57415000  0.87301000  0.89037000  1
  Ag  Ag94  1  0.57796000  0.50949000  0.02395000  1
  Ag  Ag95  1  0.58223000  0.95190000  0.66736000  1
  Ag  Ag96  1  0.59570000  0.48768000  0.88326000  1
  Ag  Ag97  1  0.60963000  0.42585000  0.37301000  1
  Ag  Ag98  1  0.61674000  0.40430000  0.98768000  1
  Ag  Ag99  1  0.62628000  0.97626000  0.03763000  1
  Ag  Ag100  1  0.62699000  0.10963000  0.07415000  1
  Ag  Ag101  1  0.66736000  0.58223000  0.95190000  1
  Ag  Ag102  1  0.83264000  0.41777000  0.45190000  1
  Ag  Ag103  1  0.87301000  0.89037000  0.57415000  1
  Ag  Ag104  1  0.87372000  0.02374000  0.53763000  1
  Ag  Ag105  1  0.88326000  0.59570000  0.48768000  1
  Ag  Ag106  1  0.89037000  0.57415000  0.87301000  1
  Ag  Ag107  1  0.90430000  0.51232000  0.38326000  1
  Ag  Ag108  1  0.91777000  0.04810000  0.16736000  1
  Ag  Ag109  1  0.92204000  0.49051000  0.52395000  1
  Ag  Ag110  1  0.92585000  0.12699000  0.39037000  1
  Ag  Ag111  1  0.94206000  0.00362000  0.44299000  1
  Ag  Ag112  1  0.94299000  0.55794000  0.99638000  1
  Ag  Ag113  1  0.95190000  0.66736000  0.58223000  1
  Ag  Ag114  1  0.96237000  0.12628000  0.52374000  1
  Ag  Ag115  1  0.97605000  0.07796000  0.99051000  1
  Ag  Ag116  1  0.97626000  0.03763000  0.62628000  1
  Ag  Ag117  1  0.98768000  0.61674000  0.40430000  1
  Ag  Ag118  1  0.99051000  0.97605000  0.07796000  1
  Ag  Ag119  1  0.99638000  0.94299000  0.55794000  1
  Au  Au120  1  0.00343000  0.02165000  0.15203000  1
  Au  Au121  1  0.00613000  0.59969000  0.05554000  1
  Au  Au122  1  0.02165000  0.15203000  0.00343000  1
  Au  Au123  1  0.04397000  0.11043000  0.57455000  1
  Au  Au124  1  0.05554000  0.00613000  0.59969000  1
  Au  Au125  1  0.06230000  0.57131000  0.41875000  1
  Au  Au126  1  0.07131000  0.08125000  0.93770000  1
  Au  Au127  1  0.07455000  0.45603000  0.88957000  1
  Au  Au128  1  0.08125000  0.93770000  0.07131000  1
  Au  Au129  1  0.09969000  0.44446000  0.99387000  1
  Au  Au130  1  0.11043000  0.57455000  0.04397000  1
  Au  Au131  1  0.15203000  0.00343000  0.02165000  1
  Au  Au132  1  0.34797000  0.99657000  0.52165000  1
  Au  Au133  1  0.38957000  0.42545000  0.54397000  1
  Au  Au134  1  0.40031000  0.55554000  0.49387000  1
  Au  Au135  1  0.41875000  0.06230000  0.57131000  1
  Au  Au136  1  0.42545000  0.54397000  0.38957000  1
  Au  Au137  1  0.42869000  0.91875000  0.43770000  1
  Au  Au138  1  0.43770000  0.42869000  0.91875000  1
  Au  Au139  1  0.44446000  0.99387000  0.09969000  1
  Au  Au140  1  0.45603000  0.88957000  0.07455000  1
  Au  Au141  1  0.47835000  0.84797000  0.50343000  1
  Au  Au142  1  0.49387000  0.40031000  0.55554000  1
  Au  Au143  1  0.49657000  0.97835000  0.65203000  1
  Au  Au144  1  0.50343000  0.47835000  0.84797000  1
  Au  Au145  1  0.50613000  0.90031000  0.94446000  1
  Au  Au146  1  0.52165000  0.34797000  0.99657000  1
  Au  Au147  1  0.54397000  0.38957000  0.42545000  1
  Au  Au148  1  0.55554000  0.49387000  0.40031000  1
  Au  Au149  1  0.56230000  0.92869000  0.58125000  1
  Au  Au150  1  0.57131000  0.41875000  0.06230000  1
  Au  Au151  1  0.57455000  0.04397000  0.11043000  1
  Au  Au152  1  0.58125000  0.56230000  0.92869000  1
  Au  Au153  1  0.59969000  0.05554000  0.00613000  1
  Au  Au154  1  0.61043000  0.92545000  0.95603000  1
  Au  Au155  1  0.65203000  0.49657000  0.97835000  1
  Au  Au156  1  0.84797000  0.50343000  0.47835000  1
  Au  Au157  1  0.88957000  0.07455000  0.45603000  1
  Au  Au158  1  0.90031000  0.94446000  0.50613000  1
  Au  Au159  1  0.91875000  0.43770000  0.42869000  1
  Au  Au160  1  0.92545000  0.95603000  0.61043000  1
  Au  Au161  1  0.92869000  0.58125000  0.56230000  1
  Au  Au162  1  0.93770000  0.07131000  0.08125000  1
  Au  Au163  1  0.94446000  0.50613000  0.90031000  1
  Au  Au164  1  0.95603000  0.61043000  0.92545000  1
  Au  Au165  1  0.97835000  0.65203000  0.49657000  1
  Au  Au166  1  0.99387000  0.09969000  0.44446000  1
  Au  Au167  1  0.99657000  0.52165000  0.34797000  1
  C  C168  1  0.00190000  0.38100000  0.84310000  1
  C  C169  1  0.00210000  0.53690000  0.64030000  1
  C  C170  1  0.00240000  0.69790000  0.10750000  1
  C  C171  1  0.00300000  0.67200000  0.83530000  1
  C  C172  1  0.00390000  0.40170000  0.09360000  1
  C  C173  1  0.00450000  0.07240000  0.24250000  1
  C  C174  1  0.00530000  0.03550000  0.75170000  1
  C  C175  1  0.00600000  0.88750000  0.01910000  1
  C  C176  1  0.00630000  0.36880000  0.43920000  1
  C  C177  1  0.00650000  0.70580000  0.90720000  1
  C  C178  1  0.00920000  0.70030000  0.06110000  1
  C  C179  1  0.01000000  0.46950000  0.60830000  1
  C  C180  1  0.01600000  0.41350000  0.32050000  1
  C  C181  1  0.01910000  0.00600000  0.88750000  1
  C  C182  1  0.01920000  0.81770000  0.59670000  1
  C  C183  1  0.02270000  0.07560000  0.84570000  1
  C  C184  1  0.02320000  0.67410000  0.87730000  1
  C  C185  1  0.02410000  0.31870000  0.88320000  1
  C  C186  1  0.02780000  0.08870000  0.34550000  1
  C  C187  1  0.02950000  0.22430000  0.08870000  1
  C  C188  1  0.03020000  0.74060000  0.05130000  1
  C  C189  1  0.03050000  0.39170000  0.51000000  1
  C  C190  1  0.03170000  0.19770000  0.46260000  1
  C  C191  1  0.03550000  0.75170000  0.00530000  1
  C  C192  1  0.03640000  0.36110000  0.86900000  1
  C  C193  1  0.03690000  0.85970000  0.99790000  1
  C  C194  1  0.03740000  0.72480000  0.55440000  1
  C  C195  1  0.03740000  0.96830000  0.69770000  1
  C  C196  1  0.04430000  0.39820000  0.06840000  1
  C  C197  1  0.04510000  0.09500000  0.23060000  1
  C  C198  1  0.04510000  0.16800000  0.66420000  1
  C  C199  1  0.04720000  0.35600000  0.04770000  1
  C  C200  1  0.04770000  0.04720000  0.35600000  1
  C  C201  1  0.05130000  0.03020000  0.74060000  1
  C  C202  1  0.05280000  0.70960000  0.32410000  1
  C  C203  1  0.05440000  0.46260000  0.27520000  1
  C  C204  1  0.05540000  0.44050000  0.31720000  1
  C  C205  1  0.05950000  0.68280000  0.55540000  1
  C  C206  1  0.06080000  0.99370000  0.86880000  1
  C  C207  1  0.06110000  0.00920000  0.70030000  1
  C  C208  1  0.06840000  0.04430000  0.39820000  1
  C  C209  1  0.06960000  0.68150000  0.86890000  1
  C  C210  1  0.07200000  0.20600000  0.07700000  1
  C  C211  1  0.07240000  0.24250000  0.00450000  1
  C  C212  1  0.07480000  0.35830000  0.84180000  1
  C  C213  1  0.07560000  0.84570000  0.02270000  1
  C  C214  1  0.07700000  0.07200000  0.20600000  1
  C  C215  1  0.08310000  0.41010000  0.09460000  1
  C  C216  1  0.08440000  0.67920000  0.59430000  1
  C  C217  1  0.08650000  0.67950000  0.51600000  1
  C  C218  1  0.08870000  0.02950000  0.22430000  1
  C  C219  1  0.08870000  0.34550000  0.02780000  1
  C  C220  1  0.08880000  0.67800000  0.32670000  1
  C  C221  1  0.08990000  0.90540000  0.58310000  1
  C  C222  1  0.09120000  0.67820000  0.40500000  1
  C  C223  1  0.09280000  0.50650000  0.79420000  1
  C  C224  1  0.09360000  0.00390000  0.40170000  1
  C  C225  1  0.09400000  0.38650000  0.35860000  1
  C  C226  1  0.09430000  0.41560000  0.32080000  1
  C  C227  1  0.09460000  0.08310000  0.41010000  1
  C  C228  1  0.09500000  0.23060000  0.04510000  1
  C  C229  1  0.09500000  0.65270000  0.36550000  1
  C  C230  1  0.09500000  0.90880000  0.17820000  1
  C  C231  1  0.09670000  0.48080000  0.18230000  1
  C  C232  1  0.09830000  0.90640000  0.50390000  1
  C  C233  1  0.10080000  0.20270000  0.11500000  1
  C  C234  1  0.10180000  0.93160000  0.54430000  1
  C  C235  1  0.10750000  0.00240000  0.69790000  1
  C  C236  1  0.10830000  0.49000000  0.53050000  1
  C  C237  1  0.11250000  0.51910000  0.49400000  1
  C  C238  1  0.11350000  0.64140000  0.59400000  1
  C  C239  1  0.11500000  0.10080000  0.20270000  1
  C  C240  1  0.11680000  0.52410000  0.18130000  1
  C  C241  1  0.11900000  0.15690000  0.50190000  1
  C  C242  1  0.12270000  0.52320000  0.82590000  1
  C  C243  1  0.12990000  0.13280000  0.86370000  1
  C  C244  1  0.13100000  0.53640000  0.13890000  1
  C  C245  1  0.13110000  0.56960000  0.81850000  1
  C  C246  1  0.13120000  0.56080000  0.50630000  1
  C  C247  1  0.13280000  0.86370000  0.12990000  1
  C  C248  1  0.13450000  0.90500000  0.15270000  1
  C  C249  1  0.13630000  0.62990000  0.36720000  1
  C  C250  1  0.13890000  0.13100000  0.53640000  1
  C  C251  1  0.14030000  0.49790000  0.46310000  1
  C  C252  1  0.14140000  0.90600000  0.88650000  1
  C  C253  1  0.14170000  0.15820000  0.57480000  1
  C  C254  1  0.14400000  0.95230000  0.54720000  1
  C  C255  1  0.15270000  0.13450000  0.90500000  1
  C  C256  1  0.15430000  0.52270000  0.42440000  1
  C  C257  1  0.15450000  0.97220000  0.58870000  1
  C  C258  1  0.15690000  0.50190000  0.11900000  1
  C  C259  1  0.15820000  0.57480000  0.14170000  1
  C  C260  1  0.16420000  0.45490000  0.83200000  1
  C  C261  1  0.16470000  0.50300000  0.82800000  1
  C  C262  1  0.16800000  0.66420000  0.04510000  1
  C  C263  1  0.17200000  0.66470000  0.99700000  1
  C  C264  1  0.17330000  0.91120000  0.17800000  1
  C  C265  1  0.17410000  0.62270000  0.97680000  1
  C  C266  1  0.17590000  0.94720000  0.20960000  1
  C  C267  1  0.17800000  0.17330000  0.91120000  1
  C  C268  1  0.17820000  0.09500000  0.90880000  1
  C  C269  1  0.17920000  0.90570000  0.91560000  1
  C  C270  1  0.17950000  0.98400000  0.91350000  1
  C  C271  1  0.18130000  0.11680000  0.52410000  1
  C  C272  1  0.18150000  0.63110000  0.93040000  1
  C  C273  1  0.18230000  0.09670000  0.48080000  1
  C  C274  1  0.18280000  0.94460000  0.94050000  1
  C  C275  1  0.19770000  0.46260000  0.03170000  1
  C  C276  1  0.19790000  0.39250000  0.99760000  1
  C  C277  1  0.20030000  0.43890000  0.99080000  1
  C  C278  1  0.20270000  0.11500000  0.10080000  1
  C  C279  1  0.20580000  0.59280000  0.99350000  1
  C  C280  1  0.20600000  0.07700000  0.07200000  1
  C  C281  1  0.20960000  0.17590000  0.94720000  1
  C  C282  1  0.22430000  0.08870000  0.02950000  1
  C  C283  1  0.22480000  0.94560000  0.96260000  1
  C  C284  1  0.23060000  0.04510000  0.09500000  1
  C  C285  1  0.24060000  0.44870000  0.96980000  1
  C  C286  1  0.24250000  0.00450000  0.07240000  1
  C  C287  1  0.24830000  0.50530000  0.46450000  1
  C  C288  1  0.25170000  0.49470000  0.96450000  1
  C  C289  1  0.25750000  0.99550000  0.57240000  1
  C  C290  1  0.25940000  0.55130000  0.46980000  1
  C  C291  1  0.26940000  0.95490000  0.59500000  1
  C  C292  1  0.27520000  0.05440000  0.46260000  1
  C  C293  1  0.27570000  0.91130000  0.52950000  1
  C  C294  1  0.29040000  0.82410000  0.44720000  1
  C  C295  1  0.29400000  0.92300000  0.57200000  1
  C  C296  1  0.29420000  0.40720000  0.49350000  1
  C  C297  1  0.29730000  0.88500000  0.60080000  1
  C  C298  1  0.29970000  0.56110000  0.49080000  1
  C  C299  1  0.30210000  0.60750000  0.49760000  1
  C  C300  1  0.30230000  0.53740000  0.53170000  1
  C  C301  1  0.31720000  0.05540000  0.44050000  1
  C  C302  1  0.31770000  0.90330000  0.98080000  1
  C  C303  1  0.31850000  0.36890000  0.43040000  1
  C  C304  1  0.31870000  0.88320000  0.02410000  1
  C  C305  1  0.32050000  0.01600000  0.41350000  1
  C  C306  1  0.32080000  0.09430000  0.41560000  1
  C  C307  1  0.32180000  0.90500000  0.40880000  1
  C  C308  1  0.32200000  0.82670000  0.41120000  1
  C  C309  1  0.32410000  0.05280000  0.70960000  1
  C  C310  1  0.32590000  0.37730000  0.47680000  1
  C  C311  1  0.32670000  0.08880000  0.67800000  1
  C  C312  1  0.32800000  0.33530000  0.49700000  1
  C  C313  1  0.33200000  0.33580000  0.54510000  1
  C  C314  1  0.33530000  0.49700000  0.32800000  1
  C  C315  1  0.33580000  0.54510000  0.33200000  1
  C  C316  1  0.34180000  0.42520000  0.64170000  1
  C  C317  1  0.34310000  0.49810000  0.61900000  1
  C  C318  1  0.34550000  0.02780000  0.08870000  1
  C  C319  1  0.34570000  0.47730000  0.92440000  1
  C  C320  1  0.34730000  0.86550000  0.40500000  1
  C  C321  1  0.35600000  0.04770000  0.04720000  1
  C  C322  1  0.35830000  0.84180000  0.07480000  1
  C  C323  1  0.35860000  0.09400000  0.38650000  1
  C  C324  1  0.35970000  0.50210000  0.96310000  1
  C  C325  1  0.36110000  0.86900000  0.03640000  1
  C  C326  1  0.36370000  0.37010000  0.86720000  1
  C  C327  1  0.36550000  0.09500000  0.65270000  1
  C  C328  1  0.36720000  0.13630000  0.62990000  1
  C  C329  1  0.36880000  0.43920000  0.00630000  1
  C  C330  1  0.36890000  0.43040000  0.31850000  1
  C  C331  1  0.36900000  0.46360000  0.63890000  1
  C  C332  1  0.37010000  0.86720000  0.36370000  1
  C  C333  1  0.37730000  0.47680000  0.32590000  1
  C  C334  1  0.38100000  0.84310000  0.00190000  1
  C  C335  1  0.38320000  0.47590000  0.68130000  1
  C  C336  1  0.38500000  0.89920000  0.70270000  1
  C  C337  1  0.38650000  0.35860000  0.09400000  1
  C  C338  1  0.38750000  0.48090000  0.99400000  1
  C  C339  1  0.39170000  0.51000000  0.03050000  1
  C  C340  1  0.39250000  0.99760000  0.19790000  1
  C  C341  1  0.39820000  0.06840000  0.04430000  1
  C  C342  1  0.39920000  0.79730000  0.61500000  1
  C  C343  1  0.40170000  0.09360000  0.00390000  1
  C  C344  1  0.40330000  0.51920000  0.68230000  1
  C  C345  1  0.40500000  0.09120000  0.67820000  1
  C  C346  1  0.40500000  0.34730000  0.86550000  1
  C  C347  1  0.40500000  0.76940000  0.54510000  1
  C  C348  1  0.40540000  0.91690000  0.91010000  1
  C  C349  1  0.40570000  0.58440000  0.82080000  1
  C  C350  1  0.40600000  0.61350000  0.85860000  1
  C  C351  1  0.40640000  0.99610000  0.90170000  1
  C  C352  1  0.40720000  0.49350000  0.29420000  1
  C  C353  1  0.40880000  0.32180000  0.90500000  1
  C  C354  1  0.41010000  0.09460000  0.08310000  1
  C  C355  1  0.41120000  0.32200000  0.82670000  1
  C  C356  1  0.41130000  0.65450000  0.52780000  1
  C  C357  1  0.41130000  0.97050000  0.72430000  1
  C  C358  1  0.41350000  0.32050000  0.01600000  1
  C  C359  1  0.41560000  0.32080000  0.09430000  1
  C  C360  1  0.41690000  0.58990000  0.59460000  1
  C  C361  1  0.42300000  0.92800000  0.70600000  1
  C  C362  1  0.42440000  0.15430000  0.52270000  1
  C  C363  1  0.42520000  0.64170000  0.34180000  1
  C  C364  1  0.42760000  0.75750000  0.50450000  1
  C  C365  1  0.42800000  0.79400000  0.57700000  1
  C  C366  1  0.43040000  0.31850000  0.36890000  1
  C  C367  1  0.43160000  0.95570000  0.89820000  1
  C  C368  1  0.43890000  0.99080000  0.20030000  1
  C  C369  1  0.43920000  0.00630000  0.36880000  1
  C  C370  1  0.44050000  0.31720000  0.05540000  1
  C  C371  1  0.44460000  0.55950000  0.81720000  1
  C  C372  1  0.44560000  0.53740000  0.77520000  1
  C  C373  1  0.44720000  0.29040000  0.82410000  1
  C  C374  1  0.44870000  0.96980000  0.24060000  1
  C  C375  1  0.45230000  0.95280000  0.85600000  1
  C  C376  1  0.45280000  0.64400000  0.54770000  1
  C  C377  1  0.45490000  0.83200000  0.16420000  1
  C  C378  1  0.45490000  0.90500000  0.73060000  1
  C  C379  1  0.45570000  0.60180000  0.56840000  1
  C  C380  1  0.46260000  0.03170000  0.19770000  1
  C  C381  1  0.46260000  0.27520000  0.05440000  1
  C  C382  1  0.46310000  0.14030000  0.49790000  1
  C  C383  1  0.46360000  0.63890000  0.36900000  1
  C  C384  1  0.46450000  0.24830000  0.50530000  1
  C  C385  1  0.46830000  0.80230000  0.96260000  1
  C  C386  1  0.46950000  0.60830000  0.01000000  1
  C  C387  1  0.46980000  0.25940000  0.55130000  1
  C  C388  1  0.47050000  0.77570000  0.58870000  1
  C  C389  1  0.47220000  0.91130000  0.84550000  1
  C  C390  1  0.47590000  0.68130000  0.38320000  1
  C  C391  1  0.47680000  0.32590000  0.37730000  1
  C  C392  1  0.47730000  0.92440000  0.34570000  1
  C  C393  1  0.48080000  0.18230000  0.09670000  1
  C  C394  1  0.48090000  0.99400000  0.38750000  1
  C  C395  1  0.48400000  0.58650000  0.82050000  1
  C  C396  1  0.49000000  0.53050000  0.10830000  1
  C  C397  1  0.49080000  0.29970000  0.56110000  1
  C  C398  1  0.49350000  0.29420000  0.40720000  1
  C  C399  1  0.49370000  0.63120000  0.93920000  1
  C  C400  1  0.49400000  0.11250000  0.51910000  1
  C  C401  1  0.49470000  0.96450000  0.25170000  1
  C  C402  1  0.49550000  0.92760000  0.74250000  1
  C  C403  1  0.49610000  0.59830000  0.59360000  1
  C  C404  1  0.49700000  0.32800000  0.33530000  1
  C  C405  1  0.49760000  0.30210000  0.60750000  1
  C  C406  1  0.49790000  0.46310000  0.14030000  1
  C  C407  1  0.49810000  0.61900000  0.34310000  1
  C  C408  1  0.50190000  0.11900000  0.15690000  1
  C  C409  1  0.50210000  0.96310000  0.35970000  1
  C  C410  1  0.50240000  0.80210000  0.89250000  1
  C  C411  1  0.50300000  0.82800000  0.16470000  1
  C  C412  1  0.50390000  0.09830000  0.90640000  1
  C  C413  1  0.50450000  0.42760000  0.75750000  1
  C  C414  1  0.50530000  0.46450000  0.24830000  1
  C  C415  1  0.50600000  0.61250000  0.98090000  1
  C  C416  1  0.50630000  0.13120000  0.56080000  1
  C  C417  1  0.50650000  0.79420000  0.09280000  1
  C  C418  1  0.50920000  0.79970000  0.93890000  1
  C  C419  1  0.51000000  0.03050000  0.39170000  1
  C  C420  1  0.51600000  0.08650000  0.67950000  1
  C  C421  1  0.51910000  0.49400000  0.11250000  1
  C  C422  1  0.51920000  0.68230000  0.40330000  1
  C  C423  1  0.52270000  0.42440000  0.15430000  1
  C  C424  1  0.52320000  0.82590000  0.12270000  1
  C  C425  1  0.52410000  0.18130000  0.11680000  1
  C  C426  1  0.52780000  0.41130000  0.65450000  1
  C  C427  1  0.52950000  0.27570000  0.91130000  1
  C  C428  1  0.53020000  0.75940000  0.94870000  1
  C  C429  1  0.53050000  0.10830000  0.49000000  1
  C  C430  1  0.53170000  0.30230000  0.53740000  1
  C  C431  1  0.53550000  0.74830000  0.99470000  1
  C  C432  1  0.53640000  0.13890000  0.13100000  1
  C  C433  1  0.53690000  0.64030000  0.00210000  1
  C  C434  1  0.53740000  0.53170000  0.30230000  1
  C  C435  1  0.53740000  0.77520000  0.44560000  1
  C  C436  1  0.54430000  0.10180000  0.93160000  1
  C  C437  1  0.54510000  0.33200000  0.33580000  1
  C  C438  1  0.54510000  0.40500000  0.76940000  1
  C  C439  1  0.54720000  0.14400000  0.95230000  1
  C  C440  1  0.54770000  0.45280000  0.64400000  1
  C  C441  1  0.55130000  0.46980000  0.25940000  1
  C  C442  1  0.55280000  0.79040000  0.67590000  1
  C  C443  1  0.55440000  0.03740000  0.72480000  1
  C  C444  1  0.55540000  0.05950000  0.68280000  1
  C  C445  1  0.55950000  0.81720000  0.44460000  1
  C  C446  1  0.56080000  0.50630000  0.13120000  1
  C  C447  1  0.56110000  0.49080000  0.29970000  1
  C  C448  1  0.56840000  0.45570000  0.60180000  1
  C  C449  1  0.56960000  0.81850000  0.13110000  1
  C  C450  1  0.57200000  0.29400000  0.92300000  1
  C  C451  1  0.57240000  0.25750000  0.99550000  1
  C  C452  1  0.57480000  0.14170000  0.15820000  1
  C  C453  1  0.57560000  0.65430000  0.97730000  1
  C  C454  1  0.57700000  0.42800000  0.79400000  1
  C  C455  1  0.58310000  0.08990000  0.90540000  1
  C  C456  1  0.58440000  0.82080000  0.40570000  1
  C  C457  1  0.58650000  0.82050000  0.48400000  1
  C  C458  1  0.58870000  0.15450000  0.97220000  1
  C  C459  1  0.58870000  0.47050000  0.77570000  1
  C  C460  1  0.58880000  0.82200000  0.67330000  1
  C  C461  1  0.58990000  0.59460000  0.41690000  1
  C  C462  1  0.59120000  0.82180000  0.59500000  1
  C  C463  1  0.59280000  0.99350000  0.20580000  1
  C  C464  1  0.59360000  0.49610000  0.59830000  1
  C  C465  1  0.59400000  0.11350000  0.64140000  1
  C  C466  1  0.59430000  0.08440000  0.67920000  1
  C  C467  1  0.59460000  0.41690000  0.58990000  1
  C  C468  1  0.59500000  0.26940000  0.95490000  1
  C  C469  1  0.59500000  0.59120000  0.82180000  1
  C  C470  1  0.59500000  0.84730000  0.63450000  1
  C  C471  1  0.59670000  0.01920000  0.81770000  1
  C  C472  1  0.59830000  0.59360000  0.49610000  1
  C  C473  1  0.60080000  0.29730000  0.88500000  1
  C  C474  1  0.60180000  0.56840000  0.45570000  1
  C  C475  1  0.60750000  0.49760000  0.30210000  1
  C  C476  1  0.60830000  0.01000000  0.46950000  1
  C  C477  1  0.61250000  0.98090000  0.50600000  1
  C  C478  1  0.61350000  0.85860000  0.40600000  1
  C  C479  1  0.61500000  0.39920000  0.79730000  1
  C  C480  1  0.61680000  0.97590000  0.81870000  1
  C  C481  1  0.61900000  0.34310000  0.49810000  1
  C  C482  1  0.62270000  0.97680000  0.17410000  1
  C  C483  1  0.62990000  0.36720000  0.13630000  1
  C  C484  1  0.63100000  0.96360000  0.86110000  1
  C  C485  1  0.63110000  0.93040000  0.18150000  1
  C  C486  1  0.63120000  0.93920000  0.49370000  1
  C  C487  1  0.63280000  0.63630000  0.87010000  1
  C  C488  1  0.63450000  0.59500000  0.84730000  1
  C  C489  1  0.63630000  0.87010000  0.63280000  1
  C  C490  1  0.63890000  0.36900000  0.46360000  1
  C  C491  1  0.64030000  0.00210000  0.53690000  1
  C  C492  1  0.64140000  0.59400000  0.11350000  1
  C  C493  1  0.64170000  0.34180000  0.42520000  1
  C  C494  1  0.64400000  0.54770000  0.45280000  1
  C  C495  1  0.65270000  0.36550000  0.09500000  1
  C  C496  1  0.65430000  0.97730000  0.57560000  1
  C  C497  1  0.65450000  0.52780000  0.41130000  1
  C  C498  1  0.65690000  0.99810000  0.88100000  1
  C  C499  1  0.65820000  0.92520000  0.85830000  1
  C  C500  1  0.66420000  0.04510000  0.16800000  1
  C  C501  1  0.66470000  0.99700000  0.17200000  1
  C  C502  1  0.66800000  0.83580000  0.95490000  1
  C  C503  1  0.67200000  0.83530000  0.00300000  1
  C  C504  1  0.67330000  0.58880000  0.82200000  1
  C  C505  1  0.67410000  0.87730000  0.02320000  1
  C  C506  1  0.67590000  0.55280000  0.79040000  1
  C  C507  1  0.67800000  0.32670000  0.08880000  1
  C  C508  1  0.67820000  0.40500000  0.09120000  1
  C  C509  1  0.67920000  0.59430000  0.08440000  1
  C  C510  1  0.67950000  0.51600000  0.08650000  1
  C  C511  1  0.68130000  0.38320000  0.47590000  1
  C  C512  1  0.68150000  0.86890000  0.06960000  1
  C  C513  1  0.68230000  0.40330000  0.51920000  1
  C  C514  1  0.68280000  0.55540000  0.05950000  1
  C  C515  1  0.69770000  0.03740000  0.96830000  1
  C  C516  1  0.69790000  0.10750000  0.00240000  1
  C  C517  1  0.70030000  0.06110000  0.00920000  1
  C  C518  1  0.70270000  0.38500000  0.89920000  1
  C  C519  1  0.70580000  0.90720000  0.00650000  1
  C  C520  1  0.70600000  0.42300000  0.92800000  1
  C  C521  1  0.70960000  0.32410000  0.05280000  1
  C  C522  1  0.72430000  0.41130000  0.97050000  1
  C  C523  1  0.72480000  0.55440000  0.03740000  1
  C  C524  1  0.73060000  0.45490000  0.90500000  1
  C  C525  1  0.74060000  0.05130000  0.03020000  1
  C  C526  1  0.74250000  0.49550000  0.92760000  1
  C  C527  1  0.74830000  0.99470000  0.53550000  1
  C  C528  1  0.75170000  0.00530000  0.03550000  1
  C  C529  1  0.75750000  0.50450000  0.42760000  1
  C  C530  1  0.75940000  0.94870000  0.53020000  1
  C  C531  1  0.76940000  0.54510000  0.40500000  1
  C  C532  1  0.77520000  0.44560000  0.53740000  1
  C  C533  1  0.77570000  0.58870000  0.47050000  1
  C  C534  1  0.79040000  0.67590000  0.55280000  1
  C  C535  1  0.79400000  0.57700000  0.42800000  1
  C  C536  1  0.79420000  0.09280000  0.50650000  1
  C  C537  1  0.79730000  0.61500000  0.39920000  1
  C  C538  1  0.79970000  0.93890000  0.50920000  1
  C  C539  1  0.80210000  0.89250000  0.50240000  1
  C  C540  1  0.80230000  0.96260000  0.46830000  1
  C  C541  1  0.81720000  0.44460000  0.55950000  1
  C  C542  1  0.81770000  0.59670000  0.01920000  1
  C  C543  1  0.81850000  0.13110000  0.56960000  1
  C  C544  1  0.81870000  0.61680000  0.97590000  1
  C  C545  1  0.82050000  0.48400000  0.58650000  1
  C  C546  1  0.82080000  0.40570000  0.58440000  1
  C  C547  1  0.82180000  0.59500000  0.59120000  1
  C  C548  1  0.82200000  0.67330000  0.58880000  1
  C  C549  1  0.82410000  0.44720000  0.29040000  1
  C  C550  1  0.82590000  0.12270000  0.52320000  1
  C  C551  1  0.82670000  0.41120000  0.32200000  1
  C  C552  1  0.82800000  0.16470000  0.50300000  1
  C  C553  1  0.83200000  0.16420000  0.45490000  1
  C  C554  1  0.83530000  0.00300000  0.67200000  1
  C  C555  1  0.83580000  0.95490000  0.66800000  1
  C  C556  1  0.84180000  0.07480000  0.35830000  1
  C  C557  1  0.84310000  0.00190000  0.38100000  1
  C  C558  1  0.84550000  0.47220000  0.91130000  1
  C  C559  1  0.84570000  0.02270000  0.07560000  1
  C  C560  1  0.84730000  0.63450000  0.59500000  1
  C  C561  1  0.85600000  0.45230000  0.95280000  1
  C  C562  1  0.85830000  0.65820000  0.92520000  1
  C  C563  1  0.85860000  0.40600000  0.61350000  1
  C  C564  1  0.85970000  0.99790000  0.03690000  1
  C  C565  1  0.86110000  0.63100000  0.96360000  1
  C  C566  1  0.86370000  0.12990000  0.13280000  1
  C  C567  1  0.86550000  0.40500000  0.34730000  1
  C  C568  1  0.86720000  0.36370000  0.37010000  1
  C  C569  1  0.86880000  0.06080000  0.99370000  1
  C  C570  1  0.86890000  0.06960000  0.68150000  1
  C  C571  1  0.86900000  0.03640000  0.36110000  1
  C  C572  1  0.87010000  0.63280000  0.63630000  1
  C  C573  1  0.87730000  0.02320000  0.67410000  1
  C  C574  1  0.88100000  0.65690000  0.99810000  1
  C  C575  1  0.88320000  0.02410000  0.31870000  1
  C  C576  1  0.88500000  0.60080000  0.29730000  1
  C  C577  1  0.88650000  0.14140000  0.90600000  1
  C  C578  1  0.88750000  0.01910000  0.00600000  1
  C  C579  1  0.89170000  0.99000000  0.96950000  1
  C  C580  1  0.89250000  0.50240000  0.80210000  1
  C  C581  1  0.89820000  0.43160000  0.95570000  1
  C  C582  1  0.89920000  0.70270000  0.38500000  1
  C  C583  1  0.90170000  0.40640000  0.99610000  1
  C  C584  1  0.90330000  0.98080000  0.31770000  1
  C  C585  1  0.90500000  0.15270000  0.13450000  1
  C  C586  1  0.90500000  0.40880000  0.32180000  1
  C  C587  1  0.90500000  0.73060000  0.45490000  1
  C  C588  1  0.90540000  0.58310000  0.08990000  1
  C  C589  1  0.90570000  0.91560000  0.17920000  1
  C  C590  1  0.90600000  0.88650000  0.14140000  1
  C  C591  1  0.90640000  0.50390000  0.09830000  1
  C  C592  1  0.90720000  0.00650000  0.70580000  1
  C  C593  1  0.90880000  0.17820000  0.09500000  1
  C  C594  1  0.91010000  0.40540000  0.91690000  1
  C  C595  1  0.91120000  0.17800000  0.17330000  1
  C  C596  1  0.91130000  0.52950000  0.27570000  1
  C  C597  1  0.91130000  0.84550000  0.47220000  1
  C  C598  1  0.91350000  0.17950000  0.98400000  1
  C  C599  1  0.91560000  0.17920000  0.90570000  1
  C  C600  1  0.91690000  0.91010000  0.40540000  1
  C  C601  1  0.92300000  0.57200000  0.29400000  1
  C  C602  1  0.92440000  0.34570000  0.47730000  1
  C  C603  1  0.92520000  0.85830000  0.65820000  1
  C  C604  1  0.92760000  0.74250000  0.49550000  1
  C  C605  1  0.92800000  0.70600000  0.42300000  1
  C  C606  1  0.93040000  0.18150000  0.63110000  1
  C  C607  1  0.93160000  0.54430000  0.10180000  1
  C  C608  1  0.93890000  0.50920000  0.79970000  1
  C  C609  1  0.93920000  0.49370000  0.63120000  1
  C  C610  1  0.94050000  0.18280000  0.94460000  1
  C  C611  1  0.94460000  0.94050000  0.18280000  1
  C  C612  1  0.94560000  0.96260000  0.22480000  1
  C  C613  1  0.94720000  0.20960000  0.17590000  1
  C  C614  1  0.94870000  0.53020000  0.75940000  1
  C  C615  1  0.95230000  0.54720000  0.14400000  1
  C  C616  1  0.95280000  0.85600000  0.45230000  1
  C  C617  1  0.95490000  0.59500000  0.26940000  1
  C  C618  1  0.95490000  0.66800000  0.83580000  1
  C  C619  1  0.95570000  0.89820000  0.43160000  1
  C  C620  1  0.96260000  0.22480000  0.94560000  1
  C  C621  1  0.96260000  0.46830000  0.80230000  1
  C  C622  1  0.96310000  0.35970000  0.50210000  1
  C  C623  1  0.96360000  0.86110000  0.63100000  1
  C  C624  1  0.96450000  0.25170000  0.49470000  1
  C  C625  1  0.96830000  0.69770000  0.03740000  1
  C  C626  1  0.96950000  0.89170000  0.99000000  1
  C  C627  1  0.96980000  0.24060000  0.44870000  1
  C  C628  1  0.97050000  0.72430000  0.41130000  1
  C  C629  1  0.97220000  0.58870000  0.15450000  1
  C  C630  1  0.97590000  0.81870000  0.61680000  1
  C  C631  1  0.97680000  0.17410000  0.62270000  1
  C  C632  1  0.97730000  0.57560000  0.65430000  1
  C  C633  1  0.98080000  0.31770000  0.90330000  1
  C  C634  1  0.98090000  0.50600000  0.61250000  1
  C  C635  1  0.98400000  0.91350000  0.17950000  1
  C  C636  1  0.99000000  0.96950000  0.89170000  1
  C  C637  1  0.99080000  0.20030000  0.43890000  1
  C  C638  1  0.99350000  0.20580000  0.59280000  1
  C  C639  1  0.99370000  0.86880000  0.06080000  1
  C  C640  1  0.99400000  0.38750000  0.48090000  1
  C  C641  1  0.99470000  0.53550000  0.74830000  1
  C  C642  1  0.99550000  0.57240000  0.25750000  1
  C  C643  1  0.99610000  0.90170000  0.40640000  1
  C  C644  1  0.99700000  0.17200000  0.66470000  1
  C  C645  1  0.99760000  0.19790000  0.39250000  1
  C  C646  1  0.99790000  0.03690000  0.85970000  1
  C  C647  1  0.99810000  0.88100000  0.65690000  1
  S  S648  1  0.01964000  0.64164000  0.55291000  1
  S  S649  1  0.02139000  0.62202000  0.90302000  1
  S  S650  1  0.02600000  0.02776000  0.93862000  1
  S  S651  1  0.02756000  0.03888000  0.43754000  1
  S  S652  1  0.02776000  0.93862000  0.02600000  1
  S  S653  1  0.03888000  0.43754000  0.02756000  1
  S  S654  1  0.04305000  0.65864000  0.04575000  1
  S  S655  1  0.04575000  0.04305000  0.65864000  1
  S  S656  1  0.05130000  0.39335000  0.91206000  1
  S  S657  1  0.05291000  0.48036000  0.35836000  1
  S  S658  1  0.05341000  0.61381000  0.36326000  1
  S  S659  1  0.05793000  0.06534000  0.15327000  1
  S  S660  1  0.06138000  0.52600000  0.47224000  1
  S  S661  1  0.06246000  0.97244000  0.53888000  1
  S  S662  1  0.06534000  0.15327000  0.05793000  1
  S  S663  1  0.08794000  0.55130000  0.10665000  1
  S  S664  1  0.09698000  0.52139000  0.87798000  1
  S  S665  1  0.10665000  0.08794000  0.55130000  1
  S  S666  1  0.11381000  0.13674000  0.94659000  1
  S  S667  1  0.12202000  0.59698000  0.97861000  1
  S  S668  1  0.13674000  0.94659000  0.11381000  1
  S  S669  1  0.14164000  0.94709000  0.98036000  1
  S  S670  1  0.15327000  0.05793000  0.06534000  1
  S  S671  1  0.15864000  0.45425000  0.95695000  1
  S  S672  1  0.34136000  0.54575000  0.45695000  1
  S  S673  1  0.34673000  0.94207000  0.56534000  1
  S  S674  1  0.35836000  0.05291000  0.48036000  1
  S  S675  1  0.36326000  0.05341000  0.61381000  1
  S  S676  1  0.37798000  0.40302000  0.47861000  1
  S  S677  1  0.38619000  0.86326000  0.44659000  1
  S  S678  1  0.39335000  0.91206000  0.05130000  1
  S  S679  1  0.40302000  0.47861000  0.37798000  1
  S  S680  1  0.41206000  0.44870000  0.60665000  1
  S  S681  1  0.43466000  0.84673000  0.55793000  1
  S  S682  1  0.43754000  0.02756000  0.03888000  1
  S  S683  1  0.43862000  0.47400000  0.97224000  1
  S  S684  1  0.44207000  0.93466000  0.65327000  1
  S  S685  1  0.44659000  0.38619000  0.86326000  1
  S  S686  1  0.44709000  0.51964000  0.85836000  1
  S  S687  1  0.44870000  0.60665000  0.41206000  1
  S  S688  1  0.45425000  0.95695000  0.15864000  1
  S  S689  1  0.45695000  0.34136000  0.54575000  1
  S  S690  1  0.46112000  0.56246000  0.52756000  1
  S  S691  1  0.47224000  0.06138000  0.52600000  1
  S  S692  1  0.47244000  0.96112000  0.93754000  1
  S  S693  1  0.47400000  0.97224000  0.43862000  1
  S  S694  1  0.47861000  0.37798000  0.40302000  1
  S  S695  1  0.48036000  0.35836000  0.05291000  1
  S  S696  1  0.51964000  0.85836000  0.44709000  1
  S  S697  1  0.52139000  0.87798000  0.09698000  1
  S  S698  1  0.52600000  0.47224000  0.06138000  1
  S  S699  1  0.52756000  0.46112000  0.56246000  1
  S  S700  1  0.52776000  0.56138000  0.97400000  1
  S  S701  1  0.53888000  0.06246000  0.97244000  1
  S  S702  1  0.54305000  0.84136000  0.95425000  1
  S  S703  1  0.54575000  0.45695000  0.34136000  1
  S  S704  1  0.55130000  0.10665000  0.08794000  1
  S  S705  1  0.55291000  0.01964000  0.64164000  1
  S  S706  1  0.55341000  0.88619000  0.63674000  1
  S  S707  1  0.55793000  0.43466000  0.84673000  1
  S  S708  1  0.56138000  0.97400000  0.52776000  1
  S  S709  1  0.56246000  0.52756000  0.46112000  1
  S  S710  1  0.56534000  0.34673000  0.94207000  1
  S  S711  1  0.58794000  0.94870000  0.89335000  1
  S  S712  1  0.59698000  0.97861000  0.12202000  1
  S  S713  1  0.60665000  0.41206000  0.44870000  1
  S  S714  1  0.61381000  0.36326000  0.05341000  1
  S  S715  1  0.62202000  0.90302000  0.02139000  1
  S  S716  1  0.63674000  0.55341000  0.88619000  1
  S  S717  1  0.64164000  0.55291000  0.01964000  1
  S  S718  1  0.65327000  0.44207000  0.93466000  1
  S  S719  1  0.65864000  0.04575000  0.04305000  1
  S  S720  1  0.84136000  0.95425000  0.54305000  1
  S  S721  1  0.84673000  0.55793000  0.43466000  1
  S  S722  1  0.85836000  0.44709000  0.51964000  1
  S  S723  1  0.86326000  0.44659000  0.38619000  1
  S  S724  1  0.87798000  0.09698000  0.52139000  1
  S  S725  1  0.88619000  0.63674000  0.55341000  1
  S  S726  1  0.89335000  0.58794000  0.94870000  1
  S  S727  1  0.90302000  0.02139000  0.62202000  1
  S  S728  1  0.91206000  0.05130000  0.39335000  1
  S  S729  1  0.93466000  0.65327000  0.44207000  1
  S  S730  1  0.93754000  0.47244000  0.96112000  1
  S  S731  1  0.93862000  0.02600000  0.02776000  1
  S  S732  1  0.94207000  0.56534000  0.34673000  1
  S  S733  1  0.94659000  0.11381000  0.13674000  1
  S  S734  1  0.94709000  0.98036000  0.14164000  1
  S  S735  1  0.94870000  0.89335000  0.58794000  1
  S  S736  1  0.95425000  0.54305000  0.84136000  1
  S  S737  1  0.95695000  0.15864000  0.45425000  1
  S  S738  1  0.96112000  0.93754000  0.47244000  1
  S  S739  1  0.97224000  0.43862000  0.47400000  1
  S  S740  1  0.97244000  0.53888000  0.06246000  1
  S  S741  1  0.97400000  0.52776000  0.56138000  1
  S  S742  1  0.97861000  0.12202000  0.59698000  1
  S  S743  1  0.98036000  0.14164000  0.94709000  1
  N  N744  1  0.01350000  0.34840000  0.01720000  1
  N  N745  1  0.01720000  0.01350000  0.34840000  1
  N  N746  1  0.01720000  0.63650000  0.80890000  1
  N  N747  1  0.03350000  0.13600000  0.21200000  1
  N  N748  1  0.04260000  0.55090000  0.62380000  1
  N  N749  1  0.05090000  0.87620000  0.95740000  1
  N  N750  1  0.05490000  0.30300000  0.91400000  1
  N  N751  1  0.05700000  0.67040000  0.62960000  1
  N  N752  1  0.06920000  0.07250000  0.74240000  1
  N  N753  1  0.07250000  0.74240000  0.06920000  1
  N  N754  1  0.08600000  0.55490000  0.19700000  1
  N  N755  1  0.08610000  0.65320000  0.28840000  1
  N  N756  1  0.12380000  0.45740000  0.44910000  1
  N  N757  1  0.12960000  0.44300000  0.32960000  1
  N  N758  1  0.13600000  0.21200000  0.03350000  1
  N  N759  1  0.13650000  0.69110000  0.98280000  1
  N  N760  1  0.15160000  0.98280000  0.51350000  1
  N  N761  1  0.15320000  0.21160000  0.91390000  1
  N  N762  1  0.17040000  0.87040000  0.94300000  1
  N  N763  1  0.19110000  0.51720000  0.86350000  1
  N  N764  1  0.19700000  0.08600000  0.55490000  1
  N  N765  1  0.21160000  0.91390000  0.15320000  1
  N  N766  1  0.21200000  0.03350000  0.13600000  1
  N  N767  1  0.24240000  0.43080000  0.92750000  1
  N  N768  1  0.25760000  0.56920000  0.42750000  1
  N  N769  1  0.28800000  0.96650000  0.63600000  1
  N  N770  1  0.28840000  0.08610000  0.65320000  1
  N  N771  1  0.30300000  0.91400000  0.05490000  1
  N  N772  1  0.30890000  0.48280000  0.36350000  1
  N  N773  1  0.32960000  0.12960000  0.44300000  1
  N  N774  1  0.34680000  0.78840000  0.41390000  1
  N  N775  1  0.34840000  0.01720000  0.01350000  1
  N  N776  1  0.36350000  0.30890000  0.48280000  1
  N  N777  1  0.36400000  0.78800000  0.53350000  1
  N  N778  1  0.37040000  0.55700000  0.82960000  1
  N  N779  1  0.37620000  0.54260000  0.94910000  1
  N  N780  1  0.41390000  0.34680000  0.78840000  1
  N  N781  1  0.41400000  0.44510000  0.69700000  1
  N  N782  1  0.42750000  0.25760000  0.56920000  1
  N  N783  1  0.43080000  0.92750000  0.24240000  1
  N  N784  1  0.44300000  0.32960000  0.12960000  1
  N  N785  1  0.44510000  0.69700000  0.41400000  1
  N  N786  1  0.44910000  0.12380000  0.45740000  1
  N  N787  1  0.45740000  0.44910000  0.12380000  1
  N  N788  1  0.46650000  0.86400000  0.71200000  1
  N  N789  1  0.48280000  0.36350000  0.30890000  1
  N  N790  1  0.48280000  0.98650000  0.84840000  1
  N  N791  1  0.48650000  0.65160000  0.51720000  1
  N  N792  1  0.51350000  0.15160000  0.98280000  1
  N  N793  1  0.51720000  0.48650000  0.65160000  1
  N  N794  1  0.51720000  0.86350000  0.19110000  1
  N  N795  1  0.53350000  0.36400000  0.78800000  1
  N  N796  1  0.54260000  0.94910000  0.37620000  1
  N  N797  1  0.55090000  0.62380000  0.04260000  1
  N  N798  1  0.55490000  0.19700000  0.08600000  1
  N  N799  1  0.55700000  0.82960000  0.37040000  1
  N  N800  1  0.56920000  0.42750000  0.25760000  1
  N  N801  1  0.57250000  0.75760000  0.93080000  1
  N  N802  1  0.58600000  0.94510000  0.80300000  1
  N  N803  1  0.58610000  0.84680000  0.71160000  1
  N  N804  1  0.62380000  0.04260000  0.55090000  1
  N  N805  1  0.62960000  0.05700000  0.67040000  1
  N  N806  1  0.63600000  0.28800000  0.96650000  1
  N  N807  1  0.63650000  0.80890000  0.01720000  1
  N  N808  1  0.65160000  0.51720000  0.48650000  1
  N  N809  1  0.65320000  0.28840000  0.08610000  1
  N  N810  1  0.67040000  0.62960000  0.05700000  1
  N  N811  1  0.69110000  0.98280000  0.13650000  1
  N  N812  1  0.69700000  0.41400000  0.44510000  1
  N  N813  1  0.71160000  0.58610000  0.84680000  1
  N  N814  1  0.71200000  0.46650000  0.86400000  1
  N  N815  1  0.74240000  0.06920000  0.07250000  1
  N  N816  1  0.75760000  0.93080000  0.57250000  1
  N  N817  1  0.78800000  0.53350000  0.36400000  1
  N  N818  1  0.78840000  0.41390000  0.34680000  1
  N  N819  1  0.80300000  0.58600000  0.94510000  1
  N  N820  1  0.80890000  0.01720000  0.63650000  1
  N  N821  1  0.82960000  0.37040000  0.55700000  1
  N  N822  1  0.84680000  0.71160000  0.58610000  1
  N  N823  1  0.84840000  0.48280000  0.98650000  1
  N  N824  1  0.86350000  0.19110000  0.51720000  1
  N  N825  1  0.86400000  0.71200000  0.46650000  1
  N  N826  1  0.87040000  0.94300000  0.17040000  1
  N  N827  1  0.87620000  0.95740000  0.05090000  1
  N  N828  1  0.91390000  0.15320000  0.21160000  1
  N  N829  1  0.91400000  0.05490000  0.30300000  1
  N  N830  1  0.92750000  0.24240000  0.43080000  1
  N  N831  1  0.93080000  0.57250000  0.75760000  1
  N  N832  1  0.94300000  0.17040000  0.87040000  1
  N  N833  1  0.94510000  0.80300000  0.58600000  1
  N  N834  1  0.94910000  0.37620000  0.54260000  1
  N  N835  1  0.95740000  0.05090000  0.87620000  1
  N  N836  1  0.96650000  0.63600000  0.28800000  1
  N  N837  1  0.98280000  0.13650000  0.69110000  1
  N  N838  1  0.98280000  0.51350000  0.15160000  1
  N  N839  1  0.98650000  0.84840000  0.48280000  1
  Cl  Cl840  1  0.04990000  0.21760000  0.86420000  1
  Cl  Cl841  1  0.13580000  0.54990000  0.28240000  1
  Cl  Cl842  1  0.21760000  0.86420000  0.04990000  1
  Cl  Cl843  1  0.28240000  0.13580000  0.54990000  1
  Cl  Cl844  1  0.36420000  0.45010000  0.78240000  1
  Cl  Cl845  1  0.45010000  0.78240000  0.36420000  1
  Cl  Cl846  1  0.54990000  0.28240000  0.13580000  1
  Cl  Cl847  1  0.63580000  0.95010000  0.71760000  1
  Cl  Cl848  1  0.71760000  0.63580000  0.95010000  1
  Cl  Cl849  1  0.78240000  0.36420000  0.45010000  1
  Cl  Cl850  1  0.86420000  0.04990000  0.21760000  1
  Cl  Cl851  1  0.95010000  0.71760000  0.63580000  1
  O  O852  1  0.00440000  0.76630000  0.98750000  1
  O  O853  1  0.00540000  0.11010000  0.84750000  1
  O  O854  1  0.00860000  0.03810000  0.26190000  1
  O  O855  1  0.00920000  0.58780000  0.16330000  1
  O  O856  1  0.01130000  0.56960000  0.75580000  1
  O  O857  1  0.01250000  0.50440000  0.73370000  1
  O  O858  1  0.01870000  0.82040000  0.55790000  1
  O  O859  1  0.01880000  0.69790000  0.30960000  1
  O  O860  1  0.02900000  0.59080000  0.26580000  1
  O  O861  1  0.03810000  0.26190000  0.00860000  1
  O  O862  1  0.05060000  0.81420000  0.61850000  1
  O  O863  1  0.05200000  0.11940000  0.34360000  1
  O  O864  1  0.05750000  0.07120000  0.82900000  1
  O  O865  1  0.05790000  0.48130000  0.17960000  1
  O  O866  1  0.05920000  0.74300000  0.34380000  1
  O  O867  1  0.06200000  0.14140000  0.68650000  1
  O  O868  1  0.06500000  0.19380000  0.64350000  1
  O  O869  1  0.06960000  0.74420000  0.98870000  1
  O  O870  1  0.07120000  0.82900000  0.05750000  1
  O  O871  1  0.07630000  0.35160000  0.35230000  1
  O  O872  1  0.08780000  0.33670000  0.99080000  1
  O  O873  1  0.09080000  0.23420000  0.97100000  1
  O  O874  1  0.10100000  0.60820000  0.60810000  1
  O  O875  1  0.10810000  0.39900000  0.39180000  1
  O  O876  1  0.10820000  0.89190000  0.89900000  1
  O  O877  1  0.11010000  0.84750000  0.00540000  1
  O  O878  1  0.11850000  0.44940000  0.18580000  1
  O  O879  1  0.11940000  0.34360000  0.05200000  1
  O  O880  1  0.14140000  0.68650000  0.06200000  1
  O  O881  1  0.14350000  0.43500000  0.80620000  1
  O  O882  1  0.14770000  0.92370000  0.85160000  1
  O  O883  1  0.14840000  0.64770000  0.57630000  1
  O  O884  1  0.15250000  0.50540000  0.38990000  1
  O  O885  1  0.15620000  0.94080000  0.24300000  1
  O  O886  1  0.15640000  0.94800000  0.61940000  1
  O  O887  1  0.16330000  0.00920000  0.58780000  1
  O  O888  1  0.17100000  0.55750000  0.42880000  1
  O  O889  1  0.17960000  0.05790000  0.48130000  1
  O  O890  1  0.18580000  0.11850000  0.44940000  1
  O  O891  1  0.18650000  0.43800000  0.85860000  1
  O  O892  1  0.19040000  0.98120000  0.19790000  1
  O  O893  1  0.19380000  0.64350000  0.06500000  1
  O  O894  1  0.19790000  0.19040000  0.98120000  1
  O  O895  1  0.23370000  0.48750000  0.49560000  1
  O  O896  1  0.23420000  0.97100000  0.09080000  1
  O  O897  1  0.23810000  0.99140000  0.53810000  1
  O  O898  1  0.24300000  0.15620000  0.94080000  1
  O  O899  1  0.24420000  0.51130000  0.93040000  1
  O  O900  1  0.25580000  0.48870000  0.43040000  1
  O  O901  1  0.25700000  0.84380000  0.44080000  1
  O  O902  1  0.26190000  0.00860000  0.03810000  1
  O  O903  1  0.26580000  0.02900000  0.59080000  1
  O  O904  1  0.26630000  0.51250000  0.99560000  1
  O  O905  1  0.30210000  0.80960000  0.48120000  1
  O  O906  1  0.30620000  0.35650000  0.56500000  1
  O  O907  1  0.30960000  0.01880000  0.69790000  1
  O  O908  1  0.31350000  0.56200000  0.35860000  1
  O  O909  1  0.31420000  0.88150000  0.94940000  1
  O  O910  1  0.32040000  0.94210000  0.98130000  1
  O  O911  1  0.32900000  0.44250000  0.92880000  1
  O  O912  1  0.33670000  0.99080000  0.08780000  1
  O  O913  1  0.34360000  0.05200000  0.11940000  1
  O  O914  1  0.34380000  0.05920000  0.74300000  1
  O  O915  1  0.34750000  0.49460000  0.88990000  1
  O  O916  1  0.35160000  0.35230000  0.07630000  1
  O  O917  1  0.35230000  0.07630000  0.35160000  1
  O  O918  1  0.35650000  0.56500000  0.30620000  1
  O  O919  1  0.35860000  0.31350000  0.56200000  1
  O  O920  1  0.38060000  0.65640000  0.55200000  1
  O  O921  1  0.38150000  0.55060000  0.68580000  1
  O  O922  1  0.38990000  0.15250000  0.50540000  1
  O  O923  1  0.39180000  0.10810000  0.39900000  1
  O  O924  1  0.39190000  0.60100000  0.89180000  1
  O  O925  1  0.39900000  0.39180000  0.10810000  1
  O  O926  1  0.40920000  0.76580000  0.47100000  1
  O  O927  1  0.41220000  0.66330000  0.49080000  1
  O  O928  1  0.42370000  0.64840000  0.85230000  1
  O  O929  1  0.42880000  0.17100000  0.55750000  1
  O  O930  1  0.43040000  0.25580000  0.48870000  1
  O  O931  1  0.43500000  0.80620000  0.14350000  1
  O  O932  1  0.43800000  0.85860000  0.18650000  1
  O  O933  1  0.44080000  0.25700000  0.84380000  1
  O  O934  1  0.44210000  0.51870000  0.67960000  1
  O  O935  1  0.44250000  0.92880000  0.32900000  1
  O  O936  1  0.44800000  0.88060000  0.84360000  1
  O  O937  1  0.44940000  0.18580000  0.11850000  1
  O  O938  1  0.46190000  0.73810000  0.50860000  1
  O  O939  1  0.47100000  0.40920000  0.76580000  1
  O  O940  1  0.48120000  0.30210000  0.80960000  1
  O  O941  1  0.48130000  0.17960000  0.05790000  1
  O  O942  1  0.48750000  0.49560000  0.23370000  1
  O  O943  1  0.48870000  0.43040000  0.25580000  1
  O  O944  1  0.49080000  0.41220000  0.66330000  1
  O  O945  1  0.49140000  0.96190000  0.76190000  1
  O  O946  1  0.49460000  0.88990000  0.34750000  1
  O  O947  1  0.49560000  0.23370000  0.48750000  1
  O  O948  1  0.50440000  0.73370000  0.01250000  1
  O  O949  1  0.50540000  0.38990000  0.15250000  1
  O  O950  1  0.50860000  0.46190000  0.73810000  1
  O  O951  1  0.50920000  0.91220000  0.83670000  1
  O  O952  1  0.51130000  0.93040000  0.24420000  1
  O  O953  1  0.51250000  0.99560000  0.26630000  1
  O  O954  1  0.51870000  0.67960000  0.44210000  1
  O  O955  1  0.51880000  0.80210000  0.69040000  1
  O  O956  1  0.52900000  0.90920000  0.73420000  1
  O  O957  1  0.53810000  0.23810000  0.99140000  1
  O  O958  1  0.55060000  0.68580000  0.38150000  1
  O  O959  1  0.55200000  0.38060000  0.65640000  1
  O  O960  1  0.55750000  0.42880000  0.17100000  1
  O  O961  1  0.55790000  0.01870000  0.82040000  1
  O  O962  1  0.55920000  0.75700000  0.65620000  1
  O  O963  1  0.56200000  0.35860000  0.31350000  1
  O  O964  1  0.56500000  0.30620000  0.35650000  1
  O  O965  1  0.56960000  0.75580000  0.01130000  1
  O  O966  1  0.57120000  0.67100000  0.94250000  1
  O  O967  1  0.57630000  0.14840000  0.64770000  1
  O  O968  1  0.58780000  0.16330000  0.00920000  1
  O  O969  1  0.59080000  0.26580000  0.02900000  1
  O  O970  1  0.60100000  0.89180000  0.39190000  1
  O  O971  1  0.60810000  0.10100000  0.60820000  1
  O  O972  1  0.60820000  0.60810000  0.10100000  1
  O  O973  1  0.61010000  0.65250000  0.99460000  1
  O  O974  1  0.61850000  0.05060000  0.81420000  1
  O  O975  1  0.61940000  0.15640000  0.94800000  1
  O  O976  1  0.64140000  0.81350000  0.93800000  1
  O  O977  1  0.64350000  0.06500000  0.19380000  1
  O  O978  1  0.64770000  0.57630000  0.14840000  1
  O  O979  1  0.64840000  0.85230000  0.42370000  1
  O  O980  1  0.65250000  0.99460000  0.61010000  1
  O  O981  1  0.65620000  0.55920000  0.75700000  1
  O  O982  1  0.65640000  0.55200000  0.38060000  1
  O  O983  1  0.66330000  0.49080000  0.41220000  1
  O  O984  1  0.67100000  0.94250000  0.57120000  1
  O  O985  1  0.67960000  0.44210000  0.51870000  1
  O  O986  1  0.68580000  0.38150000  0.55060000  1
  O  O987  1  0.68650000  0.06200000  0.14140000  1
  O  O988  1  0.69040000  0.51880000  0.80210000  1
  O  O989  1  0.69380000  0.85650000  0.93500000  1
  O  O990  1  0.69790000  0.30960000  0.01880000  1
  O  O991  1  0.73370000  0.01250000  0.50440000  1
  O  O992  1  0.73420000  0.52900000  0.90920000  1
  O  O993  1  0.73810000  0.50860000  0.46190000  1
  O  O994  1  0.74300000  0.34380000  0.05920000  1
  O  O995  1  0.74420000  0.98870000  0.06960000  1
  O  O996  1  0.75580000  0.01130000  0.56960000  1
  O  O997  1  0.75700000  0.65620000  0.55920000  1
  O  O998  1  0.76190000  0.49140000  0.96190000  1
  O  O999  1  0.76580000  0.47100000  0.40920000  1
  O  O1000  1  0.76630000  0.98750000  0.00440000  1
  O  O1001  1  0.80210000  0.69040000  0.51880000  1
  O  O1002  1  0.80620000  0.14350000  0.43500000  1
  O  O1003  1  0.80960000  0.48120000  0.30210000  1
  O  O1004  1  0.81350000  0.93800000  0.64140000  1
  O  O1005  1  0.81420000  0.61850000  0.05060000  1
  O  O1006  1  0.82040000  0.55790000  0.01870000  1
  O  O1007  1  0.82900000  0.05750000  0.07120000  1
  O  O1008  1  0.83670000  0.50920000  0.91220000  1
  O  O1009  1  0.84360000  0.44800000  0.88060000  1
  O  O1010  1  0.84380000  0.44080000  0.25700000  1
  O  O1011  1  0.84750000  0.00540000  0.11010000  1
  O  O1012  1  0.85160000  0.14770000  0.92370000  1
  O  O1013  1  0.85230000  0.42370000  0.64840000  1
  O  O1014  1  0.85650000  0.93500000  0.69380000  1
  O  O1015  1  0.85860000  0.18650000  0.43800000  1
  O  O1016  1  0.88060000  0.84360000  0.44800000  1
  O  O1017  1  0.88150000  0.94940000  0.31420000  1
  O  O1018  1  0.88990000  0.34750000  0.49460000  1
  O  O1019  1  0.89180000  0.39190000  0.60100000  1
  O  O1020  1  0.89190000  0.89900000  0.10820000  1
  O  O1021  1  0.89900000  0.10820000  0.89190000  1
  O  O1022  1  0.90920000  0.73420000  0.52900000  1
  O  O1023  1  0.91220000  0.83670000  0.50920000  1
  O  O1024  1  0.92370000  0.85160000  0.14770000  1
  O  O1025  1  0.92880000  0.32900000  0.44250000  1
  O  O1026  1  0.93040000  0.24420000  0.51130000  1
  O  O1027  1  0.93500000  0.69380000  0.85650000  1
  O  O1028  1  0.93800000  0.64140000  0.81350000  1
  O  O1029  1  0.94080000  0.24300000  0.15620000  1
  O  O1030  1  0.94210000  0.98130000  0.32040000  1
  O  O1031  1  0.94250000  0.57120000  0.67100000  1
  O  O1032  1  0.94800000  0.61940000  0.15640000  1
  O  O1033  1  0.94940000  0.31420000  0.88150000  1
  O  O1034  1  0.96190000  0.76190000  0.49140000  1
  O  O1035  1  0.97100000  0.09080000  0.23420000  1
  O  O1036  1  0.98120000  0.19790000  0.19040000  1
  O  O1037  1  0.98130000  0.32040000  0.94210000  1
  O  O1038  1  0.98750000  0.00440000  0.76630000  1
  O  O1039  1  0.98870000  0.06960000  0.74420000  1
  O  O1040  1  0.99080000  0.08780000  0.33670000  1
  O  O1041  1  0.99140000  0.53810000  0.23810000  1
  O  O1042  1  0.99460000  0.61010000  0.65250000  1
  O  O1043  1  0.99560000  0.26630000  0.51250000  1
