# generated using pymatgen
data_Ce2H19C36N6O13
_symmetry_space_group_name_H-M   'P 1'
_cell_length_a   16.91330000
_cell_length_b   28.74000000
_cell_length_c   29.94056087
_cell_angle_alpha   118.68256272
_cell_angle_beta   97.42615987
_cell_angle_gamma   90.00000000
_symmetry_Int_Tables_number   1
_chemical_formula_structural   Ce2H19C36N6O13
_chemical_formula_sum   'Ce16 H152 C288 N48 O104'
_cell_volume   12628.57217308
_cell_formula_units_Z   8
loop_
 _symmetry_equiv_pos_site_id
 _symmetry_equiv_pos_as_xyz
  1  'x, y, z'
loop_
 _atom_site_type_symbol
 _atom_site_label
 _atom_site_symmetry_multiplicity
 _atom_site_fract_x
 _atom_site_fract_y
 _atom_site_fract_z
 _atom_site_occupancy
  Ce  Ce0  1  0.95954000  0.27084000  0.49968000  1
  Ce  Ce1  1  0.88153000  0.71940000  0.00546000  1
  Ce  Ce2  1  0.88073000  0.22407000  0.00060000  1
  Ce  Ce3  1  0.76294000  0.70591000  0.50170000  1
  Ce  Ce4  1  0.73706000  0.20421000  0.49830000  1
  Ce  Ce5  1  0.61927000  0.22347000  0.99940000  1
  Ce  Ce6  1  0.61847000  0.71394000  0.99454000  1
  Ce  Ce7  1  0.54046000  0.77116000  0.50032000  1
  Ce  Ce8  1  0.45954000  0.22884000  0.49968000  1
  Ce  Ce9  1  0.38153000  0.28606000  0.00546000  1
  Ce  Ce10  1  0.38073000  0.77653000  0.00060000  1
  Ce  Ce11  1  0.26294000  0.79579000  0.50170000  1
  Ce  Ce12  1  0.23706000  0.29409000  0.49830000  1
  Ce  Ce13  1  0.11927000  0.77593000  0.99940000  1
  Ce  Ce14  1  0.11847000  0.28060000  0.99454000  1
  Ce  Ce15  1  0.04046000  0.72916000  0.50032000  1
  H  H16  1  0.99690000  0.42640000  0.73320000  1
  H  H17  1  0.99420000  0.13560000  0.36000000  1
  H  H18  1  0.99170000  0.63550000  0.35220000  1
  H  H19  1  0.98940000  0.93110000  0.72260000  1
  H  H20  1  0.98490000  0.19650000  0.24120000  1
  H  H21  1  0.97560000  0.20790000  0.32340000  1
  H  H22  1  0.97230000  0.21320000  0.11060000  1
  H  H23  1  0.97080000  0.54520000  0.87940000  1
  H  H24  1  0.96750000  0.72770000  0.12480000  1
  H  H25  1  0.96540000  0.05120000  0.87020000  1
  H  H26  1  0.95920000  0.73120000  0.26180000  1
  H  H27  1  0.95320000  0.73810000  0.34300000  1
  H  H28  1  0.89940000  0.42380000  0.63560000  1
  H  H29  1  0.88240000  0.53640000  0.79040000  1
  H  H30  1  0.87820000  0.28460000  0.17940000  1
  H  H31  1  0.87720000  0.27460000  0.38920000  1
  H  H32  1  0.87650000  0.28140000  0.31500000  1
  H  H33  1  0.86930000  0.77530000  0.18140000  1
  H  H34  1  0.86250000  0.60250000  0.87220000  1
  H  H35  1  0.86060000  0.85530000  0.13160000  1
  H  H36  1  0.85680000  0.35960000  0.12160000  1
  H  H37  1  0.85340000  0.01970000  0.79360000  1
  H  H38  1  0.85170000  0.87780000  0.65860000  1
  H  H39  1  0.84470000  0.09380000  0.87420000  1
  H  H40  1  0.84370000  0.92270000  0.21300000  1
  H  H41  1  0.84090000  0.74680000  0.30420000  1
  H  H42  1  0.83510000  0.42870000  0.20140000  1
  H  H43  1  0.82660000  0.69450000  0.62040000  1
  H  H44  1  0.82200000  0.74170000  0.37880000  1
  H  H45  1  0.81550000  0.21500000  0.61800000  1
  H  H46  1  0.80810000  0.71030000  0.83920000  1
  H  H47  1  0.80450000  0.21070000  0.75400000  1
  H  H48  1  0.80430000  0.71570000  0.76440000  1
  H  H49  1  0.80250000  0.22150000  0.83580000  1
  H  H50  1  0.80200000  0.04700000  0.35040000  1
  H  H51  1  0.79570000  0.55040000  0.34060000  1
  H  H52  1  0.75640000  0.81500000  0.02520000  1
  H  H53  1  0.75160000  0.30140000  0.97980000  1
  H  H54  1  0.74840000  0.32160000  0.02020000  1
  H  H55  1  0.74360000  0.78980000  0.97480000  1
  H  H56  1  0.70430000  0.20980000  0.65940000  1
  H  H57  1  0.69800000  0.69660000  0.64960000  1
  H  H58  1  0.69750000  0.38570000  0.16420000  1
  H  H59  1  0.69570000  0.95130000  0.23560000  1
  H  H60  1  0.69550000  0.45670000  0.24600000  1
  H  H61  1  0.69190000  0.87110000  0.16080000  1
  H  H62  1  0.68450000  0.59700000  0.38200000  1
  H  H63  1  0.67800000  0.36290000  0.62120000  1
  H  H64  1  0.67340000  0.07410000  0.37960000  1
  H  H65  1  0.66490000  0.22730000  0.79860000  1
  H  H66  1  0.65910000  0.44260000  0.69580000  1
  H  H67  1  0.65630000  0.70970000  0.78700000  1
  H  H68  1  0.65530000  0.21960000  0.12580000  1
  H  H69  1  0.64830000  0.21920000  0.34140000  1
  H  H70  1  0.64660000  0.22610000  0.20640000  1
  H  H71  1  0.64320000  0.23800000  0.87840000  1
  H  H72  1  0.63940000  0.72370000  0.86840000  1
  H  H73  1  0.63750000  0.73030000  0.12780000  1
  H  H74  1  0.63070000  0.59390000  0.81860000  1
  H  H75  1  0.62350000  0.96640000  0.68500000  1
  H  H76  1  0.62280000  0.88540000  0.61080000  1
  H  H77  1  0.62180000  0.10520000  0.82060000  1
  H  H78  1  0.61760000  0.74600000  0.20960000  1
  H  H79  1  0.60060000  0.78820000  0.36440000  1
  H  H80  1  0.54680000  0.39510000  0.65700000  1
  H  H81  1  0.54080000  0.46940000  0.73820000  1
  H  H82  1  0.53460000  0.18100000  0.12980000  1
  H  H83  1  0.53250000  0.60290000  0.87520000  1
  H  H84  1  0.52920000  0.66580000  0.12060000  1
  H  H85  1  0.52770000  0.10260000  0.88940000  1
  H  H86  1  0.52440000  0.88450000  0.67660000  1
  H  H87  1  0.51510000  0.95530000  0.75880000  1
  H  H88  1  0.51060000  0.20850000  0.27740000  1
  H  H89  1  0.50830000  0.28330000  0.64780000  1
  H  H90  1  0.50580000  0.77560000  0.64000000  1
  H  H91  1  0.50310000  0.69320000  0.26680000  1
  H  H92  1  0.49690000  0.30680000  0.73320000  1
  H  H93  1  0.49420000  0.22440000  0.36000000  1
  H  H94  1  0.49170000  0.71670000  0.35220000  1
  H  H95  1  0.48940000  0.79150000  0.72260000  1
  H  H96  1  0.48490000  0.04470000  0.24120000  1
  H  H97  1  0.47560000  0.11550000  0.32340000  1
  H  H98  1  0.47230000  0.89740000  0.11060000  1
  H  H99  1  0.47080000  0.33420000  0.87940000  1
  H  H100  1  0.46750000  0.39710000  0.12480000  1
  H  H101  1  0.46540000  0.81900000  0.87020000  1
  H  H102  1  0.45920000  0.53060000  0.26180000  1
  H  H103  1  0.45320000  0.60490000  0.34300000  1
  H  H104  1  0.39940000  0.21180000  0.63560000  1
  H  H105  1  0.38240000  0.25400000  0.79040000  1
  H  H106  1  0.37820000  0.89480000  0.17940000  1
  H  H107  1  0.37720000  0.11460000  0.38920000  1
  H  H108  1  0.37650000  0.03360000  0.31500000  1
  H  H109  1  0.36930000  0.40610000  0.18140000  1
  H  H110  1  0.36250000  0.26970000  0.87220000  1
  H  H111  1  0.36060000  0.27630000  0.13160000  1
  H  H112  1  0.35680000  0.76200000  0.12160000  1
  H  H113  1  0.35340000  0.77390000  0.79360000  1
  H  H114  1  0.35170000  0.78080000  0.65860000  1
  H  H115  1  0.34470000  0.78040000  0.87420000  1
  H  H116  1  0.34370000  0.29030000  0.21300000  1
  H  H117  1  0.34090000  0.55740000  0.30420000  1
  H  H118  1  0.33510000  0.77270000  0.20140000  1
  H  H119  1  0.32660000  0.92590000  0.62040000  1
  H  H120  1  0.32200000  0.63710000  0.37880000  1
  H  H121  1  0.31550000  0.40300000  0.61800000  1
  H  H122  1  0.30810000  0.12890000  0.83920000  1
  H  H123  1  0.30450000  0.54330000  0.75400000  1
  H  H124  1  0.30430000  0.04870000  0.76440000  1
  H  H125  1  0.30250000  0.61430000  0.83580000  1
  H  H126  1  0.30200000  0.30340000  0.35040000  1
  H  H127  1  0.29570000  0.79020000  0.34060000  1
  H  H128  1  0.25640000  0.21020000  0.02520000  1
  H  H129  1  0.25160000  0.67840000  0.97980000  1
  H  H130  1  0.24840000  0.69860000  0.02020000  1
  H  H131  1  0.24360000  0.18500000  0.97480000  1
  H  H132  1  0.20430000  0.44960000  0.65940000  1
  H  H133  1  0.19800000  0.95300000  0.64960000  1
  H  H134  1  0.19750000  0.77850000  0.16420000  1
  H  H135  1  0.19570000  0.28430000  0.23560000  1
  H  H136  1  0.19550000  0.78930000  0.24600000  1
  H  H137  1  0.19190000  0.28970000  0.16080000  1
  H  H138  1  0.18450000  0.78500000  0.38200000  1
  H  H139  1  0.17800000  0.25830000  0.62120000  1
  H  H140  1  0.17340000  0.30550000  0.37960000  1
  H  H141  1  0.16490000  0.57130000  0.79860000  1
  H  H142  1  0.15910000  0.25320000  0.69580000  1
  H  H143  1  0.15630000  0.07730000  0.78700000  1
  H  H144  1  0.15530000  0.90620000  0.12580000  1
  H  H145  1  0.14830000  0.12220000  0.34140000  1
  H  H146  1  0.14660000  0.98030000  0.20640000  1
  H  H147  1  0.14320000  0.64040000  0.87840000  1
  H  H148  1  0.13940000  0.14470000  0.86840000  1
  H  H149  1  0.13750000  0.39750000  0.12780000  1
  H  H150  1  0.13070000  0.22470000  0.81860000  1
  H  H151  1  0.12350000  0.71860000  0.68500000  1
  H  H152  1  0.12280000  0.72540000  0.61080000  1
  H  H153  1  0.12180000  0.71540000  0.82060000  1
  H  H154  1  0.11760000  0.46360000  0.20960000  1
  H  H155  1  0.10060000  0.57620000  0.36440000  1
  H  H156  1  0.04680000  0.26190000  0.65700000  1
  H  H157  1  0.04080000  0.26880000  0.73820000  1
  H  H158  1  0.03460000  0.94880000  0.12980000  1
  H  H159  1  0.03250000  0.27230000  0.87520000  1
  H  H160  1  0.02920000  0.45480000  0.12060000  1
  H  H161  1  0.02770000  0.78680000  0.88940000  1
  H  H162  1  0.02440000  0.79210000  0.67660000  1
  H  H163  1  0.01510000  0.80350000  0.75880000  1
  H  H164  1  0.01060000  0.06890000  0.27740000  1
  H  H165  1  0.00830000  0.36450000  0.64780000  1
  H  H166  1  0.00580000  0.86440000  0.64000000  1
  H  H167  1  0.00310000  0.57360000  0.26680000  1
  C  C168  1  0.99780000  0.25350000  0.66480000  1
  C  C169  1  0.99550000  0.25590000  0.71220000  1
  C  C170  1  0.99430000  0.94365000  0.14670000  1
  C  C171  1  0.98890000  0.44883000  0.13706000  1
  C  C172  1  0.98610000  0.25940000  0.85000000  1
  C  C173  1  0.98230000  0.77204000  0.86348000  1
  C  C174  1  0.98200000  0.77400000  0.68140000  1
  C  C175  1  0.97760000  0.78030000  0.72980000  1
  C  C176  1  0.96830000  0.84897000  0.07214000  1
  C  C177  1  0.96790000  0.06510000  0.29340000  1
  C  C178  1  0.96700000  0.35259000  0.06378000  1
  C  C179  1  0.96140000  0.56870000  0.28280000  1
  C  C180  1  0.95800000  0.10500000  0.34220000  1
  C  C181  1  0.95350000  0.60600000  0.33280000  1
  C  C182  1  0.95170000  0.89473000  0.12286000  1
  C  C183  1  0.94770000  0.39826000  0.11272000  1
  C  C184  1  0.93320000  0.73116000  0.58732000  1
  C  C185  1  0.93290000  0.23810000  0.57920000  1
  C  C186  1  0.93000000  0.23900000  0.62920000  1
  C  C187  1  0.92680000  0.97615000  0.21650000  1
  C  C188  1  0.92620000  0.23880000  0.71920000  1
  C  C189  1  0.92590000  0.74210000  0.64040000  1
  C  C190  1  0.92270000  0.74233000  0.91786000  1
  C  C191  1  0.92160000  0.24080000  0.76980000  1
  C  C192  1  0.92140000  0.24164000  0.91028000  1
  C  C193  1  0.91900000  0.24150000  0.86000000  1
  C  C194  1  0.91880000  0.74656000  0.87072000  1
  C  C195  1  0.91840000  0.48050000  0.20480000  1
  C  C196  1  0.91770000  0.75190000  0.73400000  1
  C  C197  1  0.91720000  0.02080000  0.26840000  1
  C  C198  1  0.91550000  0.75200000  0.78320000  1
  C  C199  1  0.90740000  0.52430000  0.25660000  1
  C  C200  1  0.89310000  0.88770000  0.14740000  1
  C  C201  1  0.89240000  0.09880000  0.36460000  1
  C  C202  1  0.89060000  0.60000000  0.35400000  1
  C  C203  1  0.88870000  0.39230000  0.13700000  1
  C  C204  1  0.88190000  0.92790000  0.19500000  1
  C  C205  1  0.88160000  0.63770000  0.40960000  1
  C  C206  1  0.87860000  0.14000000  0.41640000  1
  C  C207  1  0.87480000  0.43350000  0.18400000  1
  C  C208  1  0.86570000  0.71690000  0.64880000  1
  C  C209  1  0.86320000  0.22550000  0.64220000  1
  C  C210  1  0.85250000  0.72640000  0.83400000  1
  C  C211  1  0.85110000  0.22820000  0.82640000  1
  C  C212  1  0.85080000  0.22420000  0.77940000  1
  C  C213  1  0.85060000  0.42640000  0.64900000  1
  C  C214  1  0.85030000  0.72920000  0.79000000  1
  C  C215  1  0.84570000  0.05210000  0.33580000  1
  C  C216  1  0.83880000  0.55500000  0.32540000  1
  C  C217  1  0.83070000  0.27118000  0.18436000  1
  C  C218  1  0.83030000  0.26410000  0.36460000  1
  C  C219  1  0.83020000  0.54690000  0.79740000  1
  C  C220  1  0.82950000  0.26860000  0.32100000  1
  C  C221  1  0.81880000  0.58670000  0.84520000  1
  C  C222  1  0.81810000  0.76730000  0.18700000  1
  C  C223  1  0.80870000  0.33525000  0.57450000  1
  C  C224  1  0.80510000  0.03690000  0.80000000  1
  C  C225  1  0.80380000  0.89580000  0.66400000  1
  C  C226  1  0.80010000  0.08100000  0.84760000  1
  C  C227  1  0.79260000  0.38500000  0.62200000  1
  C  C228  1  0.79090000  0.75400000  0.31660000  1
  C  C229  1  0.78130000  0.24250000  0.09260000  1
  C  C230  1  0.78020000  0.75130000  0.36100000  1
  C  C231  1  0.77370000  0.73785000  0.09450000  1
  C  C232  1  0.77090000  0.47590000  0.70900000  1
  C  C233  1  0.76980000  0.25031000  0.14462000  1
  C  C234  1  0.76480000  0.52240000  0.75960000  1
  C  C235  1  0.76300000  0.24404000  0.37208000  1
  C  C236  1  0.76180000  0.25500000  0.28680000  1
  C  C237  1  0.76110000  0.25600000  0.23720000  1
  C  C238  1  0.76090000  0.23687000  0.41814000  1
  C  C239  1  0.75690000  0.74994000  0.14708000  1
  C  C240  1  0.74310000  0.60286000  0.85292000  1
  C  C241  1  0.73910000  0.81873000  0.58186000  1
  C  C242  1  0.73890000  0.01880000  0.76280000  1
  C  C243  1  0.73820000  0.96820000  0.71320000  1
  C  C244  1  0.73700000  0.87196000  0.62792000  1
  C  C245  1  0.73520000  0.76280000  0.24040000  1
  C  C246  1  0.73020000  0.10569000  0.85538000  1
  C  C247  1  0.72910000  0.76690000  0.29100000  1
  C  C248  1  0.72630000  0.64335000  0.90550000  1
  C  C249  1  0.71980000  0.39030000  0.63900000  1
  C  C250  1  0.71870000  0.14990000  0.90740000  1
  C  C251  1  0.70910000  0.43740000  0.68340000  1
  C  C252  1  0.70740000  0.76300000  0.37800000  1
  C  C253  1  0.69990000  0.23340000  0.15240000  1
  C  C254  1  0.69620000  0.23180000  0.33600000  1
  C  C255  1  0.69490000  0.23690000  0.20000000  1
  C  C256  1  0.69130000  0.76075000  0.42550000  1
  C  C257  1  0.68190000  0.58030000  0.81300000  1
  C  C258  1  0.68120000  0.74150000  0.15480000  1
  C  C259  1  0.67050000  0.94760000  0.67900000  1
  C  C260  1  0.66980000  0.74950000  0.20260000  1
  C  C261  1  0.66970000  0.89950000  0.63540000  1
  C  C262  1  0.66930000  0.08682000  0.81564000  1
  C  C263  1  0.66120000  0.22960000  0.67460000  1
  C  C264  1  0.65430000  0.71630000  0.66420000  1
  C  C265  1  0.64970000  0.93920000  0.21000000  1
  C  C266  1  0.64940000  0.77740000  0.35100000  1
  C  C267  1  0.64920000  0.44480000  0.22060000  1
  C  C268  1  0.64890000  0.40180000  0.17360000  1
  C  C269  1  0.64750000  0.89240000  0.16600000  1
  C  C270  1  0.63680000  0.58330000  0.35780000  1
  C  C271  1  0.63430000  0.06810000  0.35120000  1
  C  C272  1  0.62520000  0.24950000  0.81600000  1
  C  C273  1  0.62140000  0.72360000  0.58360000  1
  C  C274  1  0.61840000  0.22810000  0.59040000  1
  C  C275  1  0.61810000  0.73290000  0.80500000  1
  C  C276  1  0.61130000  0.25530000  0.86300000  1
  C  C277  1  0.60940000  0.24600000  0.64600000  1
  C  C278  1  0.60760000  0.73420000  0.63540000  1
  C  C279  1  0.60690000  0.74030000  0.85260000  1
  C  C280  1  0.59260000  0.26770000  0.74340000  1
  C  C281  1  0.58450000  0.96880000  0.21680000  1
  C  C282  1  0.58280000  0.75240000  0.73160000  1
  C  C283  1  0.58230000  0.01790000  0.26600000  1
  C  C284  1  0.58160000  0.27570000  0.79520000  1
  C  C285  1  0.58120000  0.87584000  0.12928000  1
  C  C286  1  0.58100000  0.38150000  0.14000000  1
  C  C287  1  0.57860000  0.33136000  0.08972000  1
  C  C288  1  0.57840000  0.47100000  0.23020000  1
  C  C289  1  0.57730000  0.82447000  0.08214000  1
  C  C290  1  0.57410000  0.10170000  0.35960000  1
  C  C291  1  0.57380000  0.51960000  0.28080000  1
  C  C292  1  0.57320000  0.75965000  0.78350000  1
  C  C293  1  0.57000000  0.60980000  0.37080000  1
  C  C294  1  0.56710000  0.65890000  0.42080000  1
  C  C295  1  0.56680000  0.14384000  0.41268000  1
  C  C296  1  0.55230000  0.28554000  0.88728000  1
  C  C297  1  0.54830000  0.77187000  0.87714000  1
  C  C298  1  0.54650000  0.27320000  0.66720000  1
  C  C299  1  0.54200000  0.76280000  0.65780000  1
  C  C300  1  0.53860000  0.28590000  0.71720000  1
  C  C301  1  0.53300000  0.28881000  0.93622000  1
  C  C302  1  0.53210000  0.77170000  0.70660000  1
  C  C303  1  0.53170000  0.77683000  0.92786000  1
  C  C304  1  0.52240000  0.05050000  0.27020000  1
  C  C305  1  0.51800000  0.09260000  0.31860000  1
  C  C306  1  0.51770000  0.90856000  0.13652000  1
  C  C307  1  0.51390000  0.40940000  0.15000000  1
  C  C308  1  0.51110000  0.31177000  0.86294000  1
  C  C309  1  0.50570000  0.79695000  0.85330000  1
  C  C310  1  0.50450000  0.54370000  0.28780000  1
  C  C311  1  0.50220000  0.58870000  0.33520000  1
  C  C312  1  0.49780000  0.41130000  0.66480000  1
  C  C313  1  0.49550000  0.45630000  0.71220000  1
  C  C314  1  0.49430000  0.20305000  0.14670000  1
  C  C315  1  0.48890000  0.68823000  0.13706000  1
  C  C316  1  0.48610000  0.59060000  0.85000000  1
  C  C317  1  0.48230000  0.09144000  0.86348000  1
  C  C318  1  0.48200000  0.90740000  0.68140000  1
  C  C319  1  0.47760000  0.94950000  0.72980000  1
  C  C320  1  0.46830000  0.22317000  0.07214000  1
  C  C321  1  0.46790000  0.22830000  0.29340000  1
  C  C322  1  0.46700000  0.71119000  0.06378000  1
  C  C323  1  0.46140000  0.71410000  0.28280000  1
  C  C324  1  0.45800000  0.23720000  0.34220000  1
  C  C325  1  0.45350000  0.72680000  0.33280000  1
  C  C326  1  0.45170000  0.22813000  0.12286000  1
  C  C327  1  0.44770000  0.71446000  0.11272000  1
  C  C328  1  0.43320000  0.85616000  0.58732000  1
  C  C329  1  0.43290000  0.34110000  0.57920000  1
  C  C330  1  0.43000000  0.39020000  0.62920000  1
  C  C331  1  0.42680000  0.24035000  0.21650000  1
  C  C332  1  0.42620000  0.48040000  0.71920000  1
  C  C333  1  0.42590000  0.89830000  0.64040000  1
  C  C334  1  0.42270000  0.17553000  0.91786000  1
  C  C335  1  0.42160000  0.52900000  0.76980000  1
  C  C336  1  0.42140000  0.66864000  0.91028000  1
  C  C337  1  0.41900000  0.61850000  0.86000000  1
  C  C338  1  0.41880000  0.12416000  0.87072000  1
  C  C339  1  0.41840000  0.72430000  0.20480000  1
  C  C340  1  0.41770000  0.98210000  0.73400000  1
  C  C341  1  0.41720000  0.24760000  0.26840000  1
  C  C342  1  0.41550000  0.03120000  0.78320000  1
  C  C343  1  0.40740000  0.73230000  0.25660000  1
  C  C344  1  0.39310000  0.25970000  0.14740000  1
  C  C345  1  0.39240000  0.26580000  0.36460000  1
  C  C346  1  0.39060000  0.75400000  0.35400000  1
  C  C347  1  0.38870000  0.74470000  0.13700000  1
  C  C348  1  0.38190000  0.26710000  0.19500000  1
  C  C349  1  0.38160000  0.77190000  0.40960000  1
  C  C350  1  0.37860000  0.27640000  0.41640000  1
  C  C351  1  0.37480000  0.75050000  0.18400000  1
  C  C352  1  0.36570000  0.93190000  0.64880000  1
  C  C353  1  0.36320000  0.41670000  0.64220000  1
  C  C354  1  0.35250000  0.10760000  0.83400000  1
  C  C355  1  0.35110000  0.59820000  0.82640000  1
  C  C356  1  0.35080000  0.55520000  0.77940000  1
  C  C357  1  0.35060000  0.22260000  0.64900000  1
  C  C358  1  0.35030000  0.06080000  0.79000000  1
  C  C359  1  0.34570000  0.28370000  0.33580000  1
  C  C360  1  0.33880000  0.77040000  0.32540000  1
  C  C361  1  0.33070000  0.91318000  0.18436000  1
  C  C362  1  0.33030000  0.10050000  0.36460000  1
  C  C363  1  0.33020000  0.25050000  0.79740000  1
  C  C364  1  0.32950000  0.05240000  0.32100000  1
  C  C365  1  0.31880000  0.25850000  0.84520000  1
  C  C366  1  0.31810000  0.41970000  0.18700000  1
  C  C367  1  0.30870000  0.23925000  0.57450000  1
  C  C368  1  0.30510000  0.76310000  0.80000000  1
  C  C369  1  0.30380000  0.76820000  0.66400000  1
  C  C370  1  0.30010000  0.76660000  0.84760000  1
  C  C371  1  0.29260000  0.23700000  0.62200000  1
  C  C372  1  0.29090000  0.56260000  0.31660000  1
  C  C373  1  0.28130000  0.85010000  0.09260000  1
  C  C374  1  0.28020000  0.60970000  0.36100000  1
  C  C375  1  0.27370000  0.35665000  0.09450000  1
  C  C376  1  0.27090000  0.23310000  0.70900000  1
  C  C377  1  0.26980000  0.89431000  0.14462000  1
  C  C378  1  0.26480000  0.23720000  0.75960000  1
  C  C379  1  0.26300000  0.12804000  0.37208000  1
  C  C380  1  0.26180000  0.03180000  0.28680000  1
  C  C381  1  0.26110000  0.98120000  0.23720000  1
  C  C382  1  0.26090000  0.18127000  0.41814000  1
  C  C383  1  0.25690000  0.39714000  0.14708000  1
  C  C384  1  0.24310000  0.25006000  0.85292000  1
  C  C385  1  0.23910000  0.76313000  0.58186000  1
  C  C386  1  0.23890000  0.74400000  0.76280000  1
  C  C387  1  0.23820000  0.74500000  0.71320000  1
  C  C388  1  0.23700000  0.75596000  0.62792000  1
  C  C389  1  0.23520000  0.47760000  0.24040000  1
  C  C390  1  0.23020000  0.74969000  0.85538000  1
  C  C391  1  0.22910000  0.52410000  0.29100000  1
  C  C392  1  0.22630000  0.26215000  0.90550000  1
  C  C393  1  0.21980000  0.24870000  0.63900000  1
  C  C394  1  0.21870000  0.75750000  0.90740000  1
  C  C395  1  0.20910000  0.24600000  0.68340000  1
  C  C396  1  0.20740000  0.61500000  0.37800000  1
  C  C397  1  0.19990000  0.91900000  0.15240000  1
  C  C398  1  0.19620000  0.10420000  0.33600000  1
  C  C399  1  0.19490000  0.96310000  0.20000000  1
  C  C400  1  0.19130000  0.66475000  0.42550000  1
  C  C401  1  0.18190000  0.23270000  0.81300000  1
  C  C402  1  0.18120000  0.41330000  0.15480000  1
  C  C403  1  0.17050000  0.73140000  0.67900000  1
  C  C404  1  0.16980000  0.45310000  0.20260000  1
  C  C405  1  0.16970000  0.73590000  0.63540000  1
  C  C406  1  0.16930000  0.72882000  0.81564000  1
  C  C407  1  0.16120000  0.44500000  0.67460000  1
  C  C408  1  0.15430000  0.94790000  0.66420000  1
  C  C409  1  0.14970000  0.27080000  0.21000000  1
  C  C410  1  0.14940000  0.57360000  0.35100000  1
  C  C411  1  0.14920000  0.77580000  0.22060000  1
  C  C412  1  0.14890000  0.77180000  0.17360000  1
  C  C413  1  0.14750000  0.27360000  0.16600000  1
  C  C414  1  0.13680000  0.77450000  0.35780000  1
  C  C415  1  0.13430000  0.28310000  0.35120000  1
  C  C416  1  0.12520000  0.56650000  0.81600000  1
  C  C417  1  0.12140000  0.86000000  0.58360000  1
  C  C418  1  0.11840000  0.36230000  0.59040000  1
  C  C419  1  0.11810000  0.07210000  0.80500000  1
  C  C420  1  0.11130000  0.60770000  0.86300000  1
  C  C421  1  0.10940000  0.40000000  0.64600000  1
  C  C422  1  0.10760000  0.90120000  0.63540000  1
  C  C423  1  0.10690000  0.11230000  0.85260000  1
  C  C424  1  0.09260000  0.47570000  0.74340000  1
  C  C425  1  0.08450000  0.24800000  0.21680000  1
  C  C426  1  0.08280000  0.97920000  0.73160000  1
  C  C427  1  0.08230000  0.24810000  0.26600000  1
  C  C428  1  0.08160000  0.51950000  0.79520000  1
  C  C429  1  0.08120000  0.25344000  0.12928000  1
  C  C430  1  0.08100000  0.75850000  0.14000000  1
  C  C431  1  0.07860000  0.75836000  0.08972000  1
  C  C432  1  0.07840000  0.75920000  0.23020000  1
  C  C433  1  0.07730000  0.25767000  0.08214000  1
  C  C434  1  0.07410000  0.25790000  0.35960000  1
  C  C435  1  0.07380000  0.76120000  0.28080000  1
  C  C436  1  0.07320000  0.02385000  0.78350000  1
  C  C437  1  0.07000000  0.76100000  0.37080000  1
  C  C438  1  0.06710000  0.76190000  0.42080000  1
  C  C439  1  0.06680000  0.26884000  0.41268000  1
  C  C440  1  0.05230000  0.60174000  0.88728000  1
  C  C441  1  0.04830000  0.10527000  0.87714000  1
  C  C442  1  0.04650000  0.39400000  0.66720000  1
  C  C443  1  0.04200000  0.89500000  0.65780000  1
  C  C444  1  0.03860000  0.43130000  0.71720000  1
  C  C445  1  0.03300000  0.64741000  0.93622000  1
  C  C446  1  0.03210000  0.93490000  0.70660000  1
  C  C447  1  0.03170000  0.15103000  0.92786000  1
  C  C448  1  0.02240000  0.21970000  0.27020000  1
  C  C449  1  0.01800000  0.22600000  0.31860000  1
  C  C450  1  0.01770000  0.22796000  0.13652000  1
  C  C451  1  0.01390000  0.74060000  0.15000000  1
  C  C452  1  0.01110000  0.55117000  0.86294000  1
  C  C453  1  0.00570000  0.05635000  0.85330000  1
  C  C454  1  0.00450000  0.74410000  0.28780000  1
  C  C455  1  0.00220000  0.74650000  0.33520000  1
  N  N456  1  0.98670000  0.25900000  0.80480000  1
  N  N457  1  0.98250000  0.98465000  0.19250000  1
  N  N458  1  0.98000000  0.77610000  0.82060000  1
  N  N459  1  0.97480000  0.48908000  0.18216000  1
  N  N460  1  0.86030000  0.22610000  0.68680000  1
  N  N461  1  0.85930000  0.72200000  0.69420000  1
  N  N462  1  0.85570000  0.01303000  0.28906000  1
  N  N463  1  0.84560000  0.51729000  0.27718000  1
  N  N464  1  0.84180000  0.47080000  0.69380000  1
  N  N465  1  0.82840000  0.27409000  0.23058000  1
  N  N466  1  0.80990000  0.77360000  0.23400000  1
  N  N467  1  0.80520000  0.94260000  0.70620000  1
  N  N468  1  0.69480000  0.23640000  0.29380000  1
  N  N469  1  0.69010000  0.53960000  0.76600000  1
  N  N470  1  0.67160000  0.04351000  0.76942000  1
  N  N471  1  0.65820000  0.77700000  0.30620000  1
  N  N472  1  0.65440000  0.24011000  0.72282000  1
  N  N473  1  0.64430000  0.72397000  0.71094000  1
  N  N474  1  0.64070000  0.02780000  0.30580000  1
  N  N475  1  0.63970000  0.53930000  0.31320000  1
  N  N476  1  0.52520000  0.30692000  0.81784000  1
  N  N477  1  0.52000000  0.95550000  0.17940000  1
  N  N478  1  0.51750000  0.79215000  0.80750000  1
  N  N479  1  0.51330000  0.45420000  0.19520000  1
  N  N480  1  0.48670000  0.54580000  0.80480000  1
  N  N481  1  0.48250000  0.20785000  0.19250000  1
  N  N482  1  0.48000000  0.04450000  0.82060000  1
  N  N483  1  0.47480000  0.69308000  0.18216000  1
  N  N484  1  0.36030000  0.46070000  0.68680000  1
  N  N485  1  0.35930000  0.97220000  0.69420000  1
  N  N486  1  0.35570000  0.27603000  0.28906000  1
  N  N487  1  0.34560000  0.75989000  0.27718000  1
  N  N488  1  0.34180000  0.22300000  0.69380000  1
  N  N489  1  0.32840000  0.95649000  0.23058000  1
  N  N490  1  0.30990000  0.46040000  0.23400000  1
  N  N491  1  0.30520000  0.76360000  0.70620000  1
  N  N492  1  0.19480000  0.05740000  0.29380000  1
  N  N493  1  0.19010000  0.22640000  0.76600000  1
  N  N494  1  0.17160000  0.72591000  0.76942000  1
  N  N495  1  0.15820000  0.52920000  0.30620000  1
  N  N496  1  0.15440000  0.48271000  0.72282000  1
  N  N497  1  0.14430000  0.98697000  0.71094000  1
  N  N498  1  0.14070000  0.27800000  0.30580000  1
  N  N499  1  0.13970000  0.77390000  0.31320000  1
  N  N500  1  0.02520000  0.51092000  0.81784000  1
  N  N501  1  0.02000000  0.22390000  0.17940000  1
  N  N502  1  0.01750000  0.01535000  0.80750000  1
  N  N503  1  0.01330000  0.74100000  0.19520000  1
  O  O504  1  0.99640000  0.25488000  0.57376000  1
  O  O505  1  0.99390000  0.75500000  0.58340000  1
  O  O506  1  0.98670000  0.75598000  0.95016000  1
  O  O507  1  0.98580000  0.25683000  0.94226000  1
  O  O508  1  0.96280000  0.64731000  0.94602000  1
  O  O509  1  0.96120000  0.15095000  0.93990000  1
  O  O510  1  0.94220000  0.65936000  0.43892000  1
  O  O511  1  0.93600000  0.17321000  0.44402000  1
  O  O512  1  0.91280000  0.81520000  0.04520000  1
  O  O513  1  0.91200000  0.31866000  0.03752000  1
  O  O514  1  0.90030000  0.76949000  0.50358000  1
  O  O515  1  0.88320000  0.70053000  0.55066000  1
  O  O516  1  0.87790000  0.33385000  0.56350000  1
  O  O517  1  0.87080000  0.22554000  0.54808000  1
  O  O518  1  0.86000000  0.72372000  0.92464000  1
  O  O519  1  0.85890000  0.22713000  0.91906000  1
  O  O520  1  0.84470000  0.26221000  0.08962000  1
  O  O521  1  0.83880000  0.75661000  0.09202000  1
  O  O522  1  0.82210000  0.24906000  0.45132000  1
  O  O523  1  0.81320000  0.64462000  0.42164000  1
  O  O524  1  0.81120000  0.13774000  0.42948000  1
  O  O525  1  0.80390000  0.79567000  0.57894000  1
  O  O526  1  0.77670000  0.65194000  0.94468000  1
  O  O527  1  0.77240000  0.15883000  0.94446000  1
  O  O528  1  0.75240000  0.30060000  0.55260000  1
  O  O529  1  0.75000000  0.27560000  1.00000000  1
  O  O530  1  0.75000000  0.76770000  0.00000000  1
  O  O531  1  0.74760000  0.74800000  0.44740000  1
  O  O532  1  0.72760000  0.21437000  0.05554000  1
  O  O533  1  0.72330000  0.70726000  0.05532000  1
  O  O534  1  0.69610000  0.21673000  0.42106000  1
  O  O535  1  0.68880000  0.70826000  0.57052000  1
  O  O536  1  0.68680000  0.22298000  0.57836000  1
  O  O537  1  0.67790000  0.79774000  0.54868000  1
  O  O538  1  0.66120000  0.66459000  0.90798000  1
  O  O539  1  0.65530000  0.17259000  0.91038000  1
  O  O540  1  0.64110000  0.30807000  0.08094000  1
  O  O541  1  0.64000000  0.79908000  0.07536000  1
  O  O542  1  0.62920000  0.67746000  0.45192000  1
  O  O543  1  0.62210000  0.77035000  0.43650000  1
  O  O544  1  0.61680000  0.14987000  0.44934000  1
  O  O545  1  0.59970000  0.26591000  0.49642000  1
  O  O546  1  0.58800000  0.28114000  0.96248000  1
  O  O547  1  0.58720000  0.77000000  0.95480000  1
  O  O548  1  0.56400000  0.72919000  0.55598000  1
  O  O549  1  0.55780000  0.22044000  0.56108000  1
  O  O550  1  0.53880000  0.21105000  0.06010000  1
  O  O551  1  0.53720000  0.70129000  0.05398000  1
  O  O552  1  0.51420000  0.31457000  0.05774000  1
  O  O553  1  0.51330000  0.80582000  0.04984000  1
  O  O554  1  0.50610000  0.17160000  0.41660000  1
  O  O555  1  0.50360000  0.68112000  0.42624000  1
  O  O556  1  0.49640000  0.31888000  0.57376000  1
  O  O557  1  0.49390000  0.82840000  0.58340000  1
  O  O558  1  0.48670000  0.19418000  0.95016000  1
  O  O559  1  0.48580000  0.68543000  0.94226000  1
  O  O560  1  0.46280000  0.29871000  0.94602000  1
  O  O561  1  0.46120000  0.78895000  0.93990000  1
  O  O562  1  0.44220000  0.77956000  0.43892000  1
  O  O563  1  0.43600000  0.27081000  0.44402000  1
  O  O564  1  0.41280000  0.23000000  0.04520000  1
  O  O565  1  0.41200000  0.71886000  0.03752000  1
  O  O566  1  0.40030000  0.73409000  0.50358000  1
  O  O567  1  0.38320000  0.85013000  0.55066000  1
  O  O568  1  0.37790000  0.22965000  0.56350000  1
  O  O569  1  0.37080000  0.32254000  0.54808000  1
  O  O570  1  0.36000000  0.20092000  0.92464000  1
  O  O571  1  0.35890000  0.69193000  0.91906000  1
  O  O572  1  0.34470000  0.82741000  0.08962000  1
  O  O573  1  0.33880000  0.33541000  0.09202000  1
  O  O574  1  0.32210000  0.20226000  0.45132000  1
  O  O575  1  0.31320000  0.77702000  0.42164000  1
  O  O576  1  0.31120000  0.29174000  0.42948000  1
  O  O577  1  0.30390000  0.78327000  0.57894000  1
  O  O578  1  0.27670000  0.29274000  0.94468000  1
  O  O579  1  0.27240000  0.78563000  0.94446000  1
  O  O580  1  0.25240000  0.25200000  0.55260000  1
  O  O581  1  0.25000000  0.23230000  0.00000000  1
  O  O582  1  0.25000000  0.72440000  0.00000000  1
  O  O583  1  0.24760000  0.69940000  0.44740000  1
  O  O584  1  0.22760000  0.84117000  0.05554000  1
  O  O585  1  0.22330000  0.34806000  0.05532000  1
  O  O586  1  0.19610000  0.20433000  0.42106000  1
  O  O587  1  0.18880000  0.86226000  0.57052000  1
  O  O588  1  0.18680000  0.35538000  0.57836000  1
  O  O589  1  0.17790000  0.75094000  0.54868000  1
  O  O590  1  0.16120000  0.24339000  0.90798000  1
  O  O591  1  0.15530000  0.73779000  0.91038000  1
  O  O592  1  0.14110000  0.77287000  0.08094000  1
  O  O593  1  0.14000000  0.27628000  0.07536000  1
  O  O594  1  0.12920000  0.77446000  0.45192000  1
  O  O595  1  0.12210000  0.66615000  0.43650000  1
  O  O596  1  0.11680000  0.29947000  0.44934000  1
  O  O597  1  0.09970000  0.23051000  0.49642000  1
  O  O598  1  0.08800000  0.68134000  0.96248000  1
  O  O599  1  0.08720000  0.18480000  0.95480000  1
  O  O600  1  0.06400000  0.82679000  0.55598000  1
  O  O601  1  0.05780000  0.34064000  0.56108000  1
  O  O602  1  0.03880000  0.84905000  0.06010000  1
  O  O603  1  0.03720000  0.35269000  0.05398000  1
  O  O604  1  0.01420000  0.74317000  0.05774000  1
  O  O605  1  0.01330000  0.24402000  0.04984000  1
  O  O606  1  0.00610000  0.24500000  0.41660000  1
  O  O607  1  0.00360000  0.74512000  0.42624000  1
