# generated using pymatgen
data_Fe4P7(H2O7)3
_symmetry_space_group_name_H-M   'P 1'
_cell_length_a   13.48600000
_cell_length_b   13.48600000
_cell_length_c   18.31000000
_cell_angle_alpha   90.00000000
_cell_angle_beta   90.00000000
_cell_angle_gamma   120.00000000
_symmetry_Int_Tables_number   1
_chemical_formula_structural   Fe4P7(H2O7)3
_chemical_formula_sum   'Fe16 P28 H24 O84'
_cell_volume   2883.93379762
_cell_formula_units_Z   4
loop_
 _symmetry_equiv_pos_site_id
 _symmetry_equiv_pos_as_xyz
  1  'x, y, z'
loop_
 _atom_site_type_symbol
 _atom_site_label
 _atom_site_symmetry_multiplicity
 _atom_site_fract_x
 _atom_site_fract_y
 _atom_site_fract_z
 _atom_site_occupancy
  Fe  Fe0  1  0.00000000  0.00000000  0.00000000  1
  Fe  Fe1  1  0.00000000  0.00000000  0.75000000  1
  Fe  Fe2  1  0.00000000  0.00000000  0.50000000  1
  Fe  Fe3  1  0.00000000  0.00000000  0.25000000  1
  Fe  Fe4  1  0.85619000  0.29352000  0.04391000  1
  Fe  Fe5  1  0.85619000  0.56267000  0.54391000  1
  Fe  Fe6  1  0.70648000  0.14381000  0.54391000  1
  Fe  Fe7  1  0.70648000  0.56267000  0.04391000  1
  Fe  Fe8  1  0.56267000  0.70648000  0.45609000  1
  Fe  Fe9  1  0.56267000  0.85619000  0.95609000  1
  Fe  Fe10  1  0.43733000  0.14381000  0.04391000  1
  Fe  Fe11  1  0.43733000  0.29352000  0.54391000  1
  Fe  Fe12  1  0.29352000  0.43733000  0.95609000  1
  Fe  Fe13  1  0.29352000  0.85619000  0.45609000  1
  Fe  Fe14  1  0.14381000  0.43733000  0.45609000  1
  Fe  Fe15  1  0.14381000  0.70648000  0.95609000  1
  P  P16  1  0.96898000  0.15791000  0.12920000  1
  P  P17  1  0.96898000  0.81107000  0.62920000  1
  P  P18  1  0.87285000  0.36807000  0.44720000  1
  P  P19  1  0.87285000  0.50478000  0.94720000  1
  P  P20  1  0.84209000  0.03102000  0.62920000  1
  P  P21  1  0.84209000  0.81107000  0.12920000  1
  P  P22  1  0.81107000  0.84209000  0.37080000  1
  P  P23  1  0.81107000  0.96898000  0.87080000  1
  P  P24  1  0.66666667  0.33333333  0.63908000  1
  P  P25  1  0.66666667  0.33333333  0.13908000  1
  P  P26  1  0.63193000  0.12715000  0.94720000  1
  P  P27  1  0.63193000  0.50478000  0.44720000  1
  P  P28  1  0.50478000  0.63193000  0.05280000  1
  P  P29  1  0.50478000  0.87285000  0.55280000  1
  P  P30  1  0.49522000  0.12715000  0.44720000  1
  P  P31  1  0.49522000  0.36807000  0.94720000  1
  P  P32  1  0.36807000  0.49522000  0.55280000  1
  P  P33  1  0.36807000  0.87285000  0.05280000  1
  P  P34  1  0.33333333  0.66666667  0.86092000  1
  P  P35  1  0.33333333  0.66666667  0.36092000  1
  P  P36  1  0.18893000  0.03102000  0.12920000  1
  P  P37  1  0.18893000  0.15791000  0.62920000  1
  P  P38  1  0.15791000  0.18893000  0.87080000  1
  P  P39  1  0.15791000  0.96898000  0.37080000  1
  P  P40  1  0.12715000  0.49522000  0.05280000  1
  P  P41  1  0.12715000  0.63193000  0.55280000  1
  P  P42  1  0.03102000  0.18893000  0.37080000  1
  P  P43  1  0.03102000  0.84209000  0.87080000  1
  H  H44  1  0.96790000  0.19520000  0.34910000  1
  H  H45  1  0.96790000  0.77270000  0.84910000  1
  H  H46  1  0.82710000  0.32400000  0.40510000  1
  H  H47  1  0.82710000  0.50310000  0.90510000  1
  H  H48  1  0.80480000  0.03210000  0.84910000  1
  H  H49  1  0.80480000  0.77270000  0.34910000  1
  H  H50  1  0.77270000  0.80480000  0.15090000  1
  H  H51  1  0.77270000  0.96790000  0.65090000  1
  H  H52  1  0.67600000  0.17290000  0.90510000  1
  H  H53  1  0.67600000  0.50310000  0.40510000  1
  H  H54  1  0.50310000  0.67600000  0.09490000  1
  H  H55  1  0.50310000  0.82710000  0.59490000  1
  H  H56  1  0.49690000  0.17290000  0.40510000  1
  H  H57  1  0.49690000  0.32400000  0.90510000  1
  H  H58  1  0.32400000  0.49690000  0.59490000  1
  H  H59  1  0.32400000  0.82710000  0.09490000  1
  H  H60  1  0.22730000  0.03210000  0.34910000  1
  H  H61  1  0.22730000  0.19520000  0.84910000  1
  H  H62  1  0.19520000  0.22730000  0.65090000  1
  H  H63  1  0.19520000  0.96790000  0.15090000  1
  H  H64  1  0.17290000  0.49690000  0.09490000  1
  H  H65  1  0.17290000  0.67600000  0.59490000  1
  H  H66  1  0.03210000  0.22730000  0.15090000  1
  H  H67  1  0.03210000  0.80480000  0.65090000  1
  O  O68  1  0.99760000  0.42370000  0.42410000  1
  O  O69  1  0.99760000  0.57390000  0.92410000  1
  O  O70  1  0.98380000  0.11460000  0.43815000  1
  O  O71  1  0.98380000  0.86920000  0.93815000  1
  O  O72  1  0.93410000  0.07460000  0.68776000  1
  O  O73  1  0.93410000  0.85950000  0.18776000  1
  O  O74  1  0.92540000  0.06590000  0.18776000  1
  O  O75  1  0.92540000  0.85950000  0.68776000  1
  O  O76  1  0.88540000  0.01620000  0.93815000  1
  O  O77  1  0.88540000  0.86920000  0.43815000  1
  O  O78  1  0.87410000  0.18480000  0.11100000  1
  O  O79  1  0.87410000  0.68930000  0.61100000  1
  O  O80  1  0.86920000  0.88540000  0.06185000  1
  O  O81  1  0.86920000  0.98380000  0.56185000  1
  O  O82  1  0.85950000  0.92540000  0.81224000  1
  O  O83  1  0.85950000  0.93410000  0.31224000  1
  O  O84  1  0.84870000  0.28220000  0.50830000  1
  O  O85  1  0.84870000  0.56650000  0.00830000  1
  O  O86  1  0.83590000  0.38170000  0.96490000  1
  O  O87  1  0.83590000  0.45420000  0.46490000  1
  O  O88  1  0.81520000  0.12590000  0.61100000  1
  O  O89  1  0.81520000  0.68930000  0.11100000  1
  O  O90  1  0.77250000  0.32810000  0.11937000  1
  O  O91  1  0.77250000  0.44440000  0.61937000  1
  O  O92  1  0.71780000  0.15130000  0.00830000  1
  O  O93  1  0.71780000  0.56650000  0.50830000  1
  O  O94  1  0.68930000  0.81520000  0.38900000  1
  O  O95  1  0.68930000  0.87410000  0.88900000  1
  O  O96  1  0.67190000  0.22750000  0.61937000  1
  O  O97  1  0.67190000  0.44440000  0.11937000  1
  O  O98  1  0.61830000  0.16410000  0.46490000  1
  O  O99  1  0.61830000  0.45420000  0.96490000  1
  O  O100  1  0.57630000  0.00240000  0.92410000  1
  O  O101  1  0.57630000  0.57390000  0.42410000  1
  O  O102  1  0.57390000  0.57630000  0.07590000  1
  O  O103  1  0.57390000  0.99760000  0.57590000  1
  O  O104  1  0.56650000  0.71780000  0.99170000  1
  O  O105  1  0.56650000  0.84870000  0.49170000  1
  O  O106  1  0.55560000  0.22750000  0.11937000  1
  O  O107  1  0.55560000  0.32810000  0.61937000  1
  O  O108  1  0.54580000  0.16410000  0.96490000  1
  O  O109  1  0.54580000  0.38170000  0.46490000  1
  O  O110  1  0.45420000  0.61830000  0.53510000  1
  O  O111  1  0.45420000  0.83590000  0.03510000  1
  O  O112  1  0.44440000  0.67190000  0.38063000  1
  O  O113  1  0.44440000  0.77250000  0.88063000  1
  O  O114  1  0.43350000  0.15130000  0.50830000  1
  O  O115  1  0.43350000  0.28220000  0.00830000  1
  O  O116  1  0.42610000  0.00240000  0.42410000  1
  O  O117  1  0.42610000  0.42370000  0.92410000  1
  O  O118  1  0.42370000  0.42610000  0.57590000  1
  O  O119  1  0.42370000  0.99760000  0.07590000  1
  O  O120  1  0.38170000  0.54580000  0.03510000  1
  O  O121  1  0.38170000  0.83590000  0.53510000  1
  O  O122  1  0.32810000  0.55560000  0.88063000  1
  O  O123  1  0.32810000  0.77250000  0.38063000  1
  O  O124  1  0.31070000  0.12590000  0.11100000  1
  O  O125  1  0.31070000  0.18480000  0.61100000  1
  O  O126  1  0.28220000  0.43350000  0.49170000  1
  O  O127  1  0.28220000  0.84870000  0.99170000  1
  O  O128  1  0.22750000  0.55560000  0.38063000  1
  O  O129  1  0.22750000  0.67190000  0.88063000  1
  O  O130  1  0.18480000  0.31070000  0.88900000  1
  O  O131  1  0.18480000  0.87410000  0.38900000  1
  O  O132  1  0.16410000  0.54580000  0.53510000  1
  O  O133  1  0.16410000  0.61830000  0.03510000  1
  O  O134  1  0.15130000  0.43350000  0.99170000  1
  O  O135  1  0.15130000  0.71780000  0.49170000  1
  O  O136  1  0.14050000  0.06590000  0.68776000  1
  O  O137  1  0.14050000  0.07460000  0.18776000  1
  O  O138  1  0.13080000  0.01620000  0.43815000  1
  O  O139  1  0.13080000  0.11460000  0.93815000  1
  O  O140  1  0.12590000  0.31070000  0.38900000  1
  O  O141  1  0.12590000  0.81520000  0.88900000  1
  O  O142  1  0.11460000  0.13080000  0.56185000  1
  O  O143  1  0.11460000  0.98380000  0.06185000  1
  O  O144  1  0.07460000  0.14050000  0.31224000  1
  O  O145  1  0.07460000  0.93410000  0.81224000  1
  O  O146  1  0.06590000  0.14050000  0.81224000  1
  O  O147  1  0.06590000  0.92540000  0.31224000  1
  O  O148  1  0.01620000  0.13080000  0.06185000  1
  O  O149  1  0.01620000  0.88540000  0.56185000  1
  O  O150  1  0.00240000  0.42610000  0.07590000  1
  O  O151  1  0.00240000  0.57630000  0.57590000  1
