# generated using pymatgen
data_Sm2Cu2H5(C5O4)5
_symmetry_space_group_name_H-M   'P 1'
_cell_length_a   10.89900000
_cell_length_b   19.78500000
_cell_length_c   20.33400000
_cell_angle_alpha   90.00000000
_cell_angle_beta   90.00000000
_cell_angle_gamma   99.48000000
_symmetry_Int_Tables_number   1
_chemical_formula_structural   Sm2Cu2H5(C5O4)5
_chemical_formula_sum   'Sm8 Cu8 H20 C100 O80'
_cell_volume   4324.87501192
_cell_formula_units_Z   4
loop_
 _symmetry_equiv_pos_site_id
 _symmetry_equiv_pos_as_xyz
  1  'x, y, z'
loop_
 _atom_site_type_symbol
 _atom_site_label
 _atom_site_symmetry_multiplicity
 _atom_site_fract_x
 _atom_site_fract_y
 _atom_site_fract_z
 _atom_site_occupancy
  Sm  Sm0  1  0.04045000  0.84613000  0.37074000  1
  Sm  Sm1  1  0.15710000  0.91810000  0.87241000  1
  Sm  Sm2  1  0.34290000  0.58190000  0.37241000  1
  Sm  Sm3  1  0.45955000  0.65387000  0.87074000  1
  Sm  Sm4  1  0.54045000  0.34613000  0.12926000  1
  Sm  Sm5  1  0.65710000  0.41810000  0.62759000  1
  Sm  Sm6  1  0.84290000  0.08190000  0.12759000  1
  Sm  Sm7  1  0.95955000  0.15387000  0.62926000  1
  Cu  Cu8  1  0.08220000  0.83157000  0.17331000  1
  Cu  Cu9  1  0.20094000  0.90976000  0.67326000  1
  Cu  Cu10  1  0.29906000  0.59024000  0.17326000  1
  Cu  Cu11  1  0.41780000  0.66843000  0.67331000  1
  Cu  Cu12  1  0.58220000  0.33157000  0.32669000  1
  Cu  Cu13  1  0.70094000  0.40976000  0.82674000  1
  Cu  Cu14  1  0.79906000  0.09024000  0.32674000  1
  Cu  Cu15  1  0.91780000  0.16843000  0.82669000  1
  H  H16  1  0.01440000  0.42720000  0.31260000  1
  H  H17  1  0.08250000  0.43680000  0.07860000  1
  H  H18  1  0.11060000  0.24750000  0.18750000  1
  H  H19  1  0.12830000  0.50350000  0.80520000  1
  H  H20  1  0.22970000  0.32500000  0.68100000  1
  H  H21  1  0.27030000  0.17500000  0.18100000  1
  H  H22  1  0.37170000  0.99650000  0.30520000  1
  H  H23  1  0.38940000  0.25250000  0.68750000  1
  H  H24  1  0.41750000  0.06320000  0.57860000  1
  H  H25  1  0.48560000  0.07280000  0.81260000  1
  H  H26  1  0.51440000  0.92720000  0.18740000  1
  H  H27  1  0.58250000  0.93680000  0.42140000  1
  H  H28  1  0.61060000  0.74750000  0.31250000  1
  H  H29  1  0.62830000  0.00350000  0.69480000  1
  H  H30  1  0.72970000  0.82500000  0.81900000  1
  H  H31  1  0.77030000  0.67500000  0.31900000  1
  H  H32  1  0.87170000  0.49650000  0.19480000  1
  H  H33  1  0.88940000  0.75250000  0.81250000  1
  H  H34  1  0.91750000  0.56320000  0.92140000  1
  H  H35  1  0.98560000  0.57280000  0.68740000  1
  C  C36  1  0.00970000  0.72760000  0.74440000  1
  C  C37  1  0.03420000  0.39110000  0.28770000  1
  C  C38  1  0.03730000  0.60660000  0.17150000  1
  C  C39  1  0.03940000  0.67300000  0.70820000  1
  C  C40  1  0.04210000  0.27710000  0.75790000  1
  C  C41  1  0.04930000  0.46240000  0.04680000  1
  C  C42  1  0.07710000  0.55070000  0.96500000  1
  C  C43  1  0.07740000  0.40340000  0.78510000  1
  C  C44  1  0.07960000  0.79950000  0.73530000  1
  C  C45  1  0.09150000  0.07060000  0.16910000  1
  C  C46  1  0.09240000  0.28330000  0.21340000  1
  C  C47  1  0.10940000  0.34880000  0.74900000  1
  C  C48  1  0.12730000  0.51200000  0.01320000  1
  C  C49  1  0.13720000  0.40160000  0.24660000  1
  C  C50  1  0.14930000  0.46750000  0.78070000  1
  C  C51  1  0.15630000  0.67760000  0.66620000  1
  C  C52  1  0.15880000  0.60350000  0.92400000  1
  C  C53  1  0.16750000  0.34730000  0.20970000  1
  C  C54  1  0.17680000  0.95000000  0.23320000  1
  C  C55  1  0.20640000  0.47430000  0.24020000  1
  C  C56  1  0.21070000  0.14550000  0.67280000  1
  C  C57  1  0.21110000  0.36050000  0.70720000  1
  C  C58  1  0.21500000  0.07610000  0.20370000  1
  C  C59  1  0.23670000  0.97620000  0.53080000  1
  C  C60  1  0.24680000  0.02120000  0.23960000  1
  C  C61  1  0.25320000  0.47880000  0.73960000  1
  C  C62  1  0.26330000  0.52380000  0.03080000  1
  C  C63  1  0.28500000  0.42390000  0.70370000  1
  C  C64  1  0.28890000  0.13950000  0.20720000  1
  C  C65  1  0.28930000  0.35450000  0.17280000  1
  C  C66  1  0.29360000  0.02570000  0.74020000  1
  C  C67  1  0.32320000  0.55000000  0.73320000  1
  C  C68  1  0.33250000  0.15270000  0.70970000  1
  C  C69  1  0.34120000  0.89650000  0.42400000  1
  C  C70  1  0.34370000  0.82240000  0.16620000  1
  C  C71  1  0.35070000  0.03250000  0.28070000  1
  C  C72  1  0.36280000  0.09840000  0.74660000  1
  C  C73  1  0.37270000  0.98800000  0.51320000  1
  C  C74  1  0.39060000  0.15120000  0.24900000  1
  C  C75  1  0.40760000  0.21670000  0.71340000  1
  C  C76  1  0.40850000  0.42940000  0.66910000  1
  C  C77  1  0.42040000  0.70050000  0.23530000  1
  C  C78  1  0.42260000  0.09660000  0.28510000  1
  C  C79  1  0.42290000  0.94930000  0.46500000  1
  C  C80  1  0.45070000  0.03760000  0.54680000  1
  C  C81  1  0.45790000  0.22290000  0.25790000  1
  C  C82  1  0.46060000  0.82700000  0.20820000  1
  C  C83  1  0.46270000  0.89340000  0.67150000  1
  C  C84  1  0.46580000  0.10890000  0.78770000  1
  C  C85  1  0.49030000  0.77240000  0.24440000  1
  C  C86  1  0.50970000  0.22760000  0.75560000  1
  C  C87  1  0.53420000  0.89110000  0.21230000  1
  C  C88  1  0.53730000  0.10660000  0.32850000  1
  C  C89  1  0.53940000  0.17300000  0.79180000  1
  C  C90  1  0.54210000  0.77710000  0.74210000  1
  C  C91  1  0.54930000  0.96240000  0.45320000  1
  C  C92  1  0.57710000  0.05070000  0.53500000  1
  C  C93  1  0.57740000  0.90340000  0.71490000  1
  C  C94  1  0.57960000  0.29950000  0.76470000  1
  C  C95  1  0.59150000  0.57060000  0.33090000  1
  C  C96  1  0.59240000  0.78330000  0.28660000  1
  C  C97  1  0.60940000  0.84880000  0.75100000  1
  C  C98  1  0.62730000  0.01200000  0.48680000  1
  C  C99  1  0.63720000  0.90160000  0.25340000  1
  C  C100  1  0.64930000  0.96750000  0.71930000  1
  C  C101  1  0.65630000  0.17760000  0.83380000  1
  C  C102  1  0.65880000  0.10350000  0.57600000  1
  C  C103  1  0.66750000  0.84730000  0.29030000  1
  C  C104  1  0.67680000  0.45000000  0.26680000  1
  C  C105  1  0.70640000  0.97430000  0.25980000  1
  C  C106  1  0.71070000  0.64550000  0.82720000  1
  C  C107  1  0.71110000  0.86050000  0.79280000  1
  C  C108  1  0.71500000  0.57610000  0.29630000  1
  C  C109  1  0.73670000  0.47620000  0.96920000  1
  C  C110  1  0.74680000  0.52120000  0.26040000  1
  C  C111  1  0.75320000  0.97880000  0.76040000  1
  C  C112  1  0.76330000  0.02380000  0.46920000  1
  C  C113  1  0.78500000  0.92390000  0.79630000  1
  C  C114  1  0.78890000  0.63950000  0.29280000  1
  C  C115  1  0.78930000  0.85450000  0.32720000  1
  C  C116  1  0.79360000  0.52570000  0.75980000  1
  C  C117  1  0.82320000  0.05000000  0.76680000  1
  C  C118  1  0.83250000  0.65270000  0.79030000  1
  C  C119  1  0.84120000  0.39650000  0.07600000  1
  C  C120  1  0.84370000  0.32240000  0.33380000  1
  C  C121  1  0.85070000  0.53250000  0.21930000  1
  C  C122  1  0.86280000  0.59840000  0.75340000  1
  C  C123  1  0.87270000  0.48800000  0.98680000  1
  C  C124  1  0.89060000  0.65120000  0.25100000  1
  C  C125  1  0.90760000  0.71670000  0.78660000  1
  C  C126  1  0.90850000  0.92940000  0.83090000  1
  C  C127  1  0.92040000  0.20050000  0.26470000  1
  C  C128  1  0.92260000  0.59660000  0.21490000  1
  C  C129  1  0.92290000  0.44930000  0.03500000  1
  C  C130  1  0.95070000  0.53760000  0.95320000  1
  C  C131  1  0.95790000  0.72290000  0.24210000  1
  C  C132  1  0.96060000  0.32700000  0.29180000  1
  C  C133  1  0.96270000  0.39340000  0.82850000  1
  C  C134  1  0.96580000  0.60890000  0.71230000  1
  C  C135  1  0.99030000  0.27240000  0.25560000  1
  O  O136  1  0.00090000  0.73740000  0.18530000  1
  O  O137  1  0.00140000  0.96730000  0.80550000  1
  O  O138  1  0.02710000  0.60320000  0.11160000  1
  O  O139  1  0.03480000  0.23620000  0.71160000  1
  O  O140  1  0.07910000  0.10650000  0.11930000  1
  O  O141  1  0.08790000  0.83990000  0.78240000  1
  O  O142  1  0.10730000  0.64470000  0.89140000  1
  O  O143  1  0.11750000  0.11040000  0.69960000  1
  O  O144  1  0.12110000  0.81460000  0.67820000  1
  O  O145  1  0.13930000  0.61470000  0.20400000  1
  O  O146  1  0.14330000  0.91580000  0.28350000  1
  O  O147  1  0.14760000  0.65870000  0.60850000  1
  O  O148  1  0.16090000  0.92760000  0.17480000  1
  O  O149  1  0.17670000  0.02150000  0.51160000  1
  O  O150  1  0.19220000  0.92380000  0.56400000  1
  O  O151  1  0.20070000  0.17620000  0.61980000  1
  O  O152  1  0.22570000  0.49460000  0.18270000  1
  O  O153  1  0.22640000  0.89640000  0.42440000  1
  O  O154  1  0.23320000  0.50870000  0.29150000  1
  O  O155  1  0.24240000  0.80420000  0.19720000  1
  O  O156  1  0.25760000  0.69580000  0.69720000  1
  O  O157  1  0.26680000  0.99130000  0.79150000  1
  O  O158  1  0.27360000  0.60360000  0.92440000  1
  O  O159  1  0.27430000  0.00540000  0.68270000  1
  O  O160  1  0.29930000  0.32380000  0.11980000  1
  O  O161  1  0.30780000  0.57620000  0.06400000  1
  O  O162  1  0.32330000  0.47850000  0.01160000  1
  O  O163  1  0.33910000  0.57240000  0.67480000  1
  O  O164  1  0.35240000  0.84130000  0.10850000  1
  O  O165  1  0.35670000  0.58420000  0.78350000  1
  O  O166  1  0.36070000  0.88530000  0.70400000  1
  O  O167  1  0.37890000  0.68540000  0.17820000  1
  O  O168  1  0.38250000  0.38960000  0.19960000  1
  O  O169  1  0.39270000  0.85530000  0.39140000  1
  O  O170  1  0.41210000  0.66010000  0.28240000  1
  O  O171  1  0.42090000  0.39350000  0.61930000  1
  O  O172  1  0.46520000  0.26380000  0.21160000  1
  O  O173  1  0.47290000  0.89680000  0.61160000  1
  O  O174  1  0.49860000  0.53270000  0.30550000  1
  O  O175  1  0.49910000  0.76260000  0.68530000  1
  O  O176  1  0.50090000  0.23740000  0.31470000  1
  O  O177  1  0.50140000  0.46730000  0.69450000  1
  O  O178  1  0.52710000  0.10320000  0.38840000  1
  O  O179  1  0.53480000  0.73620000  0.78840000  1
  O  O180  1  0.57910000  0.60650000  0.38070000  1
  O  O181  1  0.58790000  0.33990000  0.71760000  1
  O  O182  1  0.60730000  0.14470000  0.60860000  1
  O  O183  1  0.61750000  0.61040000  0.80040000  1
  O  O184  1  0.62110000  0.31460000  0.82180000  1
  O  O185  1  0.63930000  0.11470000  0.29600000  1
  O  O186  1  0.64330000  0.41580000  0.21650000  1
  O  O187  1  0.64760000  0.15870000  0.89150000  1
  O  O188  1  0.66090000  0.42760000  0.32520000  1
  O  O189  1  0.67670000  0.52150000  0.98840000  1
  O  O190  1  0.69220000  0.42380000  0.93600000  1
  O  O191  1  0.70070000  0.67620000  0.88020000  1
  O  O192  1  0.72570000  0.99460000  0.31730000  1
  O  O193  1  0.72640000  0.39640000  0.07560000  1
  O  O194  1  0.73320000  0.00870000  0.20850000  1
  O  O195  1  0.74240000  0.30420000  0.30280000  1
  O  O196  1  0.75760000  0.19580000  0.80280000  1
  O  O197  1  0.76680000  0.49130000  0.70850000  1
  O  O198  1  0.77360000  0.10360000  0.57560000  1
  O  O199  1  0.77430000  0.50540000  0.81730000  1
  O  O200  1  0.79930000  0.82380000  0.38020000  1
  O  O201  1  0.80780000  0.07620000  0.43600000  1
  O  O202  1  0.82330000  0.97850000  0.48840000  1
  O  O203  1  0.83910000  0.07240000  0.82520000  1
  O  O204  1  0.85240000  0.34130000  0.39150000  1
  O  O205  1  0.85670000  0.08420000  0.71650000  1
  O  O206  1  0.86070000  0.38530000  0.79600000  1
  O  O207  1  0.87890000  0.18540000  0.32180000  1
  O  O208  1  0.88250000  0.88960000  0.30040000  1
  O  O209  1  0.89270000  0.35530000  0.10860000  1
  O  O210  1  0.91210000  0.16010000  0.21760000  1
  O  O211  1  0.92090000  0.89350000  0.88070000  1
  O  O212  1  0.96520000  0.76380000  0.28840000  1
  O  O213  1  0.97290000  0.39680000  0.88840000  1
  O  O214  1  0.99860000  0.03270000  0.19450000  1
  O  O215  1  0.99910000  0.26260000  0.81470000  1
