# generated using pymatgen
data_Zn3H30C46(NO2)6
_symmetry_space_group_name_H-M   'P 1'
_cell_length_a   11.25300000
_cell_length_b   18.17200000
_cell_length_c   25.16100000
_cell_angle_alpha   90.00000000
_cell_angle_beta   90.00000000
_cell_angle_gamma   90.00000000
_symmetry_Int_Tables_number   1
_chemical_formula_structural   Zn3H30C46(NO2)6
_chemical_formula_sum   'Zn12 H120 C184 N24 O48'
_cell_volume   5145.16071208
_cell_formula_units_Z   4
loop_
 _symmetry_equiv_pos_site_id
 _symmetry_equiv_pos_as_xyz
  1  'x, y, z'
loop_
 _atom_site_type_symbol
 _atom_site_label
 _atom_site_symmetry_multiplicity
 _atom_site_fract_x
 _atom_site_fract_y
 _atom_site_fract_z
 _atom_site_occupancy
  Zn  Zn0  1  0.00000000  0.70985000  0.75000000  1
  Zn  Zn1  1  0.00000000  0.20985000  0.75000000  1
  Zn  Zn2  1  0.00000000  0.79015000  0.25000000  1
  Zn  Zn3  1  0.00000000  0.29015000  0.25000000  1
  Zn  Zn4  1  0.62027000  0.57359000  0.97463000  1
  Zn  Zn5  1  0.62027000  0.07359000  0.52537000  1
  Zn  Zn6  1  0.62027000  0.42641000  0.47463000  1
  Zn  Zn7  1  0.62027000  0.92641000  0.02537000  1
  Zn  Zn8  1  0.37973000  0.07359000  0.97463000  1
  Zn  Zn9  1  0.37973000  0.57359000  0.52537000  1
  Zn  Zn10  1  0.37973000  0.92641000  0.47463000  1
  Zn  Zn11  1  0.37973000  0.42641000  0.02537000  1
  H  H12  1  0.96440000  0.26530000  0.95420000  1
  H  H13  1  0.96440000  0.76530000  0.54580000  1
  H  H14  1  0.96440000  0.73470000  0.45420000  1
  H  H15  1  0.96440000  0.23470000  0.04580000  1
  H  H16  1  0.95260000  0.63060000  0.85980000  1
  H  H17  1  0.95260000  0.13060000  0.64020000  1
  H  H18  1  0.95260000  0.36940000  0.35980000  1
  H  H19  1  0.95260000  0.86940000  0.14020000  1
  H  H20  1  0.92730000  0.48890000  0.86750000  1
  H  H21  1  0.92730000  0.98890000  0.63250000  1
  H  H22  1  0.92730000  0.51110000  0.36750000  1
  H  H23  1  0.92730000  0.01110000  0.13250000  1
  H  H24  1  0.89850000  0.15100000  0.92120000  1
  H  H25  1  0.89850000  0.65100000  0.57880000  1
  H  H26  1  0.89850000  0.84900000  0.42120000  1
  H  H27  1  0.89850000  0.34900000  0.07880000  1
  H  H28  1  0.87310000  0.01710000  0.85700000  1
  H  H29  1  0.87310000  0.51710000  0.64300000  1
  H  H30  1  0.87310000  0.98290000  0.35700000  1
  H  H31  1  0.87310000  0.48290000  0.14300000  1
  H  H32  1  0.85940000  0.42800000  0.94110000  1
  H  H33  1  0.85940000  0.92800000  0.55890000  1
  H  H34  1  0.85940000  0.57200000  0.44110000  1
  H  H35  1  0.85940000  0.07200000  0.05890000  1
  H  H36  1  0.83650000  0.13450000  0.97570000  1
  H  H37  1  0.83650000  0.63450000  0.52430000  1
  H  H38  1  0.83650000  0.86550000  0.47570000  1
  H  H39  1  0.83650000  0.36550000  0.02430000  1
  H  H40  1  0.82540000  0.26080000  0.95490000  1
  H  H41  1  0.82540000  0.76080000  0.54510000  1
  H  H42  1  0.82540000  0.73920000  0.45490000  1
  H  H43  1  0.82540000  0.23920000  0.04510000  1
  H  H44  1  0.81030000  0.80860000  0.80250000  1
  H  H45  1  0.81030000  0.30860000  0.69750000  1
  H  H46  1  0.81030000  0.19140000  0.30250000  1
  H  H47  1  0.81030000  0.69140000  0.19750000  1
  H  H48  1  0.73550000  0.98510000  0.92190000  1
  H  H49  1  0.73550000  0.48510000  0.57810000  1
  H  H50  1  0.73550000  0.01490000  0.42190000  1
  H  H51  1  0.73550000  0.51490000  0.07810000  1
  H  H52  1  0.73450000  0.74980000  0.95080000  1
  H  H53  1  0.73450000  0.24980000  0.54920000  1
  H  H54  1  0.73450000  0.25020000  0.45080000  1
  H  H55  1  0.73450000  0.75020000  0.04920000  1
  H  H56  1  0.72520000  0.40600000  0.86080000  1
  H  H57  1  0.72520000  0.90600000  0.63920000  1
  H  H58  1  0.72520000  0.59400000  0.36080000  1
  H  H59  1  0.72520000  0.09400000  0.13920000  1
  H  H60  1  0.70920000  0.82890000  0.88020000  1
  H  H61  1  0.70920000  0.32890000  0.61980000  1
  H  H62  1  0.70920000  0.17110000  0.38020000  1
  H  H63  1  0.70920000  0.67110000  0.11980000  1
  H  H64  1  0.70490000  0.18710000  0.84800000  1
  H  H65  1  0.70490000  0.68710000  0.65200000  1
  H  H66  1  0.70490000  0.81290000  0.34800000  1
  H  H67  1  0.70490000  0.31290000  0.15200000  1
  H  H68  1  0.51010000  0.79280000  0.94870000  1
  H  H69  1  0.51010000  0.29280000  0.55130000  1
  H  H70  1  0.51010000  0.20720000  0.44870000  1
  H  H71  1  0.51010000  0.70720000  0.05130000  1
  H  H72  1  0.48990000  0.29280000  0.94870000  1
  H  H73  1  0.48990000  0.79280000  0.55130000  1
  H  H74  1  0.48990000  0.70720000  0.44870000  1
  H  H75  1  0.48990000  0.20720000  0.05130000  1
  H  H76  1  0.29510000  0.68710000  0.84800000  1
  H  H77  1  0.29510000  0.18710000  0.65200000  1
  H  H78  1  0.29510000  0.31290000  0.34800000  1
  H  H79  1  0.29510000  0.81290000  0.15200000  1
  H  H80  1  0.29080000  0.32890000  0.88020000  1
  H  H81  1  0.29080000  0.82890000  0.61980000  1
  H  H82  1  0.29080000  0.67110000  0.38020000  1
  H  H83  1  0.29080000  0.17110000  0.11980000  1
  H  H84  1  0.27480000  0.90600000  0.86080000  1
  H  H85  1  0.27480000  0.40600000  0.63920000  1
  H  H86  1  0.27480000  0.09400000  0.36080000  1
  H  H87  1  0.27480000  0.59400000  0.13920000  1
  H  H88  1  0.26550000  0.24980000  0.95080000  1
  H  H89  1  0.26550000  0.74980000  0.54920000  1
  H  H90  1  0.26550000  0.75020000  0.45080000  1
  H  H91  1  0.26550000  0.25020000  0.04920000  1
  H  H92  1  0.26450000  0.48510000  0.92190000  1
  H  H93  1  0.26450000  0.98510000  0.57810000  1
  H  H94  1  0.26450000  0.51490000  0.42190000  1
  H  H95  1  0.26450000  0.01490000  0.07810000  1
  H  H96  1  0.18970000  0.30860000  0.80250000  1
  H  H97  1  0.18970000  0.80860000  0.69750000  1
  H  H98  1  0.18970000  0.69140000  0.30250000  1
  H  H99  1  0.18970000  0.19140000  0.19750000  1
  H  H100  1  0.17460000  0.76080000  0.95490000  1
  H  H101  1  0.17460000  0.26080000  0.54510000  1
  H  H102  1  0.17460000  0.23920000  0.45490000  1
  H  H103  1  0.17460000  0.73920000  0.04510000  1
  H  H104  1  0.16350000  0.63450000  0.97570000  1
  H  H105  1  0.16350000  0.13450000  0.52430000  1
  H  H106  1  0.16350000  0.36550000  0.47570000  1
  H  H107  1  0.16350000  0.86550000  0.02430000  1
  H  H108  1  0.14060000  0.92800000  0.94110000  1
  H  H109  1  0.14060000  0.42800000  0.55890000  1
  H  H110  1  0.14060000  0.07200000  0.44110000  1
  H  H111  1  0.14060000  0.57200000  0.05890000  1
  H  H112  1  0.12690000  0.51710000  0.85700000  1
  H  H113  1  0.12690000  0.01710000  0.64300000  1
  H  H114  1  0.12690000  0.48290000  0.35700000  1
  H  H115  1  0.12690000  0.98290000  0.14300000  1
  H  H116  1  0.10150000  0.65100000  0.92120000  1
  H  H117  1  0.10150000  0.15100000  0.57880000  1
  H  H118  1  0.10150000  0.34900000  0.42120000  1
  H  H119  1  0.10150000  0.84900000  0.07880000  1
  H  H120  1  0.07270000  0.98890000  0.86750000  1
  H  H121  1  0.07270000  0.48890000  0.63250000  1
  H  H122  1  0.07270000  0.01110000  0.36750000  1
  H  H123  1  0.07270000  0.51110000  0.13250000  1
  H  H124  1  0.04740000  0.13060000  0.85980000  1
  H  H125  1  0.04740000  0.63060000  0.64020000  1
  H  H126  1  0.04740000  0.86940000  0.35980000  1
  H  H127  1  0.04740000  0.36940000  0.14020000  1
  H  H128  1  0.03560000  0.76530000  0.95420000  1
  H  H129  1  0.03560000  0.26530000  0.54580000  1
  H  H130  1  0.03560000  0.23470000  0.45420000  1
  H  H131  1  0.03560000  0.73470000  0.04580000  1
  C  C132  1  0.98090000  0.47460000  0.89370000  1
  C  C133  1  0.98090000  0.97460000  0.60630000  1
  C  C134  1  0.98090000  0.52540000  0.39370000  1
  C  C135  1  0.98090000  0.02540000  0.10630000  1
  C  C136  1  0.97610000  0.91500000  0.97440000  1
  C  C137  1  0.97610000  0.41500000  0.52560000  1
  C  C138  1  0.97610000  0.08500000  0.47440000  1
  C  C139  1  0.97610000  0.58500000  0.02560000  1
  C  C140  1  0.93990000  0.43780000  0.93680000  1
  C  C141  1  0.93990000  0.93780000  0.56320000  1
  C  C142  1  0.93990000  0.56220000  0.43680000  1
  C  C143  1  0.93990000  0.06220000  0.06320000  1
  C  C144  1  0.90380000  0.15880000  0.95930000  1
  C  C145  1  0.90380000  0.65880000  0.54070000  1
  C  C146  1  0.90380000  0.84120000  0.45930000  1
  C  C147  1  0.90380000  0.34120000  0.04070000  1
  C  C148  1  0.90370000  0.67130000  0.86450000  1
  C  C149  1  0.90370000  0.17130000  0.63550000  1
  C  C150  1  0.90370000  0.32870000  0.36450000  1
  C  C151  1  0.90370000  0.82870000  0.13550000  1
  C  C152  1  0.89780000  0.99200000  0.88720000  1
  C  C153  1  0.89780000  0.49200000  0.61280000  1
  C  C154  1  0.89780000  0.00800000  0.38720000  1
  C  C155  1  0.89780000  0.50800000  0.11280000  1
  C  C156  1  0.89720000  0.24110000  0.97080000  1
  C  C157  1  0.89720000  0.74110000  0.52920000  1
  C  C158  1  0.89720000  0.75890000  0.47080000  1
  C  C159  1  0.89720000  0.25890000  0.02920000  1
  C  C160  1  0.87410000  0.63340000  0.95919000  1
  C  C161  1  0.87410000  0.13340000  0.54081000  1
  C  C162  1  0.87410000  0.36660000  0.45919000  1
  C  C163  1  0.87410000  0.86660000  0.04081000  1
  C  C164  1  0.85580000  0.93230000  0.96870000  1
  C  C165  1  0.85580000  0.43230000  0.53130000  1
  C  C166  1  0.85580000  0.06770000  0.46870000  1
  C  C167  1  0.85580000  0.56770000  0.03130000  1
  C  C168  1  0.84920000  0.68090000  0.91290000  1
  C  C169  1  0.84920000  0.18090000  0.58710000  1
  C  C170  1  0.84920000  0.31910000  0.41290000  1
  C  C171  1  0.84920000  0.81910000  0.08710000  1
  C  C172  1  0.82730000  0.29630000  0.80670000  1
  C  C173  1  0.82730000  0.79630000  0.69330000  1
  C  C174  1  0.82730000  0.70370000  0.30670000  1
  C  C175  1  0.82730000  0.20370000  0.19330000  1
  C  C176  1  0.81950000  0.77550000  0.83040000  1
  C  C177  1  0.81950000  0.27550000  0.66960000  1
  C  C178  1  0.81950000  0.22450000  0.33040000  1
  C  C179  1  0.81950000  0.72450000  0.16960000  1
  C  C180  1  0.81510000  0.97220000  0.92530000  1
  C  C181  1  0.81510000  0.47220000  0.57470000  1
  C  C182  1  0.81510000  0.02780000  0.42530000  1
  C  C183  1  0.81510000  0.52780000  0.07470000  1
  C  C184  1  0.77390000  0.74160000  0.91890000  1
  C  C185  1  0.77390000  0.24160000  0.58110000  1
  C  C186  1  0.77390000  0.25840000  0.41890000  1
  C  C187  1  0.77390000  0.75840000  0.08110000  1
  C  C188  1  0.75940000  0.78850000  0.87720000  1
  C  C189  1  0.75940000  0.28850000  0.62280000  1
  C  C190  1  0.75940000  0.21150000  0.37720000  1
  C  C191  1  0.75940000  0.71150000  0.12280000  1
  C  C192  1  0.72880000  0.29690000  0.84730000  1
  C  C193  1  0.72880000  0.79690000  0.65270000  1
  C  C194  1  0.72880000  0.70310000  0.34730000  1
  C  C195  1  0.72880000  0.20310000  0.15270000  1
  C  C196  1  0.69090000  0.36150000  0.87070000  1
  C  C197  1  0.69090000  0.86150000  0.62930000  1
  C  C198  1  0.69090000  0.63850000  0.37070000  1
  C  C199  1  0.69090000  0.13850000  0.12930000  1
  C  C200  1  0.67860000  0.23090000  0.86310000  1
  C  C201  1  0.67860000  0.73090000  0.63690000  1
  C  C202  1  0.67860000  0.76910000  0.36310000  1
  C  C203  1  0.67860000  0.26910000  0.13690000  1
  C  C204  1  0.60230000  0.36070000  0.90890000  1
  C  C205  1  0.60230000  0.86070000  0.59110000  1
  C  C206  1  0.60230000  0.63930000  0.40890000  1
  C  C207  1  0.60230000  0.13930000  0.09110000  1
  C  C208  1  0.58940000  0.22940000  0.90110000  1
  C  C209  1  0.58940000  0.72940000  0.59890000  1
  C  C210  1  0.58940000  0.77060000  0.40110000  1
  C  C211  1  0.58940000  0.27060000  0.09890000  1
  C  C212  1  0.56360000  0.42920000  0.93640000  1
  C  C213  1  0.56360000  0.92920000  0.56360000  1
  C  C214  1  0.56360000  0.57080000  0.43640000  1
  C  C215  1  0.56360000  0.07080000  0.06360000  1
  C  C216  1  0.55060000  0.29370000  0.92360000  1
  C  C217  1  0.55060000  0.79370000  0.57640000  1
  C  C218  1  0.55060000  0.70630000  0.42360000  1
  C  C219  1  0.55060000  0.20630000  0.07640000  1
  C  C220  1  0.53620000  0.15770000  0.91800000  1
  C  C221  1  0.53620000  0.65770000  0.58200000  1
  C  C222  1  0.53620000  0.84230000  0.41800000  1
  C  C223  1  0.53620000  0.34230000  0.08200000  1
  C  C224  1  0.46380000  0.65770000  0.91800000  1
  C  C225  1  0.46380000  0.15770000  0.58200000  1
  C  C226  1  0.46380000  0.34230000  0.41800000  1
  C  C227  1  0.46380000  0.84230000  0.08200000  1
  C  C228  1  0.44940000  0.79370000  0.92360000  1
  C  C229  1  0.44940000  0.29370000  0.57640000  1
  C  C230  1  0.44940000  0.20630000  0.42360000  1
  C  C231  1  0.44940000  0.70630000  0.07640000  1
  C  C232  1  0.43640000  0.92920000  0.93640000  1
  C  C233  1  0.43640000  0.42920000  0.56360000  1
  C  C234  1  0.43640000  0.07080000  0.43640000  1
  C  C235  1  0.43640000  0.57080000  0.06360000  1
  C  C236  1  0.41060000  0.72940000  0.90110000  1
  C  C237  1  0.41060000  0.22940000  0.59890000  1
  C  C238  1  0.41060000  0.27060000  0.40110000  1
  C  C239  1  0.41060000  0.77060000  0.09890000  1
  C  C240  1  0.39770000  0.86070000  0.90890000  1
  C  C241  1  0.39770000  0.36070000  0.59110000  1
  C  C242  1  0.39770000  0.13930000  0.40890000  1
  C  C243  1  0.39770000  0.63930000  0.09110000  1
  C  C244  1  0.32140000  0.73090000  0.86310000  1
  C  C245  1  0.32140000  0.23090000  0.63690000  1
  C  C246  1  0.32140000  0.26910000  0.36310000  1
  C  C247  1  0.32140000  0.76910000  0.13690000  1
  C  C248  1  0.30910000  0.86150000  0.87070000  1
  C  C249  1  0.30910000  0.36150000  0.62930000  1
  C  C250  1  0.30910000  0.13850000  0.37070000  1
  C  C251  1  0.30910000  0.63850000  0.12930000  1
  C  C252  1  0.27120000  0.79690000  0.84730000  1
  C  C253  1  0.27120000  0.29690000  0.65270000  1
  C  C254  1  0.27120000  0.20310000  0.34730000  1
  C  C255  1  0.27120000  0.70310000  0.15270000  1
  C  C256  1  0.24060000  0.28850000  0.87720000  1
  C  C257  1  0.24060000  0.78850000  0.62280000  1
  C  C258  1  0.24060000  0.71150000  0.37720000  1
  C  C259  1  0.24060000  0.21150000  0.12280000  1
  C  C260  1  0.22610000  0.24160000  0.91890000  1
  C  C261  1  0.22610000  0.74160000  0.58110000  1
  C  C262  1  0.22610000  0.75840000  0.41890000  1
  C  C263  1  0.22610000  0.25840000  0.08110000  1
  C  C264  1  0.18490000  0.47220000  0.92530000  1
  C  C265  1  0.18490000  0.97220000  0.57470000  1
  C  C266  1  0.18490000  0.52780000  0.42530000  1
  C  C267  1  0.18490000  0.02780000  0.07470000  1
  C  C268  1  0.18050000  0.27550000  0.83040000  1
  C  C269  1  0.18050000  0.77550000  0.66960000  1
  C  C270  1  0.18050000  0.72450000  0.33040000  1
  C  C271  1  0.18050000  0.22450000  0.16960000  1
  C  C272  1  0.17270000  0.79630000  0.80670000  1
  C  C273  1  0.17270000  0.29630000  0.69330000  1
  C  C274  1  0.17270000  0.20370000  0.30670000  1
  C  C275  1  0.17270000  0.70370000  0.19330000  1
  C  C276  1  0.15080000  0.18090000  0.91290000  1
  C  C277  1  0.15080000  0.68090000  0.58710000  1
  C  C278  1  0.15080000  0.81910000  0.41290000  1
  C  C279  1  0.15080000  0.31910000  0.08710000  1
  C  C280  1  0.14420000  0.43230000  0.96870000  1
  C  C281  1  0.14420000  0.93230000  0.53130000  1
  C  C282  1  0.14420000  0.56770000  0.46870000  1
  C  C283  1  0.14420000  0.06770000  0.03130000  1
  C  C284  1  0.12590000  0.13340000  0.95919000  1
  C  C285  1  0.12590000  0.63340000  0.54081000  1
  C  C286  1  0.12590000  0.86660000  0.45919000  1
  C  C287  1  0.12590000  0.36660000  0.04081000  1
  C  C288  1  0.10280000  0.74110000  0.97080000  1
  C  C289  1  0.10280000  0.24110000  0.52920000  1
  C  C290  1  0.10280000  0.25890000  0.47080000  1
  C  C291  1  0.10280000  0.75890000  0.02920000  1
  C  C292  1  0.10220000  0.49200000  0.88720000  1
  C  C293  1  0.10220000  0.99200000  0.61280000  1
  C  C294  1  0.10220000  0.50800000  0.38720000  1
  C  C295  1  0.10220000  0.00800000  0.11280000  1
  C  C296  1  0.09630000  0.17130000  0.86450000  1
  C  C297  1  0.09630000  0.67130000  0.63550000  1
  C  C298  1  0.09630000  0.82870000  0.36450000  1
  C  C299  1  0.09630000  0.32870000  0.13550000  1
  C  C300  1  0.09620000  0.65880000  0.95930000  1
  C  C301  1  0.09620000  0.15880000  0.54070000  1
  C  C302  1  0.09620000  0.34120000  0.45930000  1
  C  C303  1  0.09620000  0.84120000  0.04070000  1
  C  C304  1  0.06010000  0.93780000  0.93680000  1
  C  C305  1  0.06010000  0.43780000  0.56320000  1
  C  C306  1  0.06010000  0.06220000  0.43680000  1
  C  C307  1  0.06010000  0.56220000  0.06320000  1
  C  C308  1  0.02390000  0.41500000  0.97440000  1
  C  C309  1  0.02390000  0.91500000  0.52560000  1
  C  C310  1  0.02390000  0.58500000  0.47440000  1
  C  C311  1  0.02390000  0.08500000  0.02560000  1
  C  C312  1  0.01910000  0.97460000  0.89370000  1
  C  C313  1  0.01910000  0.47460000  0.60630000  1
  C  C314  1  0.01910000  0.02540000  0.39370000  1
  C  C315  1  0.01910000  0.52540000  0.10630000  1
  N  N316  1  0.98560000  0.62540000  0.97917000  1
  N  N317  1  0.98560000  0.12540000  0.52083000  1
  N  N318  1  0.98560000  0.37460000  0.47917000  1
  N  N319  1  0.98560000  0.87460000  0.02083000  1
  N  N320  1  0.88960000  0.71820000  0.82361000  1
  N  N321  1  0.88960000  0.21820000  0.67639000  1
  N  N322  1  0.88960000  0.28180000  0.32361000  1
  N  N323  1  0.88960000  0.78180000  0.17639000  1
  N  N324  1  0.79380000  0.59902000  0.98919000  1
  N  N325  1  0.79380000  0.09902000  0.51081000  1
  N  N326  1  0.79380000  0.40098000  0.48919000  1
  N  N327  1  0.79380000  0.90098000  0.01081000  1
  N  N328  1  0.20620000  0.09902000  0.98919000  1
  N  N329  1  0.20620000  0.59902000  0.51081000  1
  N  N330  1  0.20620000  0.90098000  0.48919000  1
  N  N331  1  0.20620000  0.40098000  0.01081000  1
  N  N332  1  0.11040000  0.21820000  0.82361000  1
  N  N333  1  0.11040000  0.71820000  0.67639000  1
  N  N334  1  0.11040000  0.78180000  0.32361000  1
  N  N335  1  0.11040000  0.28180000  0.17639000  1
  N  N336  1  0.01440000  0.12540000  0.97917000  1
  N  N337  1  0.01440000  0.62540000  0.52083000  1
  N  N338  1  0.01440000  0.87460000  0.47917000  1
  N  N339  1  0.01440000  0.37460000  0.02083000  1
  O  O340  1  0.86490000  0.35500000  0.78827000  1
  O  O341  1  0.86490000  0.85500000  0.71173000  1
  O  O342  1  0.86490000  0.64500000  0.28827000  1
  O  O343  1  0.86490000  0.14500000  0.21173000  1
  O  O344  1  0.86290000  0.23300000  0.79379000  1
  O  O345  1  0.86290000  0.73300000  0.70621000  1
  O  O346  1  0.86290000  0.76700000  0.29379000  1
  O  O347  1  0.86290000  0.26700000  0.20621000  1
  O  O348  1  0.63940000  0.48033000  0.93875000  1
  O  O349  1  0.63940000  0.98033000  0.56125000  1
  O  O350  1  0.63940000  0.51967000  0.43875000  1
  O  O351  1  0.63940000  0.01967000  0.06125000  1
  O  O352  1  0.57960000  0.09920000  0.90380000  1
  O  O353  1  0.57960000  0.59920000  0.59620000  1
  O  O354  1  0.57960000  0.90080000  0.40380000  1
  O  O355  1  0.57960000  0.40080000  0.09620000  1
  O  O356  1  0.55240000  0.66196000  0.94777000  1
  O  O357  1  0.55240000  0.16196000  0.55223000  1
  O  O358  1  0.55240000  0.33804000  0.44777000  1
  O  O359  1  0.55240000  0.83804000  0.05223000  1
  O  O360  1  0.53880000  0.93325000  0.95591000  1
  O  O361  1  0.53880000  0.43325000  0.54409000  1
  O  O362  1  0.53880000  0.06675000  0.45591000  1
  O  O363  1  0.53880000  0.56675000  0.04409000  1
  O  O364  1  0.46120000  0.43325000  0.95591000  1
  O  O365  1  0.46120000  0.93325000  0.54409000  1
  O  O366  1  0.46120000  0.56675000  0.45591000  1
  O  O367  1  0.46120000  0.06675000  0.04409000  1
  O  O368  1  0.44760000  0.16196000  0.94777000  1
  O  O369  1  0.44760000  0.66196000  0.55223000  1
  O  O370  1  0.44760000  0.83804000  0.44777000  1
  O  O371  1  0.44760000  0.33804000  0.05223000  1
  O  O372  1  0.42040000  0.59920000  0.90380000  1
  O  O373  1  0.42040000  0.09920000  0.59620000  1
  O  O374  1  0.42040000  0.40080000  0.40380000  1
  O  O375  1  0.42040000  0.90080000  0.09620000  1
  O  O376  1  0.36060000  0.98033000  0.93875000  1
  O  O377  1  0.36060000  0.48033000  0.56125000  1
  O  O378  1  0.36060000  0.01967000  0.43875000  1
  O  O379  1  0.36060000  0.51967000  0.06125000  1
  O  O380  1  0.13710000  0.73300000  0.79379000  1
  O  O381  1  0.13710000  0.23300000  0.70621000  1
  O  O382  1  0.13710000  0.26700000  0.29379000  1
  O  O383  1  0.13710000  0.76700000  0.20621000  1
  O  O384  1  0.13510000  0.85500000  0.78827000  1
  O  O385  1  0.13510000  0.35500000  0.71173000  1
  O  O386  1  0.13510000  0.14500000  0.28827000  1
  O  O387  1  0.13510000  0.64500000  0.21173000  1
