# generated using pymatgen
data_Cu4NiH21C56(NO4)4
_symmetry_space_group_name_H-M   'P 1'
_cell_length_a   27.05940000
_cell_length_b   28.55000000
_cell_length_c   28.55000000
_cell_angle_alpha   90.00000000
_cell_angle_beta   90.00000000
_cell_angle_gamma   90.00000000
_symmetry_Int_Tables_number   1
_chemical_formula_structural   Cu4NiH21C56(NO4)4
_chemical_formula_sum   'Cu32 Ni8 H168 C448 N32 O128'
_cell_volume   22056.18458850
_cell_formula_units_Z   8
loop_
 _symmetry_equiv_pos_site_id
 _symmetry_equiv_pos_as_xyz
  1  'x, y, z'
loop_
 _atom_site_type_symbol
 _atom_site_label
 _atom_site_symmetry_multiplicity
 _atom_site_fract_x
 _atom_site_fract_y
 _atom_site_fract_z
 _atom_site_occupancy
  Cu  Cu0  1  0.29091000  0.02790000  0.20507000  1
  Cu  Cu1  1  0.70909000  0.02790000  0.20507000  1
  Cu  Cu2  1  0.21372000  0.03505000  0.26338000  1
  Cu  Cu3  1  0.78628000  0.03505000  0.26338000  1
  Cu  Cu4  1  0.29091000  0.20507000  0.97210000  1
  Cu  Cu5  1  0.70909000  0.20507000  0.97210000  1
  Cu  Cu6  1  0.21372000  0.23662000  0.46495000  1
  Cu  Cu7  1  0.78628000  0.23662000  0.46495000  1
  Cu  Cu8  1  0.21372000  0.26338000  0.96495000  1
  Cu  Cu9  1  0.78628000  0.26338000  0.96495000  1
  Cu  Cu10  1  0.29091000  0.29493000  0.47210000  1
  Cu  Cu11  1  0.70909000  0.29493000  0.47210000  1
  Cu  Cu12  1  0.21372000  0.46495000  0.76338000  1
  Cu  Cu13  1  0.78628000  0.46495000  0.76338000  1
  Cu  Cu14  1  0.29091000  0.47210000  0.70507000  1
  Cu  Cu15  1  0.70909000  0.47210000  0.70507000  1
  Cu  Cu16  1  0.29091000  0.52790000  0.29493000  1
  Cu  Cu17  1  0.70909000  0.52790000  0.29493000  1
  Cu  Cu18  1  0.21372000  0.53505000  0.23662000  1
  Cu  Cu19  1  0.78628000  0.53505000  0.23662000  1
  Cu  Cu20  1  0.29091000  0.70507000  0.52790000  1
  Cu  Cu21  1  0.70909000  0.70507000  0.52790000  1
  Cu  Cu22  1  0.21372000  0.73662000  0.03505000  1
  Cu  Cu23  1  0.78628000  0.73662000  0.03505000  1
  Cu  Cu24  1  0.21372000  0.76338000  0.53505000  1
  Cu  Cu25  1  0.78628000  0.76338000  0.53505000  1
  Cu  Cu26  1  0.29091000  0.79493000  0.02790000  1
  Cu  Cu27  1  0.70909000  0.79493000  0.02790000  1
  Cu  Cu28  1  0.21372000  0.96495000  0.73662000  1
  Cu  Cu29  1  0.78628000  0.96495000  0.73662000  1
  Cu  Cu30  1  0.29091000  0.97210000  0.79493000  1
  Cu  Cu31  1  0.70909000  0.97210000  0.79493000  1
  Ni  Ni32  1  0.50000000  0.20647000  0.70647000  1
  Ni  Ni33  1  0.00000000  0.22587000  0.72587000  1
  Ni  Ni34  1  0.00000000  0.27413000  0.22587000  1
  Ni  Ni35  1  0.50000000  0.29353000  0.20647000  1
  Ni  Ni36  1  0.50000000  0.70647000  0.79353000  1
  Ni  Ni37  1  1.00000000  0.72587000  0.77413000  1
  Ni  Ni38  1  1.00000000  0.77413000  0.27413000  1
  Ni  Ni39  1  0.50000000  0.79353000  0.29353000  1
  H  H40  1  0.29080000  0.00450000  0.60610000  1
  H  H41  1  0.70920000  0.00450000  0.60610000  1
  H  H42  1  0.36400000  0.07320000  0.70880000  1
  H  H43  1  0.63600000  0.07320000  0.70880000  1
  H  H44  1  0.45400000  0.08600000  0.58600000  1
  H  H45  1  0.54600000  0.08600000  0.58600000  1
  H  H46  1  0.13830000  0.08830000  0.77200000  1
  H  H47  1  0.86170000  0.08830000  0.77200000  1
  H  H48  1  0.24000000  0.09550000  0.87450000  1
  H  H49  1  0.76000000  0.09550000  0.87450000  1
  H  H50  1  0.29080000  0.10610000  0.50450000  1
  H  H51  1  0.70920000  0.10610000  0.50450000  1
  H  H52  1  0.04470000  0.10640000  0.85060000  1
  H  H53  1  0.95530000  0.10640000  0.85060000  1
  H  H54  1  0.24000000  0.12550000  0.09550000  1
  H  H55  1  0.76000000  0.12550000  0.09550000  1
  H  H56  1  0.13370000  0.13670000  0.19350000  1
  H  H57  1  0.86630000  0.13670000  0.19350000  1
  H  H58  1  0.04470000  0.14940000  0.10640000  1
  H  H59  1  0.95530000  0.14940000  0.10640000  1
  H  H60  1  0.36370000  0.15410000  0.24410000  1
  H  H61  1  0.63630000  0.15410000  0.24410000  1
  H  H62  1  0.25730000  0.15550000  0.34450000  1
  H  H63  1  0.74270000  0.15550000  0.34450000  1
  H  H64  1  0.45550000  0.17130000  0.32870000  1
  H  H65  1  0.54450000  0.17130000  0.32870000  1
  H  H66  1  0.31930000  0.17840000  0.67840000  1
  H  H67  1  0.68070000  0.17840000  0.67840000  1
  H  H68  1  0.13370000  0.19350000  0.86330000  1
  H  H69  1  0.86630000  0.19350000  0.86330000  1
  H  H70  1  0.18190000  0.19530000  0.75610000  1
  H  H71  1  0.81810000  0.19530000  0.75610000  1
  H  H72  1  0.36400000  0.20880000  0.57320000  1
  H  H73  1  0.63600000  0.20880000  0.57320000  1
  H  H74  1  0.13830000  0.22800000  0.08830000  1
  H  H75  1  0.86170000  0.22800000  0.08830000  1
  H  H76  1  0.32010000  0.23740000  0.73740000  1
  H  H77  1  0.67990000  0.23740000  0.73740000  1
  H  H78  1  0.18190000  0.24390000  0.19530000  1
  H  H79  1  0.81810000  0.24390000  0.19530000  1
  H  H80  1  0.36370000  0.24410000  0.84590000  1
  H  H81  1  0.63630000  0.24410000  0.84590000  1
  H  H82  1  0.36370000  0.25590000  0.34590000  1
  H  H83  1  0.63630000  0.25590000  0.34590000  1
  H  H84  1  0.18190000  0.25610000  0.69530000  1
  H  H85  1  0.81810000  0.25610000  0.69530000  1
  H  H86  1  0.32010000  0.26260000  0.23740000  1
  H  H87  1  0.67990000  0.26260000  0.23740000  1
  H  H88  1  0.13830000  0.27200000  0.58830000  1
  H  H89  1  0.86170000  0.27200000  0.58830000  1
  H  H90  1  0.36400000  0.29120000  0.07320000  1
  H  H91  1  0.63600000  0.29120000  0.07320000  1
  H  H92  1  0.18190000  0.30470000  0.25610000  1
  H  H93  1  0.81810000  0.30470000  0.25610000  1
  H  H94  1  0.13370000  0.30650000  0.36330000  1
  H  H95  1  0.86630000  0.30650000  0.36330000  1
  H  H96  1  0.31930000  0.32160000  0.17840000  1
  H  H97  1  0.68070000  0.32160000  0.17840000  1
  H  H98  1  0.45550000  0.32870000  0.82870000  1
  H  H99  1  0.54450000  0.32870000  0.82870000  1
  H  H100  1  0.25730000  0.34450000  0.84450000  1
  H  H101  1  0.74270000  0.34450000  0.84450000  1
  H  H102  1  0.36370000  0.34590000  0.74410000  1
  H  H103  1  0.63630000  0.34590000  0.74410000  1
  H  H104  1  0.04470000  0.35060000  0.60640000  1
  H  H105  1  0.95530000  0.35060000  0.60640000  1
  H  H106  1  0.13370000  0.36330000  0.69350000  1
  H  H107  1  0.86630000  0.36330000  0.69350000  1
  H  H108  1  0.24000000  0.37450000  0.59550000  1
  H  H109  1  0.76000000  0.37450000  0.59550000  1
  H  H110  1  0.04470000  0.39360000  0.35060000  1
  H  H111  1  0.95530000  0.39360000  0.35060000  1
  H  H112  1  0.29080000  0.39390000  0.00450000  1
  H  H113  1  0.70920000  0.39390000  0.00450000  1
  H  H114  1  0.24000000  0.40450000  0.37450000  1
  H  H115  1  0.76000000  0.40450000  0.37450000  1
  H  H116  1  0.13830000  0.41170000  0.27200000  1
  H  H117  1  0.86170000  0.41170000  0.27200000  1
  H  H118  1  0.45400000  0.41400000  0.08600000  1
  H  H119  1  0.54600000  0.41400000  0.08600000  1
  H  H120  1  0.36400000  0.42680000  0.20880000  1
  H  H121  1  0.63600000  0.42680000  0.20880000  1
  H  H122  1  0.29080000  0.49550000  0.10610000  1
  H  H123  1  0.70920000  0.49550000  0.10610000  1
  H  H124  1  0.29080000  0.50450000  0.89390000  1
  H  H125  1  0.70920000  0.50450000  0.89390000  1
  H  H126  1  0.36400000  0.57320000  0.79120000  1
  H  H127  1  0.63600000  0.57320000  0.79120000  1
  H  H128  1  0.45400000  0.58600000  0.91400000  1
  H  H129  1  0.54600000  0.58600000  0.91400000  1
  H  H130  1  0.13830000  0.58830000  0.72800000  1
  H  H131  1  0.86170000  0.58830000  0.72800000  1
  H  H132  1  0.24000000  0.59550000  0.62550000  1
  H  H133  1  0.76000000  0.59550000  0.62550000  1
  H  H134  1  0.29080000  0.60610000  0.99550000  1
  H  H135  1  0.70920000  0.60610000  0.99550000  1
  H  H136  1  0.04470000  0.60640000  0.64940000  1
  H  H137  1  0.95530000  0.60640000  0.64940000  1
  H  H138  1  0.24000000  0.62550000  0.40450000  1
  H  H139  1  0.76000000  0.62550000  0.40450000  1
  H  H140  1  0.13370000  0.63670000  0.30650000  1
  H  H141  1  0.86630000  0.63670000  0.30650000  1
  H  H142  1  0.04470000  0.64940000  0.39360000  1
  H  H143  1  0.95530000  0.64940000  0.39360000  1
  H  H144  1  0.36370000  0.65410000  0.25590000  1
  H  H145  1  0.63630000  0.65410000  0.25590000  1
  H  H146  1  0.25730000  0.65550000  0.15550000  1
  H  H147  1  0.74270000  0.65550000  0.15550000  1
  H  H148  1  0.45550000  0.67130000  0.17130000  1
  H  H149  1  0.54450000  0.67130000  0.17130000  1
  H  H150  1  0.31930000  0.67840000  0.82160000  1
  H  H151  1  0.68070000  0.67840000  0.82160000  1
  H  H152  1  0.13370000  0.69350000  0.63670000  1
  H  H153  1  0.86630000  0.69350000  0.63670000  1
  H  H154  1  0.18190000  0.69530000  0.74390000  1
  H  H155  1  0.81810000  0.69530000  0.74390000  1
  H  H156  1  0.36400000  0.70880000  0.92680000  1
  H  H157  1  0.63600000  0.70880000  0.92680000  1
  H  H158  1  0.13830000  0.72800000  0.41170000  1
  H  H159  1  0.86170000  0.72800000  0.41170000  1
  H  H160  1  0.32010000  0.73740000  0.76260000  1
  H  H161  1  0.67990000  0.73740000  0.76260000  1
  H  H162  1  0.18190000  0.74390000  0.30470000  1
  H  H163  1  0.81810000  0.74390000  0.30470000  1
  H  H164  1  0.36370000  0.74410000  0.65410000  1
  H  H165  1  0.63630000  0.74410000  0.65410000  1
  H  H166  1  0.36370000  0.75590000  0.15410000  1
  H  H167  1  0.63630000  0.75590000  0.15410000  1
  H  H168  1  0.18190000  0.75610000  0.80470000  1
  H  H169  1  0.81810000  0.75610000  0.80470000  1
  H  H170  1  0.32010000  0.76260000  0.26260000  1
  H  H171  1  0.67990000  0.76260000  0.26260000  1
  H  H172  1  0.13830000  0.77200000  0.91170000  1
  H  H173  1  0.86170000  0.77200000  0.91170000  1
  H  H174  1  0.36400000  0.79120000  0.42680000  1
  H  H175  1  0.63600000  0.79120000  0.42680000  1
  H  H176  1  0.18190000  0.80470000  0.24390000  1
  H  H177  1  0.81810000  0.80470000  0.24390000  1
  H  H178  1  0.13370000  0.80650000  0.13670000  1
  H  H179  1  0.86630000  0.80650000  0.13670000  1
  H  H180  1  0.31930000  0.82160000  0.32160000  1
  H  H181  1  0.68070000  0.82160000  0.32160000  1
  H  H182  1  0.45550000  0.82870000  0.67130000  1
  H  H183  1  0.54450000  0.82870000  0.67130000  1
  H  H184  1  0.25730000  0.84450000  0.65550000  1
  H  H185  1  0.74270000  0.84450000  0.65550000  1
  H  H186  1  0.36370000  0.84590000  0.75590000  1
  H  H187  1  0.63630000  0.84590000  0.75590000  1
  H  H188  1  0.04470000  0.85060000  0.89360000  1
  H  H189  1  0.95530000  0.85060000  0.89360000  1
  H  H190  1  0.13370000  0.86330000  0.80650000  1
  H  H191  1  0.86630000  0.86330000  0.80650000  1
  H  H192  1  0.24000000  0.87450000  0.90450000  1
  H  H193  1  0.76000000  0.87450000  0.90450000  1
  H  H194  1  0.04470000  0.89360000  0.14940000  1
  H  H195  1  0.95530000  0.89360000  0.14940000  1
  H  H196  1  0.29080000  0.89390000  0.49550000  1
  H  H197  1  0.70920000  0.89390000  0.49550000  1
  H  H198  1  0.24000000  0.90450000  0.12550000  1
  H  H199  1  0.76000000  0.90450000  0.12550000  1
  H  H200  1  0.13830000  0.91170000  0.22800000  1
  H  H201  1  0.86170000  0.91170000  0.22800000  1
  H  H202  1  0.45400000  0.91400000  0.41400000  1
  H  H203  1  0.54600000  0.91400000  0.41400000  1
  H  H204  1  0.36400000  0.92680000  0.29120000  1
  H  H205  1  0.63600000  0.92680000  0.29120000  1
  H  H206  1  0.29080000  0.99550000  0.39390000  1
  H  H207  1  0.70920000  0.99550000  0.39390000  1
  C  C208  1  0.29000000  0.01770000  0.70430000  1
  C  C209  1  0.71000000  0.01770000  0.70430000  1
  C  C210  1  0.30370000  0.03390000  0.61290000  1
  C  C211  1  0.69630000  0.03390000  0.61290000  1
  C  C212  1  0.21420000  0.04000000  0.80290000  1
  C  C213  1  0.78580000  0.04000000  0.80290000  1
  C  C214  1  0.31370000  0.04480000  0.66920000  1
  C  C215  1  0.68630000  0.04480000  0.66920000  1
  C  C216  1  0.31340000  0.06770000  0.56770000  1
  C  C217  1  0.68660000  0.06770000  0.56770000  1
  C  C218  1  0.35210000  0.07150000  0.67830000  1
  C  C219  1  0.64790000  0.07150000  0.67830000  1
  C  C220  1  0.19210000  0.08350000  0.82100000  1
  C  C221  1  0.80790000  0.08350000  0.82100000  1
  C  C222  1  0.21510000  0.08580000  0.17580000  1
  C  C223  1  0.78490000  0.08580000  0.17580000  1
  C  C224  1  0.37440000  0.09640000  0.64440000  1
  C  C225  1  0.62560000  0.09640000  0.64440000  1
  C  C226  1  0.35870000  0.09820000  0.59820000  1
  C  C227  1  0.64130000  0.09820000  0.59820000  1
  C  C228  1  0.28760000  0.10240000  0.27400000  1
  C  C229  1  0.71240000  0.10240000  0.27400000  1
  C  C230  1  0.15160000  0.10310000  0.79820000  1
  C  C231  1  0.84840000  0.10310000  0.79820000  1
  C  C232  1  0.47560000  0.10390000  0.60390000  1
  C  C233  1  0.52440000  0.10390000  0.60390000  1
  C  C234  1  0.21210000  0.10720000  0.85940000  1
  C  C235  1  0.78790000  0.10720000  0.85940000  1
  C  C236  1  0.30370000  0.11290000  0.53390000  1
  C  C237  1  0.69630000  0.11290000  0.53390000  1
  C  C238  1  0.02420000  0.12400000  0.83120000  1
  C  C239  1  0.97580000  0.12400000  0.83120000  1
  C  C240  1  0.18970000  0.12520000  0.14870000  1
  C  C241  1  0.81030000  0.12520000  0.14870000  1
  C  C242  1  0.46460000  0.13890000  0.63890000  1
  C  C243  1  0.53540000  0.13890000  0.63890000  1
  C  C244  1  0.21210000  0.14060000  0.10720000  1
  C  C245  1  0.78790000  0.14060000  0.10720000  1
  C  C246  1  0.13100000  0.14410000  0.81420000  1
  C  C247  1  0.86900000  0.14410000  0.81420000  1
  C  C248  1  0.37440000  0.14440000  0.59640000  1
  C  C249  1  0.62560000  0.14440000  0.59640000  1
  C  C250  1  0.31090000  0.14530000  0.29540000  1
  C  C251  1  0.68910000  0.14530000  0.29540000  1
  C  C252  1  0.14890000  0.14760000  0.16640000  1
  C  C253  1  0.85110000  0.14760000  0.16640000  1
  C  C254  1  0.41210000  0.14820000  0.64820000  1
  C  C255  1  0.58790000  0.14820000  0.64820000  1
  C  C256  1  0.18970000  0.14870000  0.87480000  1
  C  C257  1  0.81030000  0.14870000  0.87480000  1
  C  C258  1  0.03990000  0.15680000  0.79510000  1
  C  C259  1  0.96010000  0.15680000  0.79510000  1
  C  C260  1  0.28750000  0.16640000  0.33360000  1
  C  C261  1  0.71250000  0.16640000  0.33360000  1
  C  C262  1  0.14890000  0.16640000  0.85240000  1
  C  C263  1  0.85110000  0.16640000  0.85240000  1
  C  C264  1  0.35130000  0.16670000  0.27180000  1
  C  C265  1  0.64870000  0.16670000  0.27180000  1
  C  C266  1  0.08850000  0.16820000  0.78640000  1
  C  C267  1  0.91150000  0.16820000  0.78640000  1
  C  C268  1  0.02420000  0.16880000  0.12400000  1
  C  C269  1  0.97580000  0.16880000  0.12400000  1
  C  C270  1  0.31370000  0.16920000  0.54480000  1
  C  C271  1  0.68630000  0.16920000  0.54480000  1
  C  C272  1  0.21510000  0.17580000  0.91420000  1
  C  C273  1  0.78490000  0.17580000  0.91420000  1
  C  C274  1  0.35210000  0.17830000  0.57150000  1
  C  C275  1  0.64790000  0.17830000  0.57150000  1
  C  C276  1  0.19210000  0.17900000  0.08350000  1
  C  C277  1  0.80790000  0.17900000  0.08350000  1
  C  C278  1  0.39700000  0.18350000  0.68350000  1
  C  C279  1  0.60300000  0.18350000  0.68350000  1
  C  C280  1  0.13100000  0.18580000  0.14410000  1
  C  C281  1  0.86900000  0.18580000  0.14410000  1
  C  C282  1  0.47590000  0.18980000  0.31020000  1
  C  C283  1  0.52410000  0.18980000  0.31020000  1
  C  C284  1  0.34670000  0.19240000  0.69240000  1
  C  C285  1  0.65330000  0.19240000  0.69240000  1
  C  C286  1  0.21420000  0.19710000  0.04000000  1
  C  C287  1  0.78580000  0.19710000  0.04000000  1
  C  C288  1  0.10310000  0.20020000  0.75420000  1
  C  C289  1  0.89690000  0.20020000  0.75420000  1
  C  C290  1  0.15160000  0.20180000  0.10310000  1
  C  C291  1  0.84840000  0.20180000  0.10310000  1
  C  C292  1  0.29000000  0.20430000  0.51770000  1
  C  C293  1  0.71000000  0.20430000  0.51770000  1
  C  C294  1  0.31090000  0.20460000  0.35470000  1
  C  C295  1  0.68910000  0.20460000  0.35470000  1
  C  C296  1  0.03990000  0.20490000  0.15680000  1
  C  C297  1  0.96010000  0.20490000  0.15680000  1
  C  C298  1  0.37260000  0.20820000  0.29180000  1
  C  C299  1  0.62740000  0.20820000  0.29180000  1
  C  C300  1  0.15430000  0.20960000  0.74290000  1
  C  C301  1  0.84570000  0.20960000  0.74290000  1
  C  C302  1  0.08850000  0.21360000  0.16820000  1
  C  C303  1  0.91150000  0.21360000  0.16820000  1
  C  C304  1  0.34730000  0.22340000  0.72340000  1
  C  C305  1  0.65270000  0.22340000  0.72340000  1
  C  C306  1  0.46000000  0.22420000  0.27580000  1
  C  C307  1  0.54000000  0.22420000  0.27580000  1
  C  C308  1  0.28760000  0.22600000  0.39760000  1
  C  C309  1  0.71240000  0.22600000  0.39760000  1
  C  C310  1  0.35130000  0.22820000  0.33333333  1
  C  C311  1  0.64870000  0.22820000  0.33333333  1
  C  C312  1  0.39740000  0.23280000  0.73280000  1
  C  C313  1  0.60260000  0.23280000  0.73280000  1
  C  C314  1  0.41170000  0.23500000  0.26500000  1
  C  C315  1  0.58830000  0.23500000  0.26500000  1
  C  C316  1  0.15430000  0.24290000  0.70960000  1
  C  C317  1  0.84570000  0.24290000  0.70960000  1
  C  C318  1  0.10310000  0.24580000  0.20020000  1
  C  C319  1  0.89690000  0.24580000  0.20020000  1
  C  C320  1  0.10310000  0.25420000  0.70020000  1
  C  C321  1  0.89690000  0.25420000  0.70020000  1
  C  C322  1  0.15430000  0.25710000  0.20960000  1
  C  C323  1  0.84570000  0.25710000  0.20960000  1
  C  C324  1  0.41170000  0.26500000  0.76500000  1
  C  C325  1  0.58830000  0.26500000  0.76500000  1
  C  C326  1  0.39740000  0.26720000  0.23280000  1
  C  C327  1  0.60260000  0.26720000  0.23280000  1
  C  C328  1  0.35130000  0.27180000  0.83330000  1
  C  C329  1  0.64870000  0.27180000  0.83330000  1
  C  C330  1  0.28760000  0.27400000  0.89760000  1
  C  C331  1  0.71240000  0.27400000  0.89760000  1
  C  C332  1  0.46000000  0.27580000  0.77580000  1
  C  C333  1  0.54000000  0.27580000  0.77580000  1
  C  C334  1  0.34730000  0.27660000  0.22340000  1
  C  C335  1  0.65270000  0.27660000  0.22340000  1
  C  C336  1  0.08850000  0.28640000  0.66820000  1
  C  C337  1  0.91150000  0.28640000  0.66820000  1
  C  C338  1  0.15430000  0.29040000  0.24290000  1
  C  C339  1  0.84570000  0.29040000  0.24290000  1
  C  C340  1  0.37260000  0.29180000  0.79180000  1
  C  C341  1  0.62740000  0.29180000  0.79180000  1
  C  C342  1  0.03990000  0.29510000  0.65680000  1
  C  C343  1  0.96010000  0.29510000  0.65680000  1
  C  C344  1  0.31090000  0.29540000  0.85470000  1
  C  C345  1  0.68910000  0.29540000  0.85470000  1
  C  C346  1  0.29000000  0.29570000  0.01770000  1
  C  C347  1  0.71000000  0.29570000  0.01770000  1
  C  C348  1  0.15160000  0.29820000  0.60310000  1
  C  C349  1  0.84840000  0.29820000  0.60310000  1
  C  C350  1  0.10310000  0.29980000  0.25420000  1
  C  C351  1  0.89690000  0.29980000  0.25420000  1
  C  C352  1  0.21420000  0.30290000  0.54000000  1
  C  C353  1  0.78580000  0.30290000  0.54000000  1
  C  C354  1  0.34670000  0.30760000  0.19240000  1
  C  C355  1  0.65330000  0.30760000  0.19240000  1
  C  C356  1  0.47590000  0.31020000  0.81020000  1
  C  C357  1  0.52410000  0.31020000  0.81020000  1
  C  C358  1  0.13100000  0.31420000  0.64410000  1
  C  C359  1  0.86900000  0.31420000  0.64410000  1
  C  C360  1  0.39700000  0.31650000  0.18350000  1
  C  C361  1  0.60300000  0.31650000  0.18350000  1
  C  C362  1  0.19210000  0.32100000  0.58350000  1
  C  C363  1  0.80790000  0.32100000  0.58350000  1
  C  C364  1  0.35210000  0.32170000  0.07150000  1
  C  C365  1  0.64790000  0.32170000  0.07150000  1
  C  C366  1  0.21510000  0.32420000  0.41420000  1
  C  C367  1  0.78490000  0.32420000  0.41420000  1
  C  C368  1  0.31370000  0.33080000  0.04480000  1
  C  C369  1  0.68630000  0.33080000  0.04480000  1
  C  C370  1  0.02420000  0.33120000  0.62400000  1
  C  C371  1  0.97580000  0.33120000  0.62400000  1
  C  C372  1  0.08850000  0.33180000  0.28640000  1
  C  C373  1  0.91150000  0.33180000  0.28640000  1
  C  C374  1  0.35130000  0.33333333  0.77180000  1
  C  C375  1  0.64870000  0.33333333  0.77180000  1
  C  C376  1  0.14890000  0.33360000  0.35240000  1
  C  C377  1  0.85110000  0.33360000  0.35240000  1
  C  C378  1  0.28750000  0.33360000  0.83360000  1
  C  C379  1  0.71250000  0.33360000  0.83360000  1
  C  C380  1  0.03990000  0.34320000  0.29510000  1
  C  C381  1  0.96010000  0.34320000  0.29510000  1
  C  C382  1  0.18970000  0.35130000  0.37480000  1
  C  C383  1  0.81030000  0.35130000  0.37480000  1
  C  C384  1  0.41210000  0.35180000  0.14820000  1
  C  C385  1  0.58790000  0.35180000  0.14820000  1
  C  C386  1  0.14890000  0.35240000  0.66640000  1
  C  C387  1  0.85110000  0.35240000  0.66640000  1
  C  C388  1  0.31090000  0.35470000  0.79540000  1
  C  C389  1  0.68910000  0.35470000  0.79540000  1
  C  C390  1  0.37440000  0.35560000  0.09640000  1
  C  C391  1  0.62560000  0.35560000  0.09640000  1
  C  C392  1  0.13100000  0.35590000  0.31420000  1
  C  C393  1  0.86900000  0.35590000  0.31420000  1
  C  C394  1  0.21210000  0.35940000  0.60720000  1
  C  C395  1  0.78790000  0.35940000  0.60720000  1
  C  C396  1  0.46460000  0.36110000  0.13890000  1
  C  C397  1  0.53540000  0.36110000  0.13890000  1
  C  C398  1  0.18970000  0.37480000  0.64870000  1
  C  C399  1  0.81030000  0.37480000  0.64870000  1
  C  C400  1  0.02420000  0.37600000  0.33120000  1
  C  C401  1  0.97580000  0.37600000  0.33120000  1
  C  C402  1  0.30370000  0.38710000  0.03390000  1
  C  C403  1  0.69630000  0.38710000  0.03390000  1
  C  C404  1  0.21210000  0.39280000  0.35940000  1
  C  C405  1  0.78790000  0.39280000  0.35940000  1
  C  C406  1  0.47560000  0.39610000  0.10390000  1
  C  C407  1  0.52440000  0.39610000  0.10390000  1
  C  C408  1  0.15160000  0.39690000  0.29820000  1
  C  C409  1  0.84840000  0.39690000  0.29820000  1
  C  C410  1  0.28760000  0.39760000  0.77400000  1
  C  C411  1  0.71240000  0.39760000  0.77400000  1
  C  C412  1  0.35870000  0.40180000  0.09820000  1
  C  C413  1  0.64130000  0.40180000  0.09820000  1
  C  C414  1  0.37440000  0.40360000  0.14440000  1
  C  C415  1  0.62560000  0.40360000  0.14440000  1
  C  C416  1  0.21510000  0.41420000  0.67580000  1
  C  C417  1  0.78490000  0.41420000  0.67580000  1
  C  C418  1  0.19210000  0.41650000  0.32100000  1
  C  C419  1  0.80790000  0.41650000  0.32100000  1
  C  C420  1  0.35210000  0.42850000  0.17830000  1
  C  C421  1  0.64790000  0.42850000  0.17830000  1
  C  C422  1  0.31340000  0.43230000  0.06770000  1
  C  C423  1  0.68660000  0.43230000  0.06770000  1
  C  C424  1  0.31370000  0.45520000  0.16920000  1
  C  C425  1  0.68630000  0.45520000  0.16920000  1
  C  C426  1  0.21420000  0.46000000  0.30290000  1
  C  C427  1  0.78580000  0.46000000  0.30290000  1
  C  C428  1  0.30370000  0.46610000  0.11290000  1
  C  C429  1  0.69630000  0.46610000  0.11290000  1
  C  C430  1  0.29000000  0.48230000  0.20430000  1
  C  C431  1  0.71000000  0.48230000  0.20430000  1
  C  C432  1  0.29000000  0.51770000  0.79570000  1
  C  C433  1  0.71000000  0.51770000  0.79570000  1
  C  C434  1  0.30370000  0.53390000  0.88710000  1
  C  C435  1  0.69630000  0.53390000  0.88710000  1
  C  C436  1  0.21420000  0.54000000  0.69710000  1
  C  C437  1  0.78580000  0.54000000  0.69710000  1
  C  C438  1  0.31370000  0.54480000  0.83080000  1
  C  C439  1  0.68630000  0.54480000  0.83080000  1
  C  C440  1  0.31340000  0.56770000  0.93230000  1
  C  C441  1  0.68660000  0.56770000  0.93230000  1
  C  C442  1  0.35210000  0.57150000  0.82170000  1
  C  C443  1  0.64790000  0.57150000  0.82170000  1
  C  C444  1  0.19210000  0.58350000  0.67900000  1
  C  C445  1  0.80790000  0.58350000  0.67900000  1
  C  C446  1  0.21510000  0.58580000  0.32420000  1
  C  C447  1  0.78490000  0.58580000  0.32420000  1
  C  C448  1  0.37440000  0.59640000  0.85560000  1
  C  C449  1  0.62560000  0.59640000  0.85560000  1
  C  C450  1  0.35870000  0.59820000  0.90180000  1
  C  C451  1  0.64130000  0.59820000  0.90180000  1
  C  C452  1  0.28760000  0.60240000  0.22600000  1
  C  C453  1  0.71240000  0.60240000  0.22600000  1
  C  C454  1  0.15160000  0.60310000  0.70180000  1
  C  C455  1  0.84840000  0.60310000  0.70180000  1
  C  C456  1  0.47560000  0.60390000  0.89610000  1
  C  C457  1  0.52440000  0.60390000  0.89610000  1
  C  C458  1  0.21210000  0.60720000  0.64060000  1
  C  C459  1  0.78790000  0.60720000  0.64060000  1
  C  C460  1  0.30370000  0.61290000  0.96610000  1
  C  C461  1  0.69630000  0.61290000  0.96610000  1
  C  C462  1  0.02420000  0.62400000  0.66880000  1
  C  C463  1  0.97580000  0.62400000  0.66880000  1
  C  C464  1  0.18970000  0.62520000  0.35130000  1
  C  C465  1  0.81030000  0.62520000  0.35130000  1
  C  C466  1  0.46460000  0.63890000  0.86110000  1
  C  C467  1  0.53540000  0.63890000  0.86110000  1
  C  C468  1  0.21210000  0.64060000  0.39280000  1
  C  C469  1  0.78790000  0.64060000  0.39280000  1
  C  C470  1  0.13100000  0.64410000  0.68580000  1
  C  C471  1  0.86900000  0.64410000  0.68580000  1
  C  C472  1  0.37440000  0.64440000  0.90360000  1
  C  C473  1  0.62560000  0.64440000  0.90360000  1
  C  C474  1  0.31090000  0.64530000  0.20460000  1
  C  C475  1  0.68910000  0.64530000  0.20460000  1
  C  C476  1  0.14890000  0.64760000  0.33360000  1
  C  C477  1  0.85110000  0.64760000  0.33360000  1
  C  C478  1  0.41210000  0.64820000  0.85180000  1
  C  C479  1  0.58790000  0.64820000  0.85180000  1
  C  C480  1  0.18970000  0.64870000  0.62520000  1
  C  C481  1  0.81030000  0.64870000  0.62520000  1
  C  C482  1  0.03990000  0.65680000  0.70490000  1
  C  C483  1  0.96010000  0.65680000  0.70490000  1
  C  C484  1  0.28750000  0.66640000  0.16640000  1
  C  C485  1  0.71250000  0.66640000  0.16640000  1
  C  C486  1  0.14890000  0.66640000  0.64760000  1
  C  C487  1  0.85110000  0.66640000  0.64760000  1
  C  C488  1  0.35130000  0.66666667  0.22820000  1
  C  C489  1  0.64870000  0.66666667  0.22820000  1
  C  C490  1  0.08850000  0.66820000  0.71360000  1
  C  C491  1  0.91150000  0.66820000  0.71360000  1
  C  C492  1  0.02420000  0.66880000  0.37600000  1
  C  C493  1  0.97580000  0.66880000  0.37600000  1
  C  C494  1  0.31370000  0.66920000  0.95520000  1
  C  C495  1  0.68630000  0.66920000  0.95520000  1
  C  C496  1  0.21510000  0.67580000  0.58580000  1
  C  C497  1  0.78490000  0.67580000  0.58580000  1
  C  C498  1  0.35210000  0.67830000  0.92850000  1
  C  C499  1  0.64790000  0.67830000  0.92850000  1
  C  C500  1  0.19210000  0.67900000  0.41650000  1
  C  C501  1  0.80790000  0.67900000  0.41650000  1
  C  C502  1  0.39700000  0.68350000  0.81650000  1
  C  C503  1  0.60300000  0.68350000  0.81650000  1
  C  C504  1  0.13100000  0.68580000  0.35590000  1
  C  C505  1  0.86900000  0.68580000  0.35590000  1
  C  C506  1  0.47590000  0.68980000  0.18980000  1
  C  C507  1  0.52410000  0.68980000  0.18980000  1
  C  C508  1  0.34670000  0.69240000  0.80760000  1
  C  C509  1  0.65330000  0.69240000  0.80760000  1
  C  C510  1  0.21420000  0.69710000  0.46000000  1
  C  C511  1  0.78580000  0.69710000  0.46000000  1
  C  C512  1  0.10310000  0.70020000  0.74580000  1
  C  C513  1  0.89690000  0.70020000  0.74580000  1
  C  C514  1  0.15160000  0.70180000  0.39690000  1
  C  C515  1  0.84840000  0.70180000  0.39690000  1
  C  C516  1  0.29000000  0.70430000  0.98230000  1
  C  C517  1  0.71000000  0.70430000  0.98230000  1
  C  C518  1  0.31090000  0.70460000  0.14530000  1
  C  C519  1  0.68910000  0.70460000  0.14530000  1
  C  C520  1  0.03990000  0.70490000  0.34320000  1
  C  C521  1  0.96010000  0.70490000  0.34320000  1
  C  C522  1  0.37260000  0.70820000  0.20820000  1
  C  C523  1  0.62740000  0.70820000  0.20820000  1
  C  C524  1  0.15430000  0.70960000  0.75710000  1
  C  C525  1  0.84570000  0.70960000  0.75710000  1
  C  C526  1  0.08850000  0.71360000  0.33180000  1
  C  C527  1  0.91150000  0.71360000  0.33180000  1
  C  C528  1  0.34730000  0.72340000  0.77660000  1
  C  C529  1  0.65270000  0.72340000  0.77660000  1
  C  C530  1  0.46000000  0.72420000  0.22420000  1
  C  C531  1  0.54000000  0.72420000  0.22420000  1
  C  C532  1  0.28760000  0.72600000  0.10240000  1
  C  C533  1  0.71240000  0.72600000  0.10240000  1
  C  C534  1  0.35130000  0.72820000  0.16670000  1
  C  C535  1  0.64870000  0.72820000  0.16670000  1
  C  C536  1  0.39740000  0.73280000  0.76720000  1
  C  C537  1  0.60260000  0.73280000  0.76720000  1
  C  C538  1  0.41170000  0.73500000  0.23500000  1
  C  C539  1  0.58830000  0.73500000  0.23500000  1
  C  C540  1  0.15430000  0.74290000  0.79040000  1
  C  C541  1  0.84570000  0.74290000  0.79040000  1
  C  C542  1  0.10310000  0.74580000  0.29980000  1
  C  C543  1  0.89690000  0.74580000  0.29980000  1
  C  C544  1  0.10310000  0.75420000  0.79980000  1
  C  C545  1  0.89690000  0.75420000  0.79980000  1
  C  C546  1  0.15430000  0.75710000  0.29040000  1
  C  C547  1  0.84570000  0.75710000  0.29040000  1
  C  C548  1  0.41170000  0.76500000  0.73500000  1
  C  C549  1  0.58830000  0.76500000  0.73500000  1
  C  C550  1  0.39740000  0.76720000  0.26720000  1
  C  C551  1  0.60260000  0.76720000  0.26720000  1
  C  C552  1  0.35130000  0.77180000  0.66666667  1
  C  C553  1  0.64870000  0.77180000  0.66666667  1
  C  C554  1  0.28760000  0.77400000  0.60240000  1
  C  C555  1  0.71240000  0.77400000  0.60240000  1
  C  C556  1  0.46000000  0.77580000  0.72420000  1
  C  C557  1  0.54000000  0.77580000  0.72420000  1
  C  C558  1  0.34730000  0.77660000  0.27660000  1
  C  C559  1  0.65270000  0.77660000  0.27660000  1
  C  C560  1  0.08850000  0.78640000  0.83180000  1
  C  C561  1  0.91150000  0.78640000  0.83180000  1
  C  C562  1  0.15430000  0.79040000  0.25710000  1
  C  C563  1  0.84570000  0.79040000  0.25710000  1
  C  C564  1  0.37260000  0.79180000  0.70820000  1
  C  C565  1  0.62740000  0.79180000  0.70820000  1
  C  C566  1  0.03990000  0.79510000  0.84320000  1
  C  C567  1  0.96010000  0.79510000  0.84320000  1
  C  C568  1  0.31090000  0.79540000  0.64530000  1
  C  C569  1  0.68910000  0.79540000  0.64530000  1
  C  C570  1  0.29000000  0.79570000  0.48230000  1
  C  C571  1  0.71000000  0.79570000  0.48230000  1
  C  C572  1  0.15160000  0.79820000  0.89690000  1
  C  C573  1  0.84840000  0.79820000  0.89690000  1
  C  C574  1  0.10310000  0.79980000  0.24580000  1
  C  C575  1  0.89690000  0.79980000  0.24580000  1
  C  C576  1  0.21420000  0.80290000  0.96000000  1
  C  C577  1  0.78580000  0.80290000  0.96000000  1
  C  C578  1  0.34670000  0.80760000  0.30760000  1
  C  C579  1  0.65330000  0.80760000  0.30760000  1
  C  C580  1  0.47590000  0.81020000  0.68980000  1
  C  C581  1  0.52410000  0.81020000  0.68980000  1
  C  C582  1  0.13100000  0.81420000  0.85590000  1
  C  C583  1  0.86900000  0.81420000  0.85590000  1
  C  C584  1  0.39700000  0.81650000  0.31650000  1
  C  C585  1  0.60300000  0.81650000  0.31650000  1
  C  C586  1  0.19210000  0.82100000  0.91650000  1
  C  C587  1  0.80790000  0.82100000  0.91650000  1
  C  C588  1  0.35210000  0.82170000  0.42850000  1
  C  C589  1  0.64790000  0.82170000  0.42850000  1
  C  C590  1  0.21510000  0.82420000  0.08580000  1
  C  C591  1  0.78490000  0.82420000  0.08580000  1
  C  C592  1  0.31370000  0.83080000  0.45520000  1
  C  C593  1  0.68630000  0.83080000  0.45520000  1
  C  C594  1  0.02420000  0.83120000  0.87600000  1
  C  C595  1  0.97580000  0.83120000  0.87600000  1
  C  C596  1  0.08850000  0.83180000  0.21360000  1
  C  C597  1  0.91150000  0.83180000  0.21360000  1
  C  C598  1  0.35130000  0.83330000  0.72820000  1
  C  C599  1  0.64870000  0.83330000  0.72820000  1
  C  C600  1  0.14890000  0.83360000  0.14760000  1
  C  C601  1  0.85110000  0.83360000  0.14760000  1
  C  C602  1  0.28750000  0.83360000  0.66640000  1
  C  C603  1  0.71250000  0.83360000  0.66640000  1
  C  C604  1  0.03990000  0.84320000  0.20490000  1
  C  C605  1  0.96010000  0.84320000  0.20490000  1
  C  C606  1  0.18970000  0.85130000  0.12520000  1
  C  C607  1  0.81030000  0.85130000  0.12520000  1
  C  C608  1  0.41210000  0.85180000  0.35180000  1
  C  C609  1  0.58790000  0.85180000  0.35180000  1
  C  C610  1  0.14890000  0.85240000  0.83360000  1
  C  C611  1  0.85110000  0.85240000  0.83360000  1
  C  C612  1  0.31090000  0.85470000  0.70460000  1
  C  C613  1  0.68910000  0.85470000  0.70460000  1
  C  C614  1  0.37440000  0.85560000  0.40360000  1
  C  C615  1  0.62560000  0.85560000  0.40360000  1
  C  C616  1  0.13100000  0.85590000  0.18580000  1
  C  C617  1  0.86900000  0.85590000  0.18580000  1
  C  C618  1  0.21210000  0.85940000  0.89280000  1
  C  C619  1  0.78790000  0.85940000  0.89280000  1
  C  C620  1  0.46460000  0.86110000  0.36110000  1
  C  C621  1  0.53540000  0.86110000  0.36110000  1
  C  C622  1  0.18970000  0.87480000  0.85130000  1
  C  C623  1  0.81030000  0.87480000  0.85130000  1
  C  C624  1  0.02420000  0.87600000  0.16880000  1
  C  C625  1  0.97580000  0.87600000  0.16880000  1
  C  C626  1  0.30370000  0.88710000  0.46610000  1
  C  C627  1  0.69630000  0.88710000  0.46610000  1
  C  C628  1  0.21210000  0.89280000  0.14060000  1
  C  C629  1  0.78790000  0.89280000  0.14060000  1
  C  C630  1  0.47560000  0.89610000  0.39610000  1
  C  C631  1  0.52440000  0.89610000  0.39610000  1
  C  C632  1  0.15160000  0.89690000  0.20180000  1
  C  C633  1  0.84840000  0.89690000  0.20180000  1
  C  C634  1  0.28760000  0.89760000  0.72600000  1
  C  C635  1  0.71240000  0.89760000  0.72600000  1
  C  C636  1  0.35870000  0.90180000  0.40180000  1
  C  C637  1  0.64130000  0.90180000  0.40180000  1
  C  C638  1  0.37440000  0.90360000  0.35560000  1
  C  C639  1  0.62560000  0.90360000  0.35560000  1
  C  C640  1  0.21510000  0.91420000  0.82420000  1
  C  C641  1  0.78490000  0.91420000  0.82420000  1
  C  C642  1  0.19210000  0.91650000  0.17900000  1
  C  C643  1  0.80790000  0.91650000  0.17900000  1
  C  C644  1  0.35210000  0.92850000  0.32170000  1
  C  C645  1  0.64790000  0.92850000  0.32170000  1
  C  C646  1  0.31340000  0.93230000  0.43230000  1
  C  C647  1  0.68660000  0.93230000  0.43230000  1
  C  C648  1  0.31370000  0.95520000  0.33080000  1
  C  C649  1  0.68630000  0.95520000  0.33080000  1
  C  C650  1  0.21420000  0.96000000  0.19710000  1
  C  C651  1  0.78580000  0.96000000  0.19710000  1
  C  C652  1  0.30370000  0.96610000  0.38710000  1
  C  C653  1  0.69630000  0.96610000  0.38710000  1
  C  C654  1  0.29000000  0.98230000  0.29570000  1
  C  C655  1  0.71000000  0.98230000  0.29570000  1
  N  N656  1  0.50000000  0.15960000  0.65960000  1
  N  N657  1  0.00000000  0.17740000  0.77460000  1
  N  N658  1  0.42920000  0.20670000  0.70670000  1
  N  N659  1  0.57080000  0.20670000  0.70670000  1
  N  N660  1  0.07200000  0.22530000  0.72530000  1
  N  N661  1  0.92800000  0.22530000  0.72530000  1
  N  N662  1  1.00000000  0.22540000  0.17740000  1
  N  N663  1  0.50000000  0.24450000  0.25550000  1
  N  N664  1  0.50000000  0.25550000  0.75550000  1
  N  N665  1  0.00000000  0.27460000  0.67740000  1
  N  N666  1  0.07200000  0.27470000  0.22530000  1
  N  N667  1  0.92800000  0.27470000  0.22530000  1
  N  N668  1  0.42920000  0.29330000  0.20670000  1
  N  N669  1  0.57080000  0.29330000  0.20670000  1
  N  N670  1  1.00000000  0.32260000  0.27460000  1
  N  N671  1  0.50000000  0.34040000  0.15960000  1
  N  N672  1  0.50000000  0.65960000  0.84040000  1
  N  N673  1  0.00000000  0.67740000  0.72540000  1
  N  N674  1  0.42920000  0.70670000  0.79330000  1
  N  N675  1  0.57080000  0.70670000  0.79330000  1
  N  N676  1  0.07200000  0.72530000  0.77470000  1
  N  N677  1  0.92800000  0.72530000  0.77470000  1
  N  N678  1  1.00000000  0.72540000  0.32260000  1
  N  N679  1  0.50000000  0.74450000  0.24450000  1
  N  N680  1  0.50000000  0.75550000  0.74450000  1
  N  N681  1  0.00000000  0.77460000  0.82260000  1
  N  N682  1  0.07200000  0.77470000  0.27470000  1
  N  N683  1  0.92800000  0.77470000  0.27470000  1
  N  N684  1  0.42920000  0.79330000  0.29330000  1
  N  N685  1  0.57080000  0.79330000  0.29330000  1
  N  N686  1  1.00000000  0.82260000  0.22540000  1
  N  N687  1  0.50000000  0.84040000  0.34040000  1
  O  O688  1  0.24930000  0.00140000  0.69630000  1
  O  O689  1  0.75070000  0.00140000  0.69630000  1
  O  O690  1  0.31550000  0.01170000  0.74410000  1
  O  O691  1  0.68450000  0.01170000  0.74410000  1
  O  O692  1  0.19330000  0.02157000  0.76890000  1
  O  O693  1  0.80670000  0.02157000  0.76890000  1
  O  O694  1  0.25420000  0.02604000  0.82008000  1
  O  O695  1  0.74580000  0.02604000  0.82008000  1
  O  O696  1  0.25600000  0.06963000  0.16417000  1
  O  O697  1  0.74400000  0.06963000  0.16417000  1
  O  O698  1  0.18980000  0.07350000  0.21300000  1
  O  O699  1  0.81020000  0.07350000  0.21300000  1
  O  O700  1  0.31220000  0.08360000  0.24010000  1
  O  O701  1  0.68780000  0.08360000  0.24010000  1
  O  O702  1  0.24490000  0.08990000  0.28760000  1
  O  O703  1  0.75510000  0.08990000  0.28760000  1
  O  O704  1  0.25600000  0.16417000  0.93037000  1
  O  O705  1  0.74400000  0.16417000  0.93037000  1
  O  O706  1  0.25420000  0.17992000  0.02604000  1
  O  O707  1  0.74580000  0.17992000  0.02604000  1
  O  O708  1  0.24930000  0.19630000  0.50140000  1
  O  O709  1  0.75070000  0.19630000  0.50140000  1
  O  O710  1  0.24490000  0.21240000  0.41010000  1
  O  O711  1  0.75510000  0.21240000  0.41010000  1
  O  O712  1  0.18980000  0.21300000  0.92650000  1
  O  O713  1  0.81020000  0.21300000  0.92650000  1
  O  O714  1  0.19330000  0.23110000  0.02157000  1
  O  O715  1  0.80670000  0.23110000  0.02157000  1
  O  O716  1  0.31220000  0.24010000  0.91640000  1
  O  O717  1  0.68780000  0.24010000  0.91640000  1
  O  O718  1  0.31550000  0.24410000  0.51170000  1
  O  O719  1  0.68450000  0.24410000  0.51170000  1
  O  O720  1  0.31550000  0.25590000  0.01170000  1
  O  O721  1  0.68450000  0.25590000  0.01170000  1
  O  O722  1  0.31220000  0.25990000  0.41640000  1
  O  O723  1  0.68780000  0.25990000  0.41640000  1
  O  O724  1  0.19330000  0.26890000  0.52157000  1
  O  O725  1  0.80670000  0.26890000  0.52157000  1
  O  O726  1  0.18980000  0.28700000  0.42650000  1
  O  O727  1  0.81020000  0.28700000  0.42650000  1
  O  O728  1  0.24490000  0.28760000  0.91010000  1
  O  O729  1  0.75510000  0.28760000  0.91010000  1
  O  O730  1  0.24930000  0.30370000  0.00140000  1
  O  O731  1  0.75070000  0.30370000  0.00140000  1
  O  O732  1  0.25420000  0.32008000  0.52604000  1
  O  O733  1  0.74580000  0.32008000  0.52604000  1
  O  O734  1  0.25600000  0.33583000  0.43037000  1
  O  O735  1  0.74400000  0.33583000  0.43037000  1
  O  O736  1  0.24490000  0.41010000  0.78760000  1
  O  O737  1  0.75510000  0.41010000  0.78760000  1
  O  O738  1  0.31220000  0.41640000  0.74010000  1
  O  O739  1  0.68780000  0.41640000  0.74010000  1
  O  O740  1  0.18980000  0.42650000  0.71300000  1
  O  O741  1  0.81020000  0.42650000  0.71300000  1
  O  O742  1  0.25600000  0.43037000  0.66417000  1
  O  O743  1  0.74400000  0.43037000  0.66417000  1
  O  O744  1  0.25420000  0.47396000  0.32008000  1
  O  O745  1  0.74580000  0.47396000  0.32008000  1
  O  O746  1  0.19330000  0.47843000  0.26890000  1
  O  O747  1  0.80670000  0.47843000  0.26890000  1
  O  O748  1  0.31550000  0.48830000  0.24410000  1
  O  O749  1  0.68450000  0.48830000  0.24410000  1
  O  O750  1  0.24930000  0.49860000  0.19630000  1
  O  O751  1  0.75070000  0.49860000  0.19630000  1
  O  O752  1  0.24930000  0.50140000  0.80370000  1
  O  O753  1  0.75070000  0.50140000  0.80370000  1
  O  O754  1  0.31550000  0.51170000  0.75590000  1
  O  O755  1  0.68450000  0.51170000  0.75590000  1
  O  O756  1  0.19330000  0.52157000  0.73110000  1
  O  O757  1  0.80670000  0.52157000  0.73110000  1
  O  O758  1  0.25420000  0.52604000  0.67992000  1
  O  O759  1  0.74580000  0.52604000  0.67992000  1
  O  O760  1  0.25600000  0.56963000  0.33583000  1
  O  O761  1  0.74400000  0.56963000  0.33583000  1
  O  O762  1  0.18980000  0.57350000  0.28700000  1
  O  O763  1  0.81020000  0.57350000  0.28700000  1
  O  O764  1  0.31220000  0.58360000  0.25990000  1
  O  O765  1  0.68780000  0.58360000  0.25990000  1
  O  O766  1  0.24490000  0.58990000  0.21240000  1
  O  O767  1  0.75510000  0.58990000  0.21240000  1
  O  O768  1  0.25600000  0.66417000  0.56963000  1
  O  O769  1  0.74400000  0.66417000  0.56963000  1
  O  O770  1  0.25420000  0.67992000  0.47396000  1
  O  O771  1  0.74580000  0.67992000  0.47396000  1
  O  O772  1  0.24930000  0.69630000  0.99860000  1
  O  O773  1  0.75070000  0.69630000  0.99860000  1
  O  O774  1  0.24490000  0.71240000  0.08990000  1
  O  O775  1  0.75510000  0.71240000  0.08990000  1
  O  O776  1  0.18980000  0.71300000  0.57350000  1
  O  O777  1  0.81020000  0.71300000  0.57350000  1
  O  O778  1  0.19330000  0.73110000  0.47843000  1
  O  O779  1  0.80670000  0.73110000  0.47843000  1
  O  O780  1  0.31220000  0.74010000  0.58360000  1
  O  O781  1  0.68780000  0.74010000  0.58360000  1
  O  O782  1  0.31550000  0.74410000  0.98830000  1
  O  O783  1  0.68450000  0.74410000  0.98830000  1
  O  O784  1  0.31550000  0.75590000  0.48830000  1
  O  O785  1  0.68450000  0.75590000  0.48830000  1
  O  O786  1  0.31220000  0.75990000  0.08360000  1
  O  O787  1  0.68780000  0.75990000  0.08360000  1
  O  O788  1  0.19330000  0.76890000  0.97843000  1
  O  O789  1  0.80670000  0.76890000  0.97843000  1
  O  O790  1  0.18980000  0.78700000  0.07350000  1
  O  O791  1  0.81020000  0.78700000  0.07350000  1
  O  O792  1  0.24490000  0.78760000  0.58990000  1
  O  O793  1  0.75510000  0.78760000  0.58990000  1
  O  O794  1  0.24930000  0.80370000  0.49860000  1
  O  O795  1  0.75070000  0.80370000  0.49860000  1
  O  O796  1  0.25420000  0.82008000  0.97396000  1
  O  O797  1  0.74580000  0.82008000  0.97396000  1
  O  O798  1  0.25600000  0.83583000  0.06963000  1
  O  O799  1  0.74400000  0.83583000  0.06963000  1
  O  O800  1  0.24490000  0.91010000  0.71240000  1
  O  O801  1  0.75510000  0.91010000  0.71240000  1
  O  O802  1  0.31220000  0.91640000  0.75990000  1
  O  O803  1  0.68780000  0.91640000  0.75990000  1
  O  O804  1  0.18980000  0.92650000  0.78700000  1
  O  O805  1  0.81020000  0.92650000  0.78700000  1
  O  O806  1  0.25600000  0.93037000  0.83583000  1
  O  O807  1  0.74400000  0.93037000  0.83583000  1
  O  O808  1  0.25420000  0.97396000  0.17992000  1
  O  O809  1  0.74580000  0.97396000  0.17992000  1
  O  O810  1  0.19330000  0.97843000  0.23110000  1
  O  O811  1  0.80670000  0.97843000  0.23110000  1
  O  O812  1  0.31550000  0.98830000  0.25590000  1
  O  O813  1  0.68450000  0.98830000  0.25590000  1
  O  O814  1  0.24930000  0.99860000  0.30370000  1
  O  O815  1  0.75070000  0.99860000  0.30370000  1
