# generated using pymatgen
data_CoH2(CO2)2
_symmetry_space_group_name_H-M   'P 1'
_cell_length_a   9.81190000
_cell_length_b   11.24700000
_cell_length_c   14.41390000
_cell_angle_alpha   91.15530000
_cell_angle_beta   90.00000000
_cell_angle_gamma   90.00000000
_symmetry_Int_Tables_number   1
_chemical_formula_structural   CoH2(CO2)2
_chemical_formula_sum   'Co12 H24 C24 O48'
_cell_volume   1590.31450410
_cell_formula_units_Z   12
loop_
 _symmetry_equiv_pos_site_id
 _symmetry_equiv_pos_as_xyz
  1  'x, y, z'
loop_
 _atom_site_type_symbol
 _atom_site_label
 _atom_site_symmetry_multiplicity
 _atom_site_fract_x
 _atom_site_fract_y
 _atom_site_fract_z
 _atom_site_occupancy
  Co  Co0  1  0.00000000  0.00000000  0.00000000  1
  Co  Co1  1  0.00000000  0.50000000  0.00000000  1
  Co  Co2  1  0.07973000  0.24489000  0.86696000  1
  Co  Co3  1  0.10962000  0.74022000  0.31114000  1
  Co  Co4  1  0.39038000  0.24022000  0.81114000  1
  Co  Co5  1  0.42027000  0.74489000  0.36696000  1
  Co  Co6  1  0.50000000  0.00000000  0.50000000  1
  Co  Co7  1  0.50000000  0.50000000  0.50000000  1
  Co  Co8  1  0.57973000  0.25511000  0.63304000  1
  Co  Co9  1  0.60962000  0.75978000  0.18886000  1
  Co  Co10  1  0.89038000  0.25978000  0.68886000  1
  Co  Co11  1  0.92027000  0.75511000  0.13304000  1
  H  H12  1  0.03500000  0.47700000  0.26600000  1
  H  H13  1  0.11700000  0.94500000  0.46200000  1
  H  H14  1  0.16100000  0.69500000  0.92900000  1
  H  H15  1  0.19300000  0.98800000  0.23800000  1
  H  H16  1  0.20500000  0.51100000  0.49300000  1
  H  H17  1  0.24400000  0.13500000  0.63200000  1
  H  H18  1  0.25600000  0.63500000  0.13200000  1
  H  H19  1  0.29500000  0.01100000  0.99300000  1
  H  H20  1  0.30700000  0.48800000  0.73800000  1
  H  H21  1  0.33900000  0.19500000  0.42900000  1
  H  H22  1  0.38300000  0.44500000  0.96200000  1
  H  H23  1  0.46500000  0.97700000  0.76600000  1
  H  H24  1  0.53500000  0.02300000  0.23400000  1
  H  H25  1  0.61700000  0.55500000  0.03800000  1
  H  H26  1  0.66100000  0.80500000  0.57100000  1
  H  H27  1  0.69300000  0.51200000  0.26200000  1
  H  H28  1  0.70500000  0.98900000  0.00700000  1
  H  H29  1  0.74400000  0.36500000  0.86800000  1
  H  H30  1  0.75600000  0.86500000  0.36800000  1
  H  H31  1  0.79500000  0.48900000  0.50700000  1
  H  H32  1  0.80700000  0.01200000  0.76200000  1
  H  H33  1  0.83900000  0.30500000  0.07100000  1
  H  H34  1  0.88300000  0.05500000  0.53800000  1
  H  H35  1  0.96500000  0.52300000  0.73400000  1
  C  C36  1  0.01210000  0.51620000  0.21240000  1
  C  C37  1  0.10790000  0.74300000  0.96990000  1
  C  C38  1  0.12890000  0.95510000  0.18770000  1
  C  C39  1  0.17310000  0.16840000  0.66990000  1
  C  C40  1  0.21070000  0.92390000  0.45350000  1
  C  C41  1  0.22120000  0.57220000  0.45110000  1
  C  C42  1  0.27880000  0.07220000  0.95110000  1
  C  C43  1  0.28930000  0.42390000  0.95350000  1
  C  C44  1  0.32690000  0.66840000  0.16990000  1
  C  C45  1  0.37110000  0.45510000  0.68770000  1
  C  C46  1  0.39210000  0.24300000  0.46990000  1
  C  C47  1  0.48790000  0.01620000  0.71240000  1
  C  C48  1  0.51210000  0.98380000  0.28760000  1
  C  C49  1  0.60790000  0.75700000  0.53010000  1
  C  C50  1  0.62890000  0.54490000  0.31230000  1
  C  C51  1  0.67310000  0.33160000  0.83010000  1
  C  C52  1  0.71070000  0.57610000  0.04650000  1
  C  C53  1  0.72120000  0.92780000  0.04890000  1
  C  C54  1  0.77880000  0.42780000  0.54890000  1
  C  C55  1  0.78930000  0.07610000  0.54650000  1
  C  C56  1  0.82690000  0.83160000  0.33010000  1
  C  C57  1  0.87110000  0.04490000  0.81230000  1
  C  C58  1  0.89210000  0.25700000  0.03010000  1
  C  C59  1  0.98790000  0.48380000  0.78760000  1
  O  O60  1  0.00394000  0.62861000  0.21981000  1
  O  O61  1  0.00530000  0.54320000  0.85940000  1
  O  O62  1  0.02770000  0.68444000  0.02344000  1
  O  O63  1  0.06070000  0.18310000  0.63190000  1
  O  O64  1  0.08370000  0.85011000  0.19531000  1
  O  O65  1  0.10420000  0.02397000  0.12417000  1
  O  O66  1  0.11640000  0.85140000  0.96670000  1
  O  O67  1  0.12090000  0.61329000  0.41009000  1
  O  O68  1  0.15500000  0.10292000  0.94012000  1
  O  O69  1  0.20098000  0.19071000  0.75501000  1
  O  O70  1  0.20930000  0.48211000  0.00291000  1
  O  O71  1  0.24220000  0.84710000  0.39160000  1
  O  O72  1  0.25780000  0.34710000  0.89160000  1
  O  O73  1  0.29070000  0.98211000  0.50291000  1
  O  O74  1  0.29902000  0.69071000  0.25501000  1
  O  O75  1  0.34500000  0.60292000  0.44012000  1
  O  O76  1  0.37910000  0.11329000  0.91009000  1
  O  O77  1  0.38360000  0.35140000  0.46670000  1
  O  O78  1  0.39580000  0.52397000  0.62417000  1
  O  O79  1  0.41630000  0.35011000  0.69531000  1
  O  O80  1  0.43930000  0.68310000  0.13190000  1
  O  O81  1  0.47230000  0.18444000  0.52344000  1
  O  O82  1  0.49470000  0.04320000  0.35940000  1
  O  O83  1  0.49606000  0.12861000  0.71981000  1
  O  O84  1  0.50394000  0.87139000  0.28019000  1
  O  O85  1  0.50530000  0.95680000  0.64060000  1
  O  O86  1  0.52770000  0.81556000  0.47656000  1
  O  O87  1  0.56070000  0.31690000  0.86810000  1
  O  O88  1  0.58370000  0.64989000  0.30469000  1
  O  O89  1  0.60420000  0.47603000  0.37583000  1
  O  O90  1  0.61640000  0.64860000  0.53330000  1
  O  O91  1  0.62090000  0.88671000  0.08991000  1
  O  O92  1  0.65500000  0.39708000  0.55988000  1
  O  O93  1  0.70098000  0.30929000  0.74499000  1
  O  O94  1  0.70930000  0.01789000  0.49709000  1
  O  O95  1  0.74220000  0.65290000  0.10840000  1
  O  O96  1  0.75780000  0.15290000  0.60840000  1
  O  O97  1  0.79070000  0.51789000  0.99709000  1
  O  O98  1  0.79902000  0.80929000  0.24499000  1
  O  O99  1  0.84500000  0.89708000  0.05988000  1
  O  O100  1  0.87910000  0.38671000  0.58991000  1
  O  O101  1  0.88360000  0.14860000  0.03330000  1
  O  O102  1  0.89580000  0.97603000  0.87583000  1
  O  O103  1  0.91630000  0.14989000  0.80469000  1
  O  O104  1  0.93930000  0.81690000  0.36810000  1
  O  O105  1  0.97230000  0.31556000  0.97656000  1
  O  O106  1  0.99470000  0.45680000  0.14060000  1
  O  O107  1  0.99606000  0.37139000  0.78019000  1
