# generated using pymatgen
data_NdU2(C6O7)2
_symmetry_space_group_name_H-M   'P 1'
_cell_length_a   11.62800000
_cell_length_b   13.06500000
_cell_length_c   15.57800000
_cell_angle_alpha   90.00000000
_cell_angle_beta   90.00000000
_cell_angle_gamma   90.00000000
_symmetry_Int_Tables_number   1
_chemical_formula_structural   NdU2(C6O7)2
_chemical_formula_sum   'Nd4 U8 C48 O56'
_cell_volume   2366.60695596
_cell_formula_units_Z   4
loop_
 _symmetry_equiv_pos_site_id
 _symmetry_equiv_pos_as_xyz
  1  'x, y, z'
loop_
 _atom_site_type_symbol
 _atom_site_label
 _atom_site_symmetry_multiplicity
 _atom_site_fract_x
 _atom_site_fract_y
 _atom_site_fract_z
 _atom_site_occupancy
  Nd  Nd0  1  0.75000000  0.06014000  0.71430000  1
  Nd  Nd1  1  0.75000000  0.43986000  0.21430000  1
  Nd  Nd2  1  0.25000000  0.56014000  0.78570000  1
  Nd  Nd3  1  0.25000000  0.93986000  0.28570000  1
  U  U4  1  0.00000000  0.00000000  0.00000000  1
  U  U5  1  1.00000000  0.50000000  0.50000000  1
  U  U6  1  0.75000000  0.34056000  0.75393000  1
  U  U7  1  0.75000000  0.15944000  0.25393000  1
  U  U8  1  0.50000000  0.00000000  0.00000000  1
  U  U9  1  0.50000000  0.50000000  0.50000000  1
  U  U10  1  0.25000000  0.84056000  0.74607000  1
  U  U11  1  0.25000000  0.65944000  0.24607000  1
  C  C12  1  0.99880000  0.21710000  0.73380000  1
  C  C13  1  0.99880000  0.28290000  0.23380000  1
  C  C14  1  0.87480000  0.56360000  0.67320000  1
  C  C15  1  0.87480000  0.93640000  0.17320000  1
  C  C16  1  0.87300000  0.88110000  0.85440000  1
  C  C17  1  0.87300000  0.61890000  0.35440000  1
  C  C18  1  0.87050000  0.71700000  0.76950000  1
  C  C19  1  0.87050000  0.78300000  0.26950000  1
  C  C20  1  0.81010000  0.79530000  0.80940000  1
  C  C21  1  0.81010000  0.70470000  0.30940000  1
  C  C22  1  0.80980000  0.63830000  0.72860000  1
  C  C23  1  0.80980000  0.86170000  0.22860000  1
  C  C24  1  0.69020000  0.63830000  0.72860000  1
  C  C25  1  0.69020000  0.86170000  0.22860000  1
  C  C26  1  0.68990000  0.79530000  0.80940000  1
  C  C27  1  0.68990000  0.70470000  0.30940000  1
  C  C28  1  0.62950000  0.71700000  0.76950000  1
  C  C29  1  0.62950000  0.78300000  0.26950000  1
  C  C30  1  0.62700000  0.88110000  0.85440000  1
  C  C31  1  0.62700000  0.61890000  0.35440000  1
  C  C32  1  0.62520000  0.56360000  0.67320000  1
  C  C33  1  0.62520000  0.93640000  0.17320000  1
  C  C34  1  0.50120000  0.21710000  0.73380000  1
  C  C35  1  0.50120000  0.28290000  0.23380000  1
  C  C36  1  0.49880000  0.71710000  0.76620000  1
  C  C37  1  0.49880000  0.78290000  0.26620000  1
  C  C38  1  0.37480000  0.06360000  0.82680000  1
  C  C39  1  0.37480000  0.43640000  0.32680000  1
  C  C40  1  0.37300000  0.38110000  0.64560000  1
  C  C41  1  0.37300000  0.11890000  0.14560000  1
  C  C42  1  0.37050000  0.21700000  0.73050000  1
  C  C43  1  0.37050000  0.28300000  0.23050000  1
  C  C44  1  0.31010000  0.29530000  0.69060000  1
  C  C45  1  0.31010000  0.20470000  0.19060000  1
  C  C46  1  0.30980000  0.13830000  0.77140000  1
  C  C47  1  0.30980000  0.36170000  0.27140000  1
  C  C48  1  0.19020000  0.13830000  0.77140000  1
  C  C49  1  0.19020000  0.36170000  0.27140000  1
  C  C50  1  0.18990000  0.29530000  0.69060000  1
  C  C51  1  0.18990000  0.20470000  0.19060000  1
  C  C52  1  0.12950000  0.21700000  0.73050000  1
  C  C53  1  0.12950000  0.28300000  0.23050000  1
  C  C54  1  0.12700000  0.38110000  0.64560000  1
  C  C55  1  0.12700000  0.11890000  0.14560000  1
  C  C56  1  0.12520000  0.06360000  0.82680000  1
  C  C57  1  0.12520000  0.43640000  0.32680000  1
  C  C58  1  0.00120000  0.71710000  0.76620000  1
  C  C59  1  0.00120000  0.78290000  0.26620000  1
  O  O60  1  0.95300000  0.29860000  0.76200000  1
  O  O61  1  0.95300000  0.20140000  0.26200000  1
  O  O62  1  0.94790000  0.13880000  0.70890000  1
  O  O63  1  0.94790000  0.36120000  0.20890000  1
  O  O64  1  0.93030000  0.60370000  0.61280000  1
  O  O65  1  0.93030000  0.89630000  0.11280000  1
  O  O66  1  0.92610000  0.85780000  0.92240000  1
  O  O67  1  0.92610000  0.64220000  0.42240000  1
  O  O68  1  0.86950000  0.96900000  0.82510000  1
  O  O69  1  0.86950000  0.53100000  0.32510000  1
  O  O70  1  0.86820000  0.46990000  0.68540000  1
  O  O71  1  0.86820000  0.03010000  0.18540000  1
  O  O72  1  0.75000000  0.18840000  0.82260000  1
  O  O73  1  0.75000000  0.26370000  0.65970000  1
  O  O74  1  0.75000000  0.31160000  0.32260000  1
  O  O75  1  0.75000000  0.23630000  0.15970000  1
  O  O76  1  0.63180000  0.46990000  0.68540000  1
  O  O77  1  0.63180000  0.03010000  0.18540000  1
  O  O78  1  0.63050000  0.96900000  0.82510000  1
  O  O79  1  0.63050000  0.53100000  0.32510000  1
  O  O80  1  0.57390000  0.85780000  0.92240000  1
  O  O81  1  0.57390000  0.64220000  0.42240000  1
  O  O82  1  0.56970000  0.60370000  0.61280000  1
  O  O83  1  0.56970000  0.89630000  0.11280000  1
  O  O84  1  0.55210000  0.13880000  0.70890000  1
  O  O85  1  0.55210000  0.36120000  0.20890000  1
  O  O86  1  0.54700000  0.29860000  0.76200000  1
  O  O87  1  0.54700000  0.20140000  0.26200000  1
  O  O88  1  0.45300000  0.79860000  0.73800000  1
  O  O89  1  0.45300000  0.70140000  0.23800000  1
  O  O90  1  0.44790000  0.63880000  0.79110000  1
  O  O91  1  0.44790000  0.86120000  0.29110000  1
  O  O92  1  0.43030000  0.10370000  0.88720000  1
  O  O93  1  0.43030000  0.39630000  0.38720000  1
  O  O94  1  0.42610000  0.35780000  0.57760000  1
  O  O95  1  0.42610000  0.14220000  0.07760000  1
  O  O96  1  0.36950000  0.46900000  0.67490000  1
  O  O97  1  0.36950000  0.03100000  0.17490000  1
  O  O98  1  0.36820000  0.96990000  0.81460000  1
  O  O99  1  0.36820000  0.53010000  0.31460000  1
  O  O100  1  0.25000000  0.76370000  0.84030000  1
  O  O101  1  0.25000000  0.68840000  0.67740000  1
  O  O102  1  0.25000000  0.73630000  0.34030000  1
  O  O103  1  0.25000000  0.81160000  0.17740000  1
  O  O104  1  0.13180000  0.96990000  0.81460000  1
  O  O105  1  0.13180000  0.53010000  0.31460000  1
  O  O106  1  0.13050000  0.46900000  0.67490000  1
  O  O107  1  0.13050000  0.03100000  0.17490000  1
  O  O108  1  0.07390000  0.35780000  0.57760000  1
  O  O109  1  0.07390000  0.14220000  0.07760000  1
  O  O110  1  0.06970000  0.10370000  0.88720000  1
  O  O111  1  0.06970000  0.39630000  0.38720000  1
  O  O112  1  0.05210000  0.63880000  0.79110000  1
  O  O113  1  0.05210000  0.86120000  0.29110000  1
  O  O114  1  0.04700000  0.79860000  0.73800000  1
  O  O115  1  0.04700000  0.70140000  0.23800000  1
