# generated using pymatgen
data_Zn3H64C64(N2O)8
_symmetry_space_group_name_H-M   'P 1'
_cell_length_a   12.88600000
_cell_length_b   16.47830000
_cell_length_c   18.25410000
_cell_angle_alpha   80.20200000
_cell_angle_beta   86.03900000
_cell_angle_gamma   81.67300000
_symmetry_Int_Tables_number   1
_chemical_formula_structural   Zn3H64C64(N2O)8
_chemical_formula_sum   'Zn6 H128 C128 N32 O16'
_cell_volume   3775.33433133
_cell_formula_units_Z   2
loop_
 _symmetry_equiv_pos_site_id
 _symmetry_equiv_pos_as_xyz
  1  'x, y, z'
loop_
 _atom_site_type_symbol
 _atom_site_label
 _atom_site_symmetry_multiplicity
 _atom_site_fract_x
 _atom_site_fract_y
 _atom_site_fract_z
 _atom_site_occupancy
  Zn  Zn0  1  0.16774000  0.29143000  0.67405000  1
  Zn  Zn1  1  0.24334000  0.76305000  0.01226000  1
  Zn  Zn2  1  0.48660000  0.27513000  0.26392000  1
  Zn  Zn3  1  0.51340000  0.72487000  0.73608000  1
  Zn  Zn4  1  0.75666000  0.23695000  0.98774000  1
  Zn  Zn5  1  0.83226000  0.70857000  0.32595000  1
  H  H6  1  0.00400000  0.97250000  0.38830000  1
  H  H7  1  0.00900000  0.79740000  0.76260000  1
  H  H8  1  0.02030000  0.87080000  0.49070000  1
  H  H9  1  0.02510000  0.62710000  0.02850000  1
  H  H10  1  0.03470000  0.63590000  0.67150000  1
  H  H11  1  0.04420000  0.43650000  0.46170000  1
  H  H12  1  0.05140000  0.73610000  0.37090000  1
  H  H13  1  0.05780000  0.22840000  0.41320000  1
  H  H14  1  0.06110000  0.74250000  0.14220000  1
  H  H15  1  0.06150000  0.91940000  0.20430000  1
  H  H16  1  0.06380000  0.62230000  0.24170000  1
  H  H17  1  0.06490000  0.79320000  0.89320000  1
  H  H18  1  0.06980000  0.00990000  0.04970000  1
  H  H19  1  0.08070000  0.45710000  0.32780000  1
  H  H20  1  0.08580000  0.74980000  0.70910000  1
  H  H21  1  0.09130000  0.01990000  0.96350000  1
  H  H22  1  0.09480000  0.93160000  0.70170000  1
  H  H23  1  0.10310000  0.29900000  0.14250000  1
  H  H24  1  0.10490000  0.13270000  0.79420000  1
  H  H25  1  0.10770000  0.49960000  0.48780000  1
  H  H26  1  0.10960000  0.15800000  0.36900000  1
  H  H27  1  0.15600000  0.52160000  0.82310000  1
  H  H28  1  0.15700000  0.47850000  0.70050000  1
  H  H29  1  0.16390000  0.54220000  0.98650000  1
  H  H30  1  0.17480000  0.33590000  0.97080000  1
  H  H31  1  0.18090000  0.97810000  0.72670000  1
  H  H32  1  0.18820000  0.27770000  0.85050000  1
  H  H33  1  0.19570000  0.83530000  0.59120000  1
  H  H34  1  0.19890000  0.83550000  0.37120000  1
  H  H35  1  0.20820000  0.31030000  0.46630000  1
  H  H36  1  0.21700000  0.89330000  0.29530000  1
  H  H37  1  0.21810000  0.39250000  0.13980000  1
  H  H38  1  0.24160000  0.41000000  0.95780000  1
  H  H39  1  0.24550000  0.50460000  0.28660000  1
  H  H40  1  0.25070000  0.64420000  0.77510000  1
  H  H41  1  0.25280000  0.68480000  0.37770000  1
  H  H42  1  0.28320000  0.18420000  0.30100000  1
  H  H43  1  0.28860000  0.11990000  0.48990000  1
  H  H44  1  0.30290000  0.03000000  0.60190000  1
  H  H45  1  0.30620000  0.47530000  0.21620000  1
  H  H46  1  0.30980000  0.14360000  0.77040000  1
  H  H47  1  0.31610000  0.59030000  0.11030000  1
  H  H48  1  0.33530000  0.65260000  0.88700000  1
  H  H49  1  0.34420000  0.84460000  0.20480000  1
  H  H50  1  0.34790000  0.17200000  0.07970000  1
  H  H51  1  0.34850000  0.87950000  0.75570000  1
  H  H52  1  0.35090000  0.73210000  0.60900000  1
  H  H53  1  0.36930000  0.35240000  0.40420000  1
  H  H54  1  0.36990000  0.24850000  0.56880000  1
  H  H55  1  0.37930000  0.30850000  0.02990000  1
  H  H56  1  0.39150000  0.59020000  0.35250000  1
  H  H57  1  0.39170000  0.37050000  0.76560000  1
  H  H58  1  0.39760000  0.89940000  0.38410000  1
  H  H59  1  0.40140000  0.24930000  0.97050000  1
  H  H60  1  0.41230000  0.41100000  0.68270000  1
  H  H61  1  0.43260000  0.82820000  0.44960000  1
  H  H62  1  0.46060000  0.03630000  0.37750000  1
  H  H63  1  0.46220000  0.56330000  0.66320000  1
  H  H64  1  0.46650000  0.13970000  0.06400000  1
  H  H65  1  0.47390000  0.07380000  0.72950000  1
  H  H66  1  0.47880000  0.43840000  0.86900000  1
  H  H67  1  0.47980000  0.74480000  0.17610000  1
  H  H68  1  0.49140000  0.42180000  0.13420000  1
  H  H69  1  0.49720000  0.13660000  0.44240000  1
  H  H70  1  0.50280000  0.86340000  0.55760000  1
  H  H71  1  0.50860000  0.57820000  0.86580000  1
  H  H72  1  0.52020000  0.25520000  0.82390000  1
  H  H73  1  0.52120000  0.56160000  0.13100000  1
  H  H74  1  0.52610000  0.92620000  0.27050000  1
  H  H75  1  0.53350000  0.86030000  0.93600000  1
  H  H76  1  0.53780000  0.43670000  0.33680000  1
  H  H77  1  0.53940000  0.96370000  0.62250000  1
  H  H78  1  0.56740000  0.17180000  0.55040000  1
  H  H79  1  0.58770000  0.58900000  0.31730000  1
  H  H80  1  0.59860000  0.75070000  0.02950000  1
  H  H81  1  0.60240000  0.10060000  0.61590000  1
  H  H82  1  0.60830000  0.62950000  0.23440000  1
  H  H83  1  0.60850000  0.40980000  0.64750000  1
  H  H84  1  0.62070000  0.69150000  0.97010000  1
  H  H85  1  0.63010000  0.75150000  0.43120000  1
  H  H86  1  0.63070000  0.64760000  0.59580000  1
  H  H87  1  0.64910000  0.26790000  0.39100000  1
  H  H88  1  0.65150000  0.12050000  0.24430000  1
  H  H89  1  0.65210000  0.82800000  0.92030000  1
  H  H90  1  0.65580000  0.15540000  0.79520000  1
  H  H91  1  0.66470000  0.34740000  0.11300000  1
  H  H92  1  0.68390000  0.40970000  0.88970000  1
  H  H93  1  0.69020000  0.85640000  0.22960000  1
  H  H94  1  0.69380000  0.52470000  0.78380000  1
  H  H95  1  0.69710000  0.97000000  0.39810000  1
  H  H96  1  0.71140000  0.88010000  0.51010000  1
  H  H97  1  0.71680000  0.81580000  0.69900000  1
  H  H98  1  0.74720000  0.31520000  0.62230000  1
  H  H99  1  0.74930000  0.35580000  0.22490000  1
  H  H100  1  0.75450000  0.49540000  0.71340000  1
  H  H101  1  0.75840000  0.59000000  0.04220000  1
  H  H102  1  0.78190000  0.60750000  0.86020000  1
  H  H103  1  0.78300000  0.10670000  0.70470000  1
  H  H104  1  0.79180000  0.68970000  0.53370000  1
  H  H105  1  0.80110000  0.16450000  0.62880000  1
  H  H106  1  0.80430000  0.16470000  0.40880000  1
  H  H107  1  0.81180000  0.72230000  0.14950000  1
  H  H108  1  0.81910000  0.02190000  0.27330000  1
  H  H109  1  0.82520000  0.66410000  0.02920000  1
  H  H110  1  0.83610000  0.45780000  0.01350000  1
  H  H111  1  0.84300000  0.52150000  0.29950000  1
  H  H112  1  0.84400000  0.47840000  0.17690000  1
  H  H113  1  0.89040000  0.84200000  0.63100000  1
  H  H114  1  0.89230000  0.50040000  0.51220000  1
  H  H115  1  0.89510000  0.86730000  0.20580000  1
  H  H116  1  0.89690000  0.70100000  0.85750000  1
  H  H117  1  0.90520000  0.06840000  0.29830000  1
  H  H118  1  0.90870000  0.98010000  0.03650000  1
  H  H119  1  0.91420000  0.25020000  0.29090000  1
  H  H120  1  0.91930000  0.54290000  0.67220000  1
  H  H121  1  0.93020000  0.99010000  0.95030000  1
  H  H122  1  0.93510000  0.20680000  0.10680000  1
  H  H123  1  0.93620000  0.37770000  0.75830000  1
  H  H124  1  0.93850000  0.08060000  0.79570000  1
  H  H125  1  0.93890000  0.25750000  0.85780000  1
  H  H126  1  0.94220000  0.77160000  0.58680000  1
  H  H127  1  0.94860000  0.26390000  0.62910000  1
  H  H128  1  0.95580000  0.56350000  0.53830000  1
  H  H129  1  0.96530000  0.36410000  0.32850000  1
  H  H130  1  0.97490000  0.37290000  0.97150000  1
  H  H131  1  0.97970000  0.12920000  0.50930000  1
  H  H132  1  0.99100000  0.20260000  0.23740000  1
  H  H133  1  0.99600000  0.02750000  0.61170000  1
  C  C134  1  0.01480000  0.57620000  0.01690000  1
  C  C135  1  0.01710000  0.36900000  0.29050000  1
  C  C136  1  0.02290000  0.32040000  0.23690000  1
  C  C137  1  0.03290000  0.77520000  0.32920000  1
  C  C138  1  0.03910000  0.87580000  0.23810000  1
  C  C139  1  0.04640000  0.10460000  0.52370000  1
  C  C140  1  0.04760000  0.46970000  0.50030000  1
  C  C141  1  0.05040000  0.74430000  0.75800000  1
  C  C142  1  0.05230000  0.15310000  0.76070000  1
  C  C143  1  0.05430000  0.98990000  0.00520000  1
  C  C144  1  0.05620000  0.04590000  0.58740000  1
  C  C145  1  0.06580000  0.41170000  0.57340000  1
  C  C146  1  0.08570000  0.44760000  0.97500000  1
  C  C147  1  0.08620000  0.42540000  0.28980000  1
  C  C148  1  0.09770000  0.52510000  0.99210000  1
  C  C149  1  0.09850000  0.89750000  0.01260000  1
  C  C150  1  0.09870000  0.33090000  0.18030000  1
  C  C151  1  0.11320000  0.69680000  0.14810000  1
  C  C152  1  0.11410000  0.63070000  0.20310000  1
  C  C153  1  0.11980000  0.18810000  0.40860000  1
  C  C154  1  0.12200000  0.75730000  0.87840000  1
  C  C155  1  0.13230000  0.12770000  0.48090000  1
  C  C156  1  0.15090000  0.01430000  0.61560000  1
  C  C157  1  0.16170000  0.95150000  0.68710000  1
  C  C158  1  0.16240000  0.43620000  0.23510000  1
  C  C159  1  0.16270000  0.46730000  0.81360000  1
  C  C160  1  0.16320000  0.44310000  0.74590000  1
  C  C161  1  0.16750000  0.38680000  0.17850000  1
  C  C162  1  0.17660000  0.39280000  0.94620000  1
  C  C163  1  0.18030000  0.33310000  0.82800000  1
  C  C164  1  0.20050000  0.83860000  0.31760000  1
  C  C165  1  0.22420000  0.67510000  0.81210000  1
  C  C166  1  0.22860000  0.10060000  0.51360000  1
  C  C167  1  0.23790000  0.04550000  0.58080000  1
  C  C168  1  0.23790000  0.49740000  0.23570000  1
  C  C169  1  0.24300000  0.29030000  0.42530000  1
  C  C170  1  0.24470000  0.83180000  0.62700000  1
  C  C171  1  0.25280000  0.61390000  0.13030000  1
  C  C172  1  0.26910000  0.67990000  0.87410000  1
  C  C173  1  0.28510000  0.22070000  0.33440000  1
  C  C174  1  0.28510000  0.77550000  0.29580000  1
  C  C175  1  0.30030000  0.69900000  0.33860000  1
  C  C176  1  0.33020000  0.85510000  0.71690000  1
  C  C177  1  0.33090000  0.77510000  0.63630000  1
  C  C178  1  0.33220000  0.31290000  0.39140000  1
  C  C179  1  0.34300000  0.15620000  0.72390000  1
  C  C180  1  0.35440000  0.79300000  0.23520000  1
  C  C181  1  0.37520000  0.21330000  0.61440000  1
  C  C182  1  0.38480000  0.64310000  0.32420000  1
  C  C183  1  0.41850000  0.18670000  0.07700000  1
  C  C184  1  0.42610000  0.26150000  0.01600000  1
  C  C185  1  0.43270000  0.11770000  0.70170000  1
  C  C186  1  0.43760000  0.73560000  0.21940000  1
  C  C187  1  0.44170000  0.39800000  0.73150000  1
  C  C188  1  0.44410000  0.20240000  0.15360000  1
  C  C189  1  0.45510000  0.87520000  0.41590000  1
  C  C190  1  0.45660000  0.66090000  0.27250000  1
  C  C191  1  0.46540000  0.71410000  0.99990000  1
  C  C192  1  0.46790000  0.55170000  0.71450000  1
  C  C193  1  0.47680000  0.02130000  0.42730000  1
  C  C194  1  0.47710000  0.48030000  0.82770000  1
  C  C195  1  0.47870000  0.93910000  0.46070000  1
  C  C196  1  0.49340000  0.55650000  0.82450000  1
  C  C197  1  0.49840000  0.08190000  0.46620000  1
  C  C198  1  0.50160000  0.91810000  0.53380000  1
  C  C199  1  0.50660000  0.44350000  0.17550000  1
  C  C200  1  0.52130000  0.06090000  0.53930000  1
  C  C201  1  0.52290000  0.51970000  0.17230000  1
  C  C202  1  0.52320000  0.97870000  0.57270000  1
  C  C203  1  0.53210000  0.44830000  0.28550000  1
  C  C204  1  0.53460000  0.28590000  0.00010000  1
  C  C205  1  0.54340000  0.33910000  0.72750000  1
  C  C206  1  0.54490000  0.12480000  0.58410000  1
  C  C207  1  0.55590000  0.79760000  0.84640000  1
  C  C208  1  0.55830000  0.60200000  0.26850000  1
  C  C209  1  0.56240000  0.26440000  0.78060000  1
  C  C210  1  0.56730000  0.88230000  0.29830000  1
  C  C211  1  0.57390000  0.73850000  0.98400000  1
  C  C212  1  0.58150000  0.81330000  0.92300000  1
  C  C213  1  0.61520000  0.35690000  0.67580000  1
  C  C214  1  0.62480000  0.78670000  0.38560000  1
  C  C215  1  0.64560000  0.20700000  0.76480000  1
  C  C216  1  0.65700000  0.84380000  0.27610000  1
  C  C217  1  0.66780000  0.68710000  0.60860000  1
  C  C218  1  0.66910000  0.22490000  0.36370000  1
  C  C219  1  0.66980000  0.14490000  0.28310000  1
  C  C220  1  0.69970000  0.30100000  0.66140000  1
  C  C221  1  0.71490000  0.22450000  0.70420000  1
  C  C222  1  0.71490000  0.77930000  0.66560000  1
  C  C223  1  0.73090000  0.32010000  0.12590000  1
  C  C224  1  0.74720000  0.38610000  0.86970000  1
  C  C225  1  0.75530000  0.16820000  0.37300000  1
  C  C226  1  0.75700000  0.70970000  0.57470000  1
  C  C227  1  0.76210000  0.50260000  0.76430000  1
  C  C228  1  0.76210000  0.95450000  0.41920000  1
  C  C229  1  0.77140000  0.89940000  0.48640000  1
  C  C230  1  0.77580000  0.32490000  0.18790000  1
  C  C231  1  0.79950000  0.16140000  0.68240000  1
  C  C232  1  0.81970000  0.66690000  0.17200000  1
  C  C233  1  0.82340000  0.60720000  0.05380000  1
  C  C234  1  0.83250000  0.61320000  0.82150000  1
  C  C235  1  0.83680000  0.55690000  0.25410000  1
  C  C236  1  0.83730000  0.53270000  0.18640000  1
  C  C237  1  0.83760000  0.56380000  0.76490000  1
  C  C238  1  0.83830000  0.04850000  0.31290000  1
  C  C239  1  0.84910000  0.98570000  0.38440000  1
  C  C240  1  0.86770000  0.87230000  0.51910000  1
  C  C241  1  0.87800000  0.24270000  0.12160000  1
  C  C242  1  0.88020000  0.81190000  0.59140000  1
  C  C243  1  0.88590000  0.36930000  0.79690000  1
  C  C244  1  0.88680000  0.30320000  0.85190000  1
  C  C245  1  0.90130000  0.66910000  0.81970000  1
  C  C246  1  0.90150000  0.10250000  0.98740000  1
  C  C247  1  0.90230000  0.47490000  0.00790000  1
  C  C248  1  0.91380000  0.57460000  0.71020000  1
  C  C249  1  0.91430000  0.55240000  0.02500000  1
  C  C250  1  0.93420000  0.58830000  0.42660000  1
  C  C251  1  0.94380000  0.95410000  0.41260000  1
  C  C252  1  0.94570000  0.01010000  0.99480000  1
  C  C253  1  0.94770000  0.84690000  0.23930000  1
  C  C254  1  0.94960000  0.25570000  0.24200000  1
  C  C255  1  0.95240000  0.53030000  0.49970000  1
  C  C256  1  0.95360000  0.89540000  0.47630000  1
  C  C257  1  0.96090000  0.12420000  0.76190000  1
  C  C258  1  0.96710000  0.22480000  0.67080000  1
  C  C259  1  0.97710000  0.67960000  0.76310000  1
  C  C260  1  0.98290000  0.63100000  0.70950000  1
  C  C261  1  0.98520000  0.42380000  0.98310000  1
  N  N262  1  0.05730000  0.21680000  0.70340000  1
  N  N263  1  0.09320000  0.82970000  0.29530000  1
  N  N264  1  0.12970000  0.72590000  0.81430000  1
  N  N265  1  0.17390000  0.39650000  0.86460000  1
  N  N266  1  0.17420000  0.35820000  0.75550000  1
  N  N267  1  0.20130000  0.68600000  0.10210000  1
  N  N268  1  0.20280000  0.57930000  0.19080000  1
  N  N269  1  0.20650000  0.73010000  0.91730000  1
  N  N270  1  0.21240000  0.23230000  0.38880000  1
  N  N271  1  0.24030000  0.88220000  0.67700000  1
  N  N272  1  0.30540000  0.21800000  0.66790000  1
  N  N273  1  0.35980000  0.26760000  0.33410000  1
  N  N274  1  0.38450000  0.79240000  0.69400000  1
  N  N275  1  0.45520000  0.15400000  0.62970000  1
  N  N276  1  0.45710000  0.47580000  0.75630000  1
  N  N277  1  0.48610000  0.60350000  0.75270000  1
  N  N278  1  0.51390000  0.39650000  0.24730000  1
  N  N279  1  0.54290000  0.52420000  0.24370000  1
  N  N280  1  0.54480000  0.84600000  0.37030000  1
  N  N281  1  0.61550000  0.20760000  0.30600000  1
  N  N282  1  0.64020000  0.73240000  0.66590000  1
  N  N283  1  0.69460000  0.78200000  0.33210000  1
  N  N284  1  0.75970000  0.11780000  0.32300000  1
  N  N285  1  0.78760000  0.76770000  0.61120000  1
  N  N286  1  0.79350000  0.26990000  0.08270000  1
  N  N287  1  0.79720000  0.42070000  0.80920000  1
  N  N288  1  0.79870000  0.31400000  0.89790000  1
  N  N289  1  0.82580000  0.64180000  0.24450000  1
  N  N290  1  0.82610000  0.60350000  0.13540000  1
  N  N291  1  0.87030000  0.27410000  0.18570000  1
  N  N292  1  0.90680000  0.17030000  0.70470000  1
  N  N293  1  0.94270000  0.78320000  0.29660000  1
  O  O294  1  0.00100000  0.59100000  0.37611000  1
  O  O295  1  0.03900000  0.84340000  0.01750000  1
  O  O296  1  0.15590000  0.36470000  0.57815000  1
  O  O297  1  0.19590000  0.88130000  0.01310000  1
  O  O298  1  0.39290000  0.77560000  0.99940000  1
  O  O299  1  0.44760000  0.14690000  0.20710000  1
  O  O300  1  0.44800000  0.64130000  0.01340000  1
  O  O301  1  0.45900000  0.27390000  0.15980000  1
  O  O302  1  0.54100000  0.72610000  0.84020000  1
  O  O303  1  0.55200000  0.35870000  0.98660000  1
  O  O304  1  0.55240000  0.85310000  0.79290000  1
  O  O305  1  0.60710000  0.22440000  0.00060000  1
  O  O306  1  0.80410000  0.11870000  0.98690000  1
  O  O307  1  0.84410000  0.63530000  0.42185000  1
  O  O308  1  0.96100000  0.15660000  0.98250000  1
  O  O309  1  0.99900000  0.40900000  0.62389000  1
