# generated using pymatgen
data_ZnH12(C3O)6
_symmetry_space_group_name_H-M   'P 1'
_cell_length_a   22.07200000
_cell_length_b   22.07200000
_cell_length_c   22.07200000
_cell_angle_alpha   90.00000000
_cell_angle_beta   90.00000000
_cell_angle_gamma   90.00000000
_symmetry_Int_Tables_number   1
_chemical_formula_structural   ZnH12(C3O)6
_chemical_formula_sum   'Zn12 H144 C216 O72'
_cell_volume   10752.88651725
_cell_formula_units_Z   12
loop_
 _symmetry_equiv_pos_site_id
 _symmetry_equiv_pos_as_xyz
  1  'x, y, z'
loop_
 _atom_site_type_symbol
 _atom_site_label
 _atom_site_symmetry_multiplicity
 _atom_site_fract_x
 _atom_site_fract_y
 _atom_site_fract_z
 _atom_site_occupancy
  Zn  Zn0  1  0.00000000  0.00000000  0.00000000  1
  Zn  Zn1  1  0.00000000  0.50000000  0.50000000  1
  Zn  Zn2  1  0.09254000  0.09254000  0.09254000  1
  Zn  Zn3  1  0.09254000  0.40746000  0.40746000  1
  Zn  Zn4  1  0.40746000  0.09254000  0.40746000  1
  Zn  Zn5  1  0.40746000  0.40746000  0.09254000  1
  Zn  Zn6  1  0.50000000  0.00000000  0.50000000  1
  Zn  Zn7  1  0.50000000  0.50000000  0.00000000  1
  Zn  Zn8  1  0.59254000  0.59254000  0.90746000  1
  Zn  Zn9  1  0.59254000  0.90746000  0.59254000  1
  Zn  Zn10  1  0.90746000  0.59254000  0.59254000  1
  Zn  Zn11  1  0.90746000  0.90746000  0.90746000  1
  H  H12  1  0.00350000  0.03560000  0.25250000  1
  H  H13  1  0.00350000  0.46440000  0.24750000  1
  H  H14  1  0.01010000  0.59820000  0.11720000  1
  H  H15  1  0.01010000  0.90180000  0.38280000  1
  H  H16  1  0.01900000  0.63050000  0.38150000  1
  H  H17  1  0.01900000  0.86950000  0.11850000  1
  H  H18  1  0.03560000  0.24750000  0.49650000  1
  H  H19  1  0.03560000  0.25250000  0.00350000  1
  H  H20  1  0.05390000  0.69380000  0.14550000  1
  H  H21  1  0.05390000  0.80620000  0.35450000  1
  H  H22  1  0.06190000  0.70610000  0.32560000  1
  H  H23  1  0.06190000  0.79390000  0.17440000  1
  H  H24  1  0.07020000  0.60920000  0.07990000  1
  H  H25  1  0.07020000  0.89080000  0.42010000  1
  H  H26  1  0.07990000  0.07020000  0.60920000  1
  H  H27  1  0.07990000  0.42980000  0.89080000  1
  H  H28  1  0.09820000  0.61720000  0.98990000  1
  H  H29  1  0.09820000  0.88280000  0.51010000  1
  H  H30  1  0.10920000  0.57990000  0.92980000  1
  H  H31  1  0.10920000  0.92010000  0.57020000  1
  H  H32  1  0.11720000  0.01010000  0.59820000  1
  H  H33  1  0.11720000  0.48990000  0.90180000  1
  H  H34  1  0.11850000  0.01900000  0.86950000  1
  H  H35  1  0.11850000  0.48100000  0.63050000  1
  H  H36  1  0.13050000  0.61850000  0.51900000  1
  H  H37  1  0.13050000  0.88150000  0.98100000  1
  H  H38  1  0.14550000  0.05390000  0.69380000  1
  H  H39  1  0.14550000  0.44610000  0.80620000  1
  H  H40  1  0.17440000  0.06190000  0.79390000  1
  H  H41  1  0.17440000  0.43810000  0.70610000  1
  H  H42  1  0.19380000  0.64550000  0.94610000  1
  H  H43  1  0.19380000  0.85450000  0.55390000  1
  H  H44  1  0.20610000  0.67440000  0.56190000  1
  H  H45  1  0.20610000  0.82560000  0.93810000  1
  H  H46  1  0.24750000  0.00350000  0.46440000  1
  H  H47  1  0.24750000  0.49650000  0.03560000  1
  H  H48  1  0.25250000  0.00350000  0.03560000  1
  H  H49  1  0.25250000  0.49650000  0.46440000  1
  H  H50  1  0.29390000  0.67440000  0.93810000  1
  H  H51  1  0.29390000  0.82560000  0.56190000  1
  H  H52  1  0.30620000  0.64550000  0.55390000  1
  H  H53  1  0.30620000  0.85450000  0.94610000  1
  H  H54  1  0.32560000  0.06190000  0.70610000  1
  H  H55  1  0.32560000  0.43810000  0.79390000  1
  H  H56  1  0.35450000  0.05390000  0.80620000  1
  H  H57  1  0.35450000  0.44610000  0.69380000  1
  H  H58  1  0.36950000  0.61850000  0.98100000  1
  H  H59  1  0.36950000  0.88150000  0.51900000  1
  H  H60  1  0.38150000  0.01900000  0.63050000  1
  H  H61  1  0.38150000  0.48100000  0.86950000  1
  H  H62  1  0.38280000  0.01010000  0.90180000  1
  H  H63  1  0.38280000  0.48990000  0.59820000  1
  H  H64  1  0.39080000  0.57990000  0.57020000  1
  H  H65  1  0.39080000  0.92010000  0.92980000  1
  H  H66  1  0.40180000  0.61720000  0.51010000  1
  H  H67  1  0.40180000  0.88280000  0.98990000  1
  H  H68  1  0.42010000  0.07020000  0.89080000  1
  H  H69  1  0.42010000  0.42980000  0.60920000  1
  H  H70  1  0.42980000  0.60920000  0.42010000  1
  H  H71  1  0.42980000  0.89080000  0.07990000  1
  H  H72  1  0.43810000  0.70610000  0.17440000  1
  H  H73  1  0.43810000  0.79390000  0.32560000  1
  H  H74  1  0.44610000  0.69380000  0.35450000  1
  H  H75  1  0.44610000  0.80620000  0.14550000  1
  H  H76  1  0.46440000  0.24750000  0.00350000  1
  H  H77  1  0.46440000  0.25250000  0.49650000  1
  H  H78  1  0.48100000  0.63050000  0.11850000  1
  H  H79  1  0.48100000  0.86950000  0.38150000  1
  H  H80  1  0.48990000  0.59820000  0.38280000  1
  H  H81  1  0.48990000  0.90180000  0.11720000  1
  H  H82  1  0.49650000  0.03560000  0.24750000  1
  H  H83  1  0.49650000  0.46440000  0.25250000  1
  H  H84  1  0.50350000  0.53560000  0.74750000  1
  H  H85  1  0.50350000  0.96440000  0.75250000  1
  H  H86  1  0.51010000  0.09820000  0.88280000  1
  H  H87  1  0.51010000  0.40180000  0.61720000  1
  H  H88  1  0.51900000  0.13050000  0.61850000  1
  H  H89  1  0.51900000  0.36950000  0.88150000  1
  H  H90  1  0.53560000  0.74750000  0.50350000  1
  H  H91  1  0.53560000  0.75250000  0.99650000  1
  H  H92  1  0.55390000  0.19380000  0.85450000  1
  H  H93  1  0.55390000  0.30620000  0.64550000  1
  H  H94  1  0.56190000  0.20610000  0.67440000  1
  H  H95  1  0.56190000  0.29390000  0.82560000  1
  H  H96  1  0.57020000  0.10920000  0.92010000  1
  H  H97  1  0.57020000  0.39080000  0.57990000  1
  H  H98  1  0.57990000  0.57020000  0.39080000  1
  H  H99  1  0.57990000  0.92980000  0.10920000  1
  H  H100  1  0.59820000  0.11720000  0.01010000  1
  H  H101  1  0.59820000  0.38280000  0.48990000  1
  H  H102  1  0.60920000  0.07990000  0.07020000  1
  H  H103  1  0.60920000  0.42010000  0.42980000  1
  H  H104  1  0.61720000  0.51010000  0.40180000  1
  H  H105  1  0.61720000  0.98990000  0.09820000  1
  H  H106  1  0.61850000  0.51900000  0.13050000  1
  H  H107  1  0.61850000  0.98100000  0.36950000  1
  H  H108  1  0.63050000  0.11850000  0.48100000  1
  H  H109  1  0.63050000  0.38150000  0.01900000  1
  H  H110  1  0.64550000  0.55390000  0.30620000  1
  H  H111  1  0.64550000  0.94610000  0.19380000  1
  H  H112  1  0.67440000  0.56190000  0.20610000  1
  H  H113  1  0.67440000  0.93810000  0.29390000  1
  H  H114  1  0.69380000  0.14550000  0.05390000  1
  H  H115  1  0.69380000  0.35450000  0.44610000  1
  H  H116  1  0.70610000  0.17440000  0.43810000  1
  H  H117  1  0.70610000  0.32560000  0.06190000  1
  H  H118  1  0.74750000  0.50350000  0.53560000  1
  H  H119  1  0.74750000  0.99650000  0.96440000  1
  H  H120  1  0.75250000  0.50350000  0.96440000  1
  H  H121  1  0.75250000  0.99650000  0.53560000  1
  H  H122  1  0.79390000  0.17440000  0.06190000  1
  H  H123  1  0.79390000  0.32560000  0.43810000  1
  H  H124  1  0.80620000  0.14550000  0.44610000  1
  H  H125  1  0.80620000  0.35450000  0.05390000  1
  H  H126  1  0.82560000  0.56190000  0.29390000  1
  H  H127  1  0.82560000  0.93810000  0.20610000  1
  H  H128  1  0.85450000  0.55390000  0.19380000  1
  H  H129  1  0.85450000  0.94610000  0.30620000  1
  H  H130  1  0.86950000  0.11850000  0.01900000  1
  H  H131  1  0.86950000  0.38150000  0.48100000  1
  H  H132  1  0.88150000  0.51900000  0.36950000  1
  H  H133  1  0.88150000  0.98100000  0.13050000  1
  H  H134  1  0.88280000  0.51010000  0.09820000  1
  H  H135  1  0.88280000  0.98990000  0.40180000  1
  H  H136  1  0.89080000  0.07990000  0.42980000  1
  H  H137  1  0.89080000  0.42010000  0.07020000  1
  H  H138  1  0.90180000  0.11720000  0.48990000  1
  H  H139  1  0.90180000  0.38280000  0.01010000  1
  H  H140  1  0.92010000  0.57020000  0.10920000  1
  H  H141  1  0.92010000  0.92980000  0.39080000  1
  H  H142  1  0.92980000  0.10920000  0.57990000  1
  H  H143  1  0.92980000  0.39080000  0.92010000  1
  H  H144  1  0.93810000  0.20610000  0.82560000  1
  H  H145  1  0.93810000  0.29390000  0.67440000  1
  H  H146  1  0.94610000  0.19380000  0.64550000  1
  H  H147  1  0.94610000  0.30620000  0.85450000  1
  H  H148  1  0.96440000  0.74750000  0.99650000  1
  H  H149  1  0.96440000  0.75250000  0.50350000  1
  H  H150  1  0.98100000  0.13050000  0.88150000  1
  H  H151  1  0.98100000  0.36950000  0.61850000  1
  H  H152  1  0.98990000  0.09820000  0.61720000  1
  H  H153  1  0.98990000  0.40180000  0.88280000  1
  H  H154  1  0.99650000  0.53560000  0.75250000  1
  H  H155  1  0.99650000  0.96440000  0.74750000  1
  C  C156  1  0.00717000  0.70996000  0.06889000  1
  C  C157  1  0.00717000  0.79004000  0.43111000  1
  C  C158  1  0.01154000  0.53662000  0.63546000  1
  C  C159  1  0.01154000  0.96338000  0.86454000  1
  C  C160  1  0.01173000  0.18489000  0.94898000  1
  C  C161  1  0.01173000  0.31511000  0.55102000  1
  C  C162  1  0.01214000  0.54920000  0.03737000  1
  C  C163  1  0.01214000  0.95080000  0.46263000  1
  C  C164  1  0.01652000  0.24335000  0.96709000  1
  C  C165  1  0.01652000  0.25665000  0.53291000  1
  C  C166  1  0.01680000  0.67049000  0.39470000  1
  C  C167  1  0.01680000  0.82951000  0.10530000  1
  C  C168  1  0.02674000  0.60328000  0.07679000  1
  C  C169  1  0.02674000  0.89672000  0.42321000  1
  C  C170  1  0.03291000  0.51652000  0.74335000  1
  C  C171  1  0.03291000  0.98348000  0.75665000  1
  C  C172  1  0.03662000  0.13546000  0.98846000  1
  C  C173  1  0.03662000  0.36454000  0.51154000  1
  C  C174  1  0.03700000  0.72410000  0.12170000  1
  C  C175  1  0.03700000  0.77590000  0.37830000  1
  C  C176  1  0.03737000  0.01214000  0.54920000  1
  C  C177  1  0.03737000  0.48786000  0.95080000  1
  C  C178  1  0.04140000  0.71580000  0.36120000  1
  C  C179  1  0.04140000  0.78420000  0.13880000  1
  C  C180  1  0.04920000  0.53737000  0.98786000  1
  C  C181  1  0.04920000  0.96263000  0.51214000  1
  C  C182  1  0.05102000  0.51173000  0.68489000  1
  C  C183  1  0.05102000  0.98827000  0.81511000  1
  C  C184  1  0.06889000  0.00717000  0.70996000  1
  C  C185  1  0.06889000  0.49283000  0.79004000  1
  C  C186  1  0.07679000  0.02674000  0.60328000  1
  C  C187  1  0.07679000  0.47326000  0.89672000  1
  C  C188  1  0.10328000  0.57679000  0.97326000  1
  C  C189  1  0.10328000  0.92321000  0.52674000  1
  C  C190  1  0.10530000  0.01680000  0.82951000  1
  C  C191  1  0.10530000  0.48320000  0.67049000  1
  C  C192  1  0.12170000  0.03700000  0.72410000  1
  C  C193  1  0.12170000  0.46300000  0.77590000  1
  C  C194  1  0.13546000  0.51154000  0.46338000  1
  C  C195  1  0.13546000  0.98846000  0.03662000  1
  C  C196  1  0.13880000  0.04140000  0.78420000  1
  C  C197  1  0.13880000  0.45860000  0.71580000  1
  C  C198  1  0.17049000  0.60530000  0.51680000  1
  C  C199  1  0.17049000  0.89470000  0.98320000  1
  C  C200  1  0.18489000  0.55102000  0.48827000  1
  C  C201  1  0.18489000  0.94898000  0.01173000  1
  C  C202  1  0.20996000  0.56889000  0.99283000  1
  C  C203  1  0.20996000  0.93111000  0.50717000  1
  C  C204  1  0.21580000  0.63880000  0.54140000  1
  C  C205  1  0.21580000  0.86120000  0.95860000  1
  C  C206  1  0.22410000  0.62170000  0.96300000  1
  C  C207  1  0.22410000  0.87830000  0.53700000  1
  C  C208  1  0.24335000  0.53291000  0.48348000  1
  C  C209  1  0.24335000  0.96709000  0.01652000  1
  C  C210  1  0.25665000  0.53291000  0.01652000  1
  C  C211  1  0.25665000  0.96709000  0.48348000  1
  C  C212  1  0.27590000  0.62170000  0.53700000  1
  C  C213  1  0.27590000  0.87830000  0.96300000  1
  C  C214  1  0.28420000  0.63880000  0.95860000  1
  C  C215  1  0.28420000  0.86120000  0.54140000  1
  C  C216  1  0.29004000  0.56889000  0.50717000  1
  C  C217  1  0.29004000  0.93111000  0.99283000  1
  C  C218  1  0.31511000  0.55102000  0.01173000  1
  C  C219  1  0.31511000  0.94898000  0.48827000  1
  C  C220  1  0.32951000  0.60530000  0.98320000  1
  C  C221  1  0.32951000  0.89470000  0.51680000  1
  C  C222  1  0.36120000  0.04140000  0.71580000  1
  C  C223  1  0.36120000  0.45860000  0.78420000  1
  C  C224  1  0.36454000  0.51154000  0.03662000  1
  C  C225  1  0.36454000  0.98846000  0.46338000  1
  C  C226  1  0.37830000  0.03700000  0.77590000  1
  C  C227  1  0.37830000  0.46300000  0.72410000  1
  C  C228  1  0.39470000  0.01680000  0.67049000  1
  C  C229  1  0.39470000  0.48320000  0.82951000  1
  C  C230  1  0.39672000  0.57679000  0.52674000  1
  C  C231  1  0.39672000  0.92321000  0.97326000  1
  C  C232  1  0.42321000  0.02674000  0.89672000  1
  C  C233  1  0.42321000  0.47326000  0.60328000  1
  C  C234  1  0.43111000  0.00717000  0.79004000  1
  C  C235  1  0.43111000  0.49283000  0.70996000  1
  C  C236  1  0.44898000  0.51173000  0.81511000  1
  C  C237  1  0.44898000  0.98827000  0.68489000  1
  C  C238  1  0.45080000  0.53737000  0.51214000  1
  C  C239  1  0.45080000  0.96263000  0.98786000  1
  C  C240  1  0.45860000  0.71580000  0.13880000  1
  C  C241  1  0.45860000  0.78420000  0.36120000  1
  C  C242  1  0.46263000  0.01214000  0.95080000  1
  C  C243  1  0.46263000  0.48786000  0.54920000  1
  C  C244  1  0.46300000  0.72410000  0.37830000  1
  C  C245  1  0.46300000  0.77590000  0.12170000  1
  C  C246  1  0.46338000  0.13546000  0.51154000  1
  C  C247  1  0.46338000  0.36454000  0.98846000  1
  C  C248  1  0.46709000  0.51652000  0.75665000  1
  C  C249  1  0.46709000  0.98348000  0.74335000  1
  C  C250  1  0.47326000  0.60328000  0.42321000  1
  C  C251  1  0.47326000  0.89672000  0.07679000  1
  C  C252  1  0.48320000  0.67049000  0.10530000  1
  C  C253  1  0.48320000  0.82951000  0.39470000  1
  C  C254  1  0.48348000  0.24335000  0.53291000  1
  C  C255  1  0.48348000  0.25665000  0.96709000  1
  C  C256  1  0.48786000  0.54920000  0.46263000  1
  C  C257  1  0.48786000  0.95080000  0.03737000  1
  C  C258  1  0.48827000  0.18489000  0.55102000  1
  C  C259  1  0.48827000  0.31511000  0.94898000  1
  C  C260  1  0.48846000  0.53662000  0.86454000  1
  C  C261  1  0.48846000  0.96338000  0.63546000  1
  C  C262  1  0.49283000  0.70996000  0.43111000  1
  C  C263  1  0.49283000  0.79004000  0.06889000  1
  C  C264  1  0.50717000  0.20996000  0.93111000  1
  C  C265  1  0.50717000  0.29004000  0.56889000  1
  C  C266  1  0.51154000  0.03662000  0.36454000  1
  C  C267  1  0.51154000  0.46338000  0.13546000  1
  C  C268  1  0.51173000  0.68489000  0.05102000  1
  C  C269  1  0.51173000  0.81511000  0.44898000  1
  C  C270  1  0.51214000  0.04920000  0.96263000  1
  C  C271  1  0.51214000  0.45080000  0.53737000  1
  C  C272  1  0.51652000  0.74335000  0.03291000  1
  C  C273  1  0.51652000  0.75665000  0.46709000  1
  C  C274  1  0.51680000  0.17049000  0.60530000  1
  C  C275  1  0.51680000  0.32951000  0.89470000  1
  C  C276  1  0.52674000  0.10328000  0.92321000  1
  C  C277  1  0.52674000  0.39672000  0.57679000  1
  C  C278  1  0.53291000  0.01652000  0.25665000  1
  C  C279  1  0.53291000  0.48348000  0.24335000  1
  C  C280  1  0.53662000  0.63546000  0.01154000  1
  C  C281  1  0.53662000  0.86454000  0.48846000  1
  C  C282  1  0.53700000  0.22410000  0.87830000  1
  C  C283  1  0.53700000  0.27590000  0.62170000  1
  C  C284  1  0.53737000  0.51214000  0.45080000  1
  C  C285  1  0.53737000  0.98786000  0.04920000  1
  C  C286  1  0.54140000  0.21580000  0.63880000  1
  C  C287  1  0.54140000  0.28420000  0.86120000  1
  C  C288  1  0.54920000  0.03737000  0.01214000  1
  C  C289  1  0.54920000  0.46263000  0.48786000  1
  C  C290  1  0.55102000  0.01173000  0.31511000  1
  C  C291  1  0.55102000  0.48827000  0.18489000  1
  C  C292  1  0.56889000  0.50717000  0.29004000  1
  C  C293  1  0.56889000  0.99283000  0.20996000  1
  C  C294  1  0.57679000  0.52674000  0.39672000  1
  C  C295  1  0.57679000  0.97326000  0.10328000  1
  C  C296  1  0.60328000  0.07679000  0.02674000  1
  C  C297  1  0.60328000  0.42321000  0.47326000  1
  C  C298  1  0.60530000  0.51680000  0.17049000  1
  C  C299  1  0.60530000  0.98320000  0.32951000  1
  C  C300  1  0.62170000  0.53700000  0.27590000  1
  C  C301  1  0.62170000  0.96300000  0.22410000  1
  C  C302  1  0.63546000  0.01154000  0.53662000  1
  C  C303  1  0.63546000  0.48846000  0.96338000  1
  C  C304  1  0.63880000  0.54140000  0.21580000  1
  C  C305  1  0.63880000  0.95860000  0.28420000  1
  C  C306  1  0.67049000  0.10530000  0.48320000  1
  C  C307  1  0.67049000  0.39470000  0.01680000  1
  C  C308  1  0.68489000  0.05102000  0.51173000  1
  C  C309  1  0.68489000  0.44898000  0.98827000  1
  C  C310  1  0.70996000  0.06889000  0.00717000  1
  C  C311  1  0.70996000  0.43111000  0.49283000  1
  C  C312  1  0.71580000  0.13880000  0.45860000  1
  C  C313  1  0.71580000  0.36120000  0.04140000  1
  C  C314  1  0.72410000  0.12170000  0.03700000  1
  C  C315  1  0.72410000  0.37830000  0.46300000  1
  C  C316  1  0.74335000  0.03291000  0.51652000  1
  C  C317  1  0.74335000  0.46709000  0.98348000  1
  C  C318  1  0.75665000  0.03291000  0.98348000  1
  C  C319  1  0.75665000  0.46709000  0.51652000  1
  C  C320  1  0.77590000  0.12170000  0.46300000  1
  C  C321  1  0.77590000  0.37830000  0.03700000  1
  C  C322  1  0.78420000  0.13880000  0.04140000  1
  C  C323  1  0.78420000  0.36120000  0.45860000  1
  C  C324  1  0.79004000  0.06889000  0.49283000  1
  C  C325  1  0.79004000  0.43111000  0.00717000  1
  C  C326  1  0.81511000  0.05102000  0.98827000  1
  C  C327  1  0.81511000  0.44898000  0.51173000  1
  C  C328  1  0.82951000  0.10530000  0.01680000  1
  C  C329  1  0.82951000  0.39470000  0.48320000  1
  C  C330  1  0.86120000  0.54140000  0.28420000  1
  C  C331  1  0.86120000  0.95860000  0.21580000  1
  C  C332  1  0.86454000  0.01154000  0.96338000  1
  C  C333  1  0.86454000  0.48846000  0.53662000  1
  C  C334  1  0.87830000  0.53700000  0.22410000  1
  C  C335  1  0.87830000  0.96300000  0.27590000  1
  C  C336  1  0.89470000  0.51680000  0.32951000  1
  C  C337  1  0.89470000  0.98320000  0.17049000  1
  C  C338  1  0.89672000  0.07679000  0.47326000  1
  C  C339  1  0.89672000  0.42321000  0.02674000  1
  C  C340  1  0.92321000  0.52674000  0.10328000  1
  C  C341  1  0.92321000  0.97326000  0.39672000  1
  C  C342  1  0.93111000  0.50717000  0.20996000  1
  C  C343  1  0.93111000  0.99283000  0.29004000  1
  C  C344  1  0.94898000  0.01173000  0.18489000  1
  C  C345  1  0.94898000  0.48827000  0.31511000  1
  C  C346  1  0.95080000  0.03737000  0.48786000  1
  C  C347  1  0.95080000  0.46263000  0.01214000  1
  C  C348  1  0.95860000  0.21580000  0.86120000  1
  C  C349  1  0.95860000  0.28420000  0.63880000  1
  C  C350  1  0.96263000  0.51214000  0.04920000  1
  C  C351  1  0.96263000  0.98786000  0.45080000  1
  C  C352  1  0.96300000  0.22410000  0.62170000  1
  C  C353  1  0.96300000  0.27590000  0.87830000  1
  C  C354  1  0.96338000  0.63546000  0.48846000  1
  C  C355  1  0.96338000  0.86454000  0.01154000  1
  C  C356  1  0.96709000  0.01652000  0.24335000  1
  C  C357  1  0.96709000  0.48348000  0.25665000  1
  C  C358  1  0.97326000  0.10328000  0.57679000  1
  C  C359  1  0.97326000  0.39672000  0.92321000  1
  C  C360  1  0.98320000  0.17049000  0.89470000  1
  C  C361  1  0.98320000  0.32951000  0.60530000  1
  C  C362  1  0.98348000  0.74335000  0.46709000  1
  C  C363  1  0.98348000  0.75665000  0.03291000  1
  C  C364  1  0.98786000  0.04920000  0.53737000  1
  C  C365  1  0.98786000  0.45080000  0.96263000  1
  C  C366  1  0.98827000  0.68489000  0.44898000  1
  C  C367  1  0.98827000  0.81511000  0.05102000  1
  C  C368  1  0.98846000  0.03662000  0.13546000  1
  C  C369  1  0.98846000  0.46338000  0.36454000  1
  C  C370  1  0.99283000  0.20996000  0.56889000  1
  C  C371  1  0.99283000  0.29004000  0.93111000  1
  O  O372  1  0.00140000  0.15340000  0.54622000  1
  O  O373  1  0.00140000  0.34660000  0.95378000  1
  O  O374  1  0.02945000  0.53458000  0.58245000  1
  O  O375  1  0.02945000  0.96542000  0.91755000  1
  O  O376  1  0.03458000  0.08245000  0.97055000  1
  O  O377  1  0.03458000  0.41755000  0.52945000  1
  O  O378  1  0.03876000  0.05924000  0.15230000  1
  O  O379  1  0.03876000  0.44076000  0.34770000  1
  O  O380  1  0.04622000  0.50140000  0.84660000  1
  O  O381  1  0.04622000  0.99860000  0.65340000  1
  O  O382  1  0.05924000  0.15230000  0.03876000  1
  O  O383  1  0.05924000  0.34770000  0.46124000  1
  O  O384  1  0.08245000  0.52945000  0.46542000  1
  O  O385  1  0.08245000  0.97055000  0.03458000  1
  O  O386  1  0.15230000  0.03876000  0.05924000  1
  O  O387  1  0.15230000  0.46124000  0.44076000  1
  O  O388  1  0.15340000  0.54622000  0.00140000  1
  O  O389  1  0.15340000  0.95378000  0.49860000  1
  O  O390  1  0.34660000  0.54622000  0.49860000  1
  O  O391  1  0.34660000  0.95378000  0.00140000  1
  O  O392  1  0.34770000  0.03876000  0.44076000  1
  O  O393  1  0.34770000  0.46124000  0.05924000  1
  O  O394  1  0.41755000  0.52945000  0.03458000  1
  O  O395  1  0.41755000  0.97055000  0.46542000  1
  O  O396  1  0.44076000  0.15230000  0.46124000  1
  O  O397  1  0.44076000  0.34770000  0.03876000  1
  O  O398  1  0.45378000  0.50140000  0.65340000  1
  O  O399  1  0.45378000  0.99860000  0.84660000  1
  O  O400  1  0.46124000  0.05924000  0.34770000  1
  O  O401  1  0.46124000  0.44076000  0.15230000  1
  O  O402  1  0.46542000  0.08245000  0.52945000  1
  O  O403  1  0.46542000  0.41755000  0.97055000  1
  O  O404  1  0.47055000  0.53458000  0.91755000  1
  O  O405  1  0.47055000  0.96542000  0.58245000  1
  O  O406  1  0.49860000  0.15340000  0.95378000  1
  O  O407  1  0.49860000  0.34660000  0.54622000  1
  O  O408  1  0.50140000  0.65340000  0.45378000  1
  O  O409  1  0.50140000  0.84660000  0.04622000  1
  O  O410  1  0.52945000  0.03458000  0.41755000  1
  O  O411  1  0.52945000  0.46542000  0.08245000  1
  O  O412  1  0.53458000  0.58245000  0.02945000  1
  O  O413  1  0.53458000  0.91755000  0.47055000  1
  O  O414  1  0.53876000  0.55924000  0.84770000  1
  O  O415  1  0.53876000  0.94076000  0.65230000  1
  O  O416  1  0.54622000  0.00140000  0.15340000  1
  O  O417  1  0.54622000  0.49860000  0.34660000  1
  O  O418  1  0.55924000  0.65230000  0.96124000  1
  O  O419  1  0.55924000  0.84770000  0.53876000  1
  O  O420  1  0.58245000  0.02945000  0.53458000  1
  O  O421  1  0.58245000  0.47055000  0.96542000  1
  O  O422  1  0.65230000  0.53876000  0.94076000  1
  O  O423  1  0.65230000  0.96124000  0.55924000  1
  O  O424  1  0.65340000  0.04622000  0.99860000  1
  O  O425  1  0.65340000  0.45378000  0.50140000  1
  O  O426  1  0.84660000  0.04622000  0.50140000  1
  O  O427  1  0.84660000  0.45378000  0.99860000  1
  O  O428  1  0.84770000  0.53876000  0.55924000  1
  O  O429  1  0.84770000  0.96124000  0.94076000  1
  O  O430  1  0.91755000  0.02945000  0.96542000  1
  O  O431  1  0.91755000  0.47055000  0.53458000  1
  O  O432  1  0.94076000  0.65230000  0.53876000  1
  O  O433  1  0.94076000  0.84770000  0.96124000  1
  O  O434  1  0.95378000  0.00140000  0.34660000  1
  O  O435  1  0.95378000  0.49860000  0.15340000  1
  O  O436  1  0.96124000  0.55924000  0.65230000  1
  O  O437  1  0.96124000  0.94076000  0.84770000  1
  O  O438  1  0.96542000  0.58245000  0.47055000  1
  O  O439  1  0.96542000  0.91755000  0.02945000  1
  O  O440  1  0.97055000  0.03458000  0.08245000  1
  O  O441  1  0.97055000  0.46542000  0.41755000  1
  O  O442  1  0.99860000  0.65340000  0.04622000  1
  O  O443  1  0.99860000  0.84660000  0.45378000  1
