# generated using pymatgen
data_TbH12C12(NO3)3
_symmetry_space_group_name_H-M   'P 1'
_cell_length_a   7.94180000
_cell_length_b   12.08700000
_cell_length_c   13.35800000
_cell_angle_alpha   112.10100000
_cell_angle_beta   105.05100000
_cell_angle_gamma   91.19700000
_symmetry_Int_Tables_number   1
_chemical_formula_structural   TbH12C12(NO3)3
_chemical_formula_sum   'Tb2 H24 C24 N6 O18'
_cell_volume   1137.17153888
_cell_formula_units_Z   2
loop_
 _symmetry_equiv_pos_site_id
 _symmetry_equiv_pos_as_xyz
  1  'x, y, z'
loop_
 _atom_site_type_symbol
 _atom_site_label
 _atom_site_symmetry_multiplicity
 _atom_site_fract_x
 _atom_site_fract_y
 _atom_site_fract_z
 _atom_site_occupancy
  Tb  Tb0  1  0.24936000  0.98099000  0.01070000  1
  Tb  Tb1  1  0.75064000  0.01901000  0.98930000  1
  H  H2  1  0.00540000  0.61030000  0.65750000  1
  H  H3  1  0.05550000  0.75730000  0.14720000  1
  H  H4  1  0.08520000  0.10680000  0.67560000  1
  H  H5  1  0.11670000  0.60030000  0.76890000  1
  H  H6  1  0.14760000  0.40800000  0.18080000  1
  H  H7  1  0.15070000  0.87930000  0.24630000  1
  H  H8  1  0.18950000  0.22410000  0.77750000  1
  H  H9  1  0.20890000  0.89090000  0.68590000  1
  H  H10  1  0.24310000  0.77500000  0.71060000  1
  H  H11  1  0.24570000  0.38280000  0.28620000  1
  H  H12  1  0.42370000  0.84790000  0.58620000  1
  H  H13  1  0.43150000  0.72550000  0.60120000  1
  H  H14  1  0.56850000  0.27450000  0.39880000  1
  H  H15  1  0.57630000  0.15210000  0.41380000  1
  H  H16  1  0.75430000  0.61720000  0.71380000  1
  H  H17  1  0.75690000  0.22500000  0.28940000  1
  H  H18  1  0.79110000  0.10910000  0.31410000  1
  H  H19  1  0.81050000  0.77590000  0.22250000  1
  H  H20  1  0.84930000  0.12070000  0.75370000  1
  H  H21  1  0.85240000  0.59200000  0.81920000  1
  H  H22  1  0.88330000  0.39970000  0.23110000  1
  H  H23  1  0.91480000  0.89320000  0.32440000  1
  H  H24  1  0.94450000  0.24270000  0.85280000  1
  H  H25  1  0.99460000  0.38970000  0.34250000  1
  C  C26  1  0.00170000  0.57860000  0.71380000  1
  C  C27  1  0.03220000  0.38240000  0.72260000  1
  C  C28  1  0.03660000  0.83490000  0.19790000  1
  C  C29  1  0.05290000  0.09720000  0.86980000  1
  C  C30  1  0.07280000  0.18430000  0.72970000  1
  C  C31  1  0.09520000  0.23380000  0.15850000  1
  C  C32  1  0.13400000  0.36710000  0.22890000  1
  C  C33  1  0.13650000  0.80090000  0.43440000  1
  C  C34  1  0.16180000  0.60250000  0.44430000  1
  C  C35  1  0.29680000  0.83880000  0.69700000  1
  C  C36  1  0.35500000  0.78490000  0.59280000  1
  C  C37  1  0.44780000  0.90960000  0.79710000  1
  C  C38  1  0.55220000  0.09040000  0.20290000  1
  C  C39  1  0.64500000  0.21510000  0.40720000  1
  C  C40  1  0.70320000  0.16120000  0.30300000  1
  C  C41  1  0.83820000  0.39750000  0.55570000  1
  C  C42  1  0.86350000  0.19910000  0.56560000  1
  C  C43  1  0.86600000  0.63290000  0.77110000  1
  C  C44  1  0.90480000  0.76620000  0.84150000  1
  C  C45  1  0.92720000  0.81570000  0.27030000  1
  C  C46  1  0.94710000  0.90280000  0.13020000  1
  C  C47  1  0.96340000  0.16510000  0.80210000  1
  C  C48  1  0.96780000  0.61760000  0.27740000  1
  C  C49  1  0.99830000  0.42140000  0.28620000  1
  N  N50  1  0.01110000  0.74190000  0.33100000  1
  N  N51  1  0.04060000  0.55300000  0.34050000  1
  N  N52  1  0.21040000  0.72710000  0.48750000  1
  N  N53  1  0.78960000  0.27290000  0.51250000  1
  N  N54  1  0.95940000  0.44700000  0.65950000  1
  N  N55  1  0.98890000  0.25810000  0.66900000  1
  O  O56  1  0.03520000  0.94740000  0.08550000  1
  O  O57  1  0.05850000  0.81530000  0.85980000  1
  O  O58  1  0.13040000  0.42950000  0.81530000  1
  O  O59  1  0.17780000  0.90830000  0.47540000  1
  O  O60  1  0.21320000  0.08490000  0.88090000  1
  O  O61  1  0.21460000  0.18370000  0.12060000  1
  O  O62  1  0.22640000  0.54320000  0.49630000  1
  O  O63  1  0.42410000  0.04120000  0.21400000  1
  O  O64  1  0.44470000  0.91400000  0.89430000  1
  O  O65  1  0.55530000  0.08600000  0.10570000  1
  O  O66  1  0.57590000  0.95880000  0.78600000  1
  O  O67  1  0.77360000  0.45680000  0.50370000  1
  O  O68  1  0.78540000  0.81630000  0.87940000  1
  O  O69  1  0.78680000  0.91510000  0.11910000  1
  O  O70  1  0.82220000  0.09170000  0.52460000  1
  O  O71  1  0.86960000  0.57050000  0.18470000  1
  O  O72  1  0.94150000  0.18470000  0.14020000  1
  O  O73  1  0.96480000  0.05260000  0.91450000  1
