# generated using pymatgen
data_CdH36(C4N)12
_symmetry_space_group_name_H-M   'P 1'
_cell_length_a   15.87920000
_cell_length_b   15.87920000
_cell_length_c   21.59400000
_cell_angle_alpha   90.00000000
_cell_angle_beta   90.00000000
_cell_angle_gamma   90.00000000
_symmetry_Int_Tables_number   1
_chemical_formula_structural   CdH36(C4N)12
_chemical_formula_sum   'Cd4 H144 C192 N48'
_cell_volume   5444.90534707
_cell_formula_units_Z   4
loop_
 _symmetry_equiv_pos_site_id
 _symmetry_equiv_pos_as_xyz
  1  'x, y, z'
loop_
 _atom_site_type_symbol
 _atom_site_label
 _atom_site_symmetry_multiplicity
 _atom_site_fract_x
 _atom_site_fract_y
 _atom_site_fract_z
 _atom_site_occupancy
  Cd  Cd0  1  0.05839000  0.94161000  0.25000000  1
  Cd  Cd1  1  0.44161000  0.44161000  0.00000000  1
  Cd  Cd2  1  0.55839000  0.55839000  0.50000000  1
  Cd  Cd3  1  0.94161000  0.05839000  0.75000000  1
  H  H4  1  0.00610000  0.79710000  0.79080000  1
  H  H5  1  0.01150000  0.23460000  0.82480000  1
  H  H6  1  0.02820000  0.74470000  0.60860000  1
  H  H7  1  0.03320000  0.66200000  0.03440000  1
  H  H8  1  0.04250000  0.89000000  0.40210000  1
  H  H9  1  0.04800000  0.12400000  0.46010000  1
  H  H10  1  0.05880000  0.15960000  0.65740000  1
  H  H11  1  0.06550000  0.23480000  0.52760000  1
  H  H12  1  0.08620000  0.29890000  0.33370000  1
  H  H13  1  0.08680000  0.78560000  0.46590000  1
  H  H14  1  0.10220000  0.34620000  0.81460000  1
  H  H15  1  0.10450000  0.74160000  0.64530000  1
  H  H16  1  0.11000000  0.95750000  0.09790000  1
  H  H17  1  0.12400000  0.04800000  0.53990000  1
  H  H18  1  0.13890000  0.19720000  0.13760000  1
  H  H19  1  0.14170000  0.77050000  0.20960000  1
  H  H20  1  0.15060000  0.26860000  0.64260000  1
  H  H21  1  0.15380000  0.60220000  0.06460000  1
  H  H22  1  0.15400000  0.70050000  0.52950000  1
  H  H23  1  0.15960000  0.05880000  0.34260000  1
  H  H24  1  0.16200000  0.46680000  0.78440000  1
  H  H25  1  0.17380000  0.77490000  0.90730000  1
  H  H26  1  0.19720000  0.13890000  0.86240000  1
  H  H27  1  0.20050000  0.34600000  0.27950000  1
  H  H28  1  0.20110000  0.58620000  0.58370000  1
  H  H29  1  0.20290000  0.99390000  0.70920000  1
  H  H30  1  0.21400000  0.25840000  0.89690000  1
  H  H31  1  0.21440000  0.91320000  0.03410000  1
  H  H32  1  0.22510000  0.82620000  0.59270000  1
  H  H33  1  0.22950000  0.85830000  0.29040000  1
  H  H34  1  0.23140000  0.65060000  0.89260000  1
  H  H35  1  0.23460000  0.01150000  0.17520000  1
  H  H36  1  0.23480000  0.06550000  0.47240000  1
  H  H37  1  0.24160000  0.39550000  0.39530000  1
  H  H38  1  0.24160000  0.71400000  0.14690000  1
  H  H39  1  0.24470000  0.47180000  0.35860000  1
  H  H40  1  0.25530000  0.97180000  0.89140000  1
  H  H41  1  0.25840000  0.21400000  0.10310000  1
  H  H42  1  0.25840000  0.89550000  0.85470000  1
  H  H43  1  0.26520000  0.56550000  0.77760000  1
  H  H44  1  0.26540000  0.51150000  0.07480000  1
  H  H45  1  0.26860000  0.15060000  0.35740000  1
  H  H46  1  0.27050000  0.35830000  0.95960000  1
  H  H47  1  0.27490000  0.32620000  0.65730000  1
  H  H48  1  0.28560000  0.41320000  0.21590000  1
  H  H49  1  0.28600000  0.75840000  0.35310000  1
  H  H50  1  0.29710000  0.49390000  0.54080000  1
  H  H51  1  0.29890000  0.08620000  0.66630000  1
  H  H52  1  0.29950000  0.84600000  0.97050000  1
  H  H53  1  0.30280000  0.63890000  0.38760000  1
  H  H54  1  0.32620000  0.27490000  0.34270000  1
  H  H55  1  0.33800000  0.96680000  0.46560000  1
  H  H56  1  0.34040000  0.55880000  0.90740000  1
  H  H57  1  0.34600000  0.20050000  0.72050000  1
  H  H58  1  0.34620000  0.10220000  0.18540000  1
  H  H59  1  0.34940000  0.76860000  0.60740000  1
  H  H60  1  0.35830000  0.27050000  0.04040000  1
  H  H61  1  0.36110000  0.69720000  0.11240000  1
  H  H62  1  0.37600000  0.54800000  0.71010000  1
  H  H63  1  0.39000000  0.45750000  0.15210000  1
  H  H64  1  0.39550000  0.24160000  0.60470000  1
  H  H65  1  0.39780000  0.84620000  0.43540000  1
  H  H66  1  0.41320000  0.28560000  0.78410000  1
  H  H67  1  0.41380000  0.79890000  0.91630000  1
  H  H68  1  0.43450000  0.73480000  0.72240000  1
  H  H69  1  0.44120000  0.65960000  0.59260000  1
  H  H70  1  0.45200000  0.62400000  0.78990000  1
  H  H71  1  0.45750000  0.39000000  0.84790000  1
  H  H72  1  0.46680000  0.16200000  0.21560000  1
  H  H73  1  0.47180000  0.24470000  0.64140000  1
  H  H74  1  0.48850000  0.73460000  0.42520000  1
  H  H75  1  0.49390000  0.29710000  0.45920000  1
  H  H76  1  0.50610000  0.70290000  0.95920000  1
  H  H77  1  0.51150000  0.26540000  0.92520000  1
  H  H78  1  0.52820000  0.75530000  0.14140000  1
  H  H79  1  0.53320000  0.83800000  0.71560000  1
  H  H80  1  0.54250000  0.61000000  0.34790000  1
  H  H81  1  0.54800000  0.37600000  0.28990000  1
  H  H82  1  0.55880000  0.34040000  0.09260000  1
  H  H83  1  0.56550000  0.26520000  0.22240000  1
  H  H84  1  0.58620000  0.20110000  0.41630000  1
  H  H85  1  0.58680000  0.71440000  0.28410000  1
  H  H86  1  0.60220000  0.15380000  0.93540000  1
  H  H87  1  0.60450000  0.75840000  0.10470000  1
  H  H88  1  0.61000000  0.54250000  0.65210000  1
  H  H89  1  0.62400000  0.45200000  0.21010000  1
  H  H90  1  0.63890000  0.30280000  0.61240000  1
  H  H91  1  0.64170000  0.72950000  0.54040000  1
  H  H92  1  0.65060000  0.23140000  0.10740000  1
  H  H93  1  0.65380000  0.89780000  0.68540000  1
  H  H94  1  0.65400000  0.79950000  0.22050000  1
  H  H95  1  0.65960000  0.44120000  0.40740000  1
  H  H96  1  0.66200000  0.03320000  0.96560000  1
  H  H97  1  0.67380000  0.72510000  0.84270000  1
  H  H98  1  0.69720000  0.36110000  0.88760000  1
  H  H99  1  0.70050000  0.15400000  0.47050000  1
  H  H100  1  0.70110000  0.91380000  0.16630000  1
  H  H101  1  0.70290000  0.50610000  0.04080000  1
  H  H102  1  0.71400000  0.24160000  0.85310000  1
  H  H103  1  0.71440000  0.58680000  0.71590000  1
  H  H104  1  0.72510000  0.67380000  0.15730000  1
  H  H105  1  0.72950000  0.64170000  0.45960000  1
  H  H106  1  0.73140000  0.84940000  0.85740000  1
  H  H107  1  0.73460000  0.48850000  0.57480000  1
  H  H108  1  0.73480000  0.43450000  0.27760000  1
  H  H109  1  0.74160000  0.10450000  0.35470000  1
  H  H110  1  0.74160000  0.78600000  0.60310000  1
  H  H111  1  0.74470000  0.02820000  0.39140000  1
  H  H112  1  0.75530000  0.52820000  0.85860000  1
  H  H113  1  0.75840000  0.28600000  0.64690000  1
  H  H114  1  0.75840000  0.60450000  0.89530000  1
  H  H115  1  0.76520000  0.93450000  0.97240000  1
  H  H116  1  0.76540000  0.98850000  0.67520000  1
  H  H117  1  0.76860000  0.34940000  0.39260000  1
  H  H118  1  0.77050000  0.14170000  0.79040000  1
  H  H119  1  0.77490000  0.17380000  0.09270000  1
  H  H120  1  0.78560000  0.08680000  0.53410000  1
  H  H121  1  0.78600000  0.74160000  0.39690000  1
  H  H122  1  0.79710000  0.00610000  0.20920000  1
  H  H123  1  0.79890000  0.41380000  0.08370000  1
  H  H124  1  0.79950000  0.65400000  0.77950000  1
  H  H125  1  0.80280000  0.86110000  0.36240000  1
  H  H126  1  0.82620000  0.22510000  0.40730000  1
  H  H127  1  0.83800000  0.53320000  0.28440000  1
  H  H128  1  0.84040000  0.94120000  0.84260000  1
  H  H129  1  0.84600000  0.29950000  0.02950000  1
  H  H130  1  0.84620000  0.39780000  0.56460000  1
  H  H131  1  0.84940000  0.73140000  0.14260000  1
  H  H132  1  0.85830000  0.22950000  0.70960000  1
  H  H133  1  0.86110000  0.80280000  0.63760000  1
  H  H134  1  0.87600000  0.95200000  0.03990000  1
  H  H135  1  0.89000000  0.04250000  0.59790000  1
  H  H136  1  0.89550000  0.25840000  0.14530000  1
  H  H137  1  0.89780000  0.65380000  0.31460000  1
  H  H138  1  0.91320000  0.21440000  0.96590000  1
  H  H139  1  0.91380000  0.70110000  0.83370000  1
  H  H140  1  0.93450000  0.76520000  0.02760000  1
  H  H141  1  0.94120000  0.84040000  0.15740000  1
  H  H142  1  0.95200000  0.87600000  0.96010000  1
  H  H143  1  0.95750000  0.11000000  0.90210000  1
  H  H144  1  0.96680000  0.33800000  0.53440000  1
  H  H145  1  0.97180000  0.25530000  0.10860000  1
  H  H146  1  0.98850000  0.76540000  0.32480000  1
  H  H147  1  0.99390000  0.20290000  0.29080000  1
  C  C148  1  0.00380000  0.12520000  0.17930000  1
  C  C149  1  0.00710000  0.16570000  0.46330000  1
  C  C150  1  0.01750000  0.23200000  0.50300000  1
  C  C151  1  0.04010000  0.24160000  0.78750000  1
  C  C152  1  0.04140000  0.22050000  0.26910000  1
  C  C153  1  0.04150000  0.70620000  0.00680000  1
  C  C154  1  0.05930000  0.18830000  0.20990000  1
  C  C155  1  0.06640000  0.83830000  0.92750000  1
  C  C156  1  0.06760000  0.19750000  0.68960000  1
  C  C157  1  0.07510000  0.90780000  0.88300000  1
  C  C158  1  0.09020000  0.85980000  0.39060000  1
  C  C159  1  0.09220000  0.92490000  0.61700000  1
  C  C160  1  0.09570000  0.30840000  0.78210000  1
  C  C161  1  0.09590000  0.27850000  0.29400000  1
  C  C162  1  0.11340000  0.70710000  0.97100000  1
  C  C163  1  0.11680000  0.79810000  0.43010000  1
  C  C164  1  0.12420000  0.26260000  0.68080000  1
  C  C165  1  0.12520000  0.00380000  0.82070000  1
  C  C166  1  0.12560000  0.77310000  0.93170000  1
  C  C167  1  0.12810000  0.21810000  0.17700000  1
  C  C168  1  0.14020000  0.90980000  0.10940000  1
  C  C169  1  0.14210000  0.31910000  0.72780000  1
  C  C170  1  0.15770000  0.80000000  0.17430000  1
  C  C171  1  0.16170000  0.93360000  0.57250000  1
  C  C172  1  0.16460000  0.30690000  0.26130000  1
  C  C173  1  0.16570000  0.00710000  0.53670000  1
  C  C174  1  0.18090000  0.64210000  0.97780000  1
  C  C175  1  0.18130000  0.27870000  0.20230000  1
  C  C176  1  0.18830000  0.05930000  0.79010000  1
  C  C177  1  0.19160000  0.59570000  0.03210000  1
  C  C178  1  0.19190000  0.75340000  0.41500000  1
  C  C179  1  0.19310000  0.66460000  0.51130000  1
  C  C180  1  0.19750000  0.06760000  0.31040000  1
  C  C181  1  0.20000000  0.84230000  0.32570000  1
  C  C182  1  0.20190000  0.88320000  0.06990000  1
  C  C183  1  0.20620000  0.45850000  0.75680000  1
  C  C184  1  0.20710000  0.38660000  0.72100000  1
  C  C185  1  0.21810000  0.12810000  0.82300000  1
  C  C186  1  0.21860000  0.76620000  0.13700000  1
  C  C187  1  0.22050000  0.04140000  0.73090000  1
  C  C188  1  0.22130000  0.68130000  0.45230000  1
  C  C189  1  0.22150000  0.59590000  0.54400000  1
  C  C190  1  0.22690000  0.87440000  0.56830000  1
  C  C191  1  0.23200000  0.01750000  0.49700000  1
  C  C192  1  0.23380000  0.78140000  0.36300000  1
  C  C193  1  0.23740000  0.62420000  0.93080000  1
  C  C194  1  0.24160000  0.04010000  0.21250000  1
  C  C195  1  0.24660000  0.80810000  0.08500000  1
  C  C196  1  0.25340000  0.30810000  0.16500000  1
  C  C197  1  0.25840000  0.54010000  0.03750000  1
  C  C198  1  0.26260000  0.12420000  0.31920000  1
  C  C199  1  0.26620000  0.28140000  0.88700000  1
  C  C200  1  0.26800000  0.51750000  0.75300000  1
  C  C201  1  0.27310000  0.37440000  0.68170000  1
  C  C202  1  0.27850000  0.09590000  0.70600000  1
  C  C203  1  0.27870000  0.18130000  0.79770000  1
  C  C204  1  0.27950000  0.54140000  0.51910000  1
  C  C205  1  0.28140000  0.26620000  0.11300000  1
  C  C206  1  0.28190000  0.62810000  0.42700000  1
  C  C207  1  0.29290000  0.88660000  0.52900000  1
  C  C208  1  0.29380000  0.95850000  0.49320000  1
  C  C209  1  0.29810000  0.38320000  0.18010000  1
  C  C210  1  0.30000000  0.34230000  0.92430000  1
  C  C211  1  0.30250000  0.56760000  0.93960000  1
  C  C212  1  0.30690000  0.16460000  0.73870000  1
  C  C213  1  0.30810000  0.25340000  0.83500000  1
  C  C214  1  0.30840000  0.09570000  0.21790000  1
  C  C215  1  0.31170000  0.55930000  0.45990000  1
  C  C216  1  0.31870000  0.77870000  0.04770000  1
  C  C217  1  0.31910000  0.14210000  0.27220000  1
  C  C218  1  0.33430000  0.50710000  0.71330000  1
  C  C219  1  0.33540000  0.80690000  0.98870000  1
  C  C220  1  0.33830000  0.43360000  0.67750000  1
  C  C221  1  0.34230000  0.30000000  0.07570000  1
  C  C222  1  0.35790000  0.81910000  0.52220000  1
  C  C223  1  0.35980000  0.40980000  0.14060000  1
  C  C224  1  0.37190000  0.71810000  0.07300000  1
  C  C225  1  0.37440000  0.27310000  0.31830000  1
  C  C226  1  0.37480000  0.50380000  0.42930000  1
  C  C227  1  0.37580000  0.76260000  0.56920000  1
  C  C228  1  0.38320000  0.29810000  0.81990000  1
  C  C229  1  0.38660000  0.20710000  0.27900000  1
  C  C230  1  0.40410000  0.77850000  0.95600000  1
  C  C231  1  0.40430000  0.80840000  0.46790000  1
  C  C232  1  0.40780000  0.42490000  0.63300000  1
  C  C233  1  0.40980000  0.35980000  0.85940000  1
  C  C234  1  0.42490000  0.40780000  0.36700000  1
  C  C235  1  0.43240000  0.69750000  0.56040000  1
  C  C236  1  0.43360000  0.33830000  0.32250000  1
  C  C237  1  0.44070000  0.68830000  0.04010000  1
  C  C238  1  0.45850000  0.20620000  0.24320000  1
  C  C239  1  0.45860000  0.72050000  0.98090000  1
  C  C240  1  0.45990000  0.74160000  0.46250000  1
  C  C241  1  0.48250000  0.73200000  0.74700000  1
  C  C242  1  0.49290000  0.66570000  0.78670000  1
  C  C243  1  0.49620000  0.62520000  0.07070000  1
  C  C244  1  0.50380000  0.37480000  0.57070000  1
  C  C245  1  0.50710000  0.33430000  0.28670000  1
  C  C246  1  0.51750000  0.26800000  0.24700000  1
  C  C247  1  0.54010000  0.25840000  0.96250000  1
  C  C248  1  0.54140000  0.27950000  0.48090000  1
  C  C249  1  0.54150000  0.79380000  0.74320000  1
  C  C250  1  0.55930000  0.31170000  0.54010000  1
  C  C251  1  0.56640000  0.66170000  0.82250000  1
  C  C252  1  0.56760000  0.30250000  0.06040000  1
  C  C253  1  0.57510000  0.59220000  0.86700000  1
  C  C254  1  0.59020000  0.64020000  0.35940000  1
  C  C255  1  0.59220000  0.57510000  0.13300000  1
  C  C256  1  0.59570000  0.19160000  0.96790000  1
  C  C257  1  0.59590000  0.22150000  0.45600000  1
  C  C258  1  0.61340000  0.79290000  0.77900000  1
  C  C259  1  0.61680000  0.70190000  0.31990000  1
  C  C260  1  0.62420000  0.23740000  0.06920000  1
  C  C261  1  0.62520000  0.49620000  0.92930000  1
  C  C262  1  0.62560000  0.72690000  0.81830000  1
  C  C263  1  0.62810000  0.28190000  0.57300000  1
  C  C264  1  0.64020000  0.59020000  0.64060000  1
  C  C265  1  0.64210000  0.18090000  0.02220000  1
  C  C266  1  0.65770000  0.70000000  0.57570000  1
  C  C267  1  0.66170000  0.56640000  0.17750000  1
  C  C268  1  0.66460000  0.19310000  0.48870000  1
  C  C269  1  0.66570000  0.49290000  0.21330000  1
  C  C270  1  0.68090000  0.85790000  0.77220000  1
  C  C271  1  0.68130000  0.22130000  0.54770000  1
  C  C272  1  0.68830000  0.44070000  0.95990000  1
  C  C273  1  0.69160000  0.90430000  0.71790000  1
  C  C274  1  0.69190000  0.74660000  0.33500000  1
  C  C275  1  0.69310000  0.83540000  0.23870000  1
  C  C276  1  0.69750000  0.43240000  0.43960000  1
  C  C277  1  0.70000000  0.65770000  0.42430000  1
  C  C278  1  0.70190000  0.61680000  0.68010000  1
  C  C279  1  0.70620000  0.04150000  0.99320000  1
  C  C280  1  0.70710000  0.11340000  0.02900000  1
  C  C281  1  0.71810000  0.37190000  0.92700000  1
  C  C282  1  0.71860000  0.73380000  0.61300000  1
  C  C283  1  0.72050000  0.45860000  0.01910000  1
  C  C284  1  0.72130000  0.81870000  0.29770000  1
  C  C285  1  0.72150000  0.90410000  0.20600000  1
  C  C286  1  0.72690000  0.62560000  0.18170000  1
  C  C287  1  0.73200000  0.48250000  0.25300000  1
  C  C288  1  0.73380000  0.71860000  0.38700000  1
  C  C289  1  0.73740000  0.87580000  0.81920000  1
  C  C290  1  0.74160000  0.45990000  0.53750000  1
  C  C291  1  0.74660000  0.69190000  0.66500000  1
  C  C292  1  0.75340000  0.19190000  0.58500000  1
  C  C293  1  0.75840000  0.95990000  0.71250000  1
  C  C294  1  0.76260000  0.37580000  0.43080000  1
  C  C295  1  0.76620000  0.21860000  0.86300000  1
  C  C296  1  0.76800000  0.98250000  0.99700000  1
  C  C297  1  0.77310000  0.12560000  0.06830000  1
  C  C298  1  0.77850000  0.40410000  0.04400000  1
  C  C299  1  0.77870000  0.31870000  0.95230000  1
  C  C300  1  0.77950000  0.95860000  0.23090000  1
  C  C301  1  0.78140000  0.23380000  0.63700000  1
  C  C302  1  0.78190000  0.87190000  0.32300000  1
  C  C303  1  0.79290000  0.61340000  0.22100000  1
  C  C304  1  0.79380000  0.54150000  0.25680000  1
  C  C305  1  0.79810000  0.11680000  0.56990000  1
  C  C306  1  0.80000000  0.15770000  0.82570000  1
  C  C307  1  0.80250000  0.93240000  0.81040000  1
  C  C308  1  0.80690000  0.33540000  0.01130000  1
  C  C309  1  0.80810000  0.24660000  0.91500000  1
  C  C310  1  0.80840000  0.40430000  0.53210000  1
  C  C311  1  0.81170000  0.94070000  0.29010000  1
  C  C312  1  0.81870000  0.72130000  0.70230000  1
  C  C313  1  0.81910000  0.35790000  0.47780000  1
  C  C314  1  0.83430000  0.99290000  0.03670000  1
  C  C315  1  0.83540000  0.69310000  0.76130000  1
  C  C316  1  0.83830000  0.06640000  0.07250000  1
  C  C317  1  0.84230000  0.20000000  0.67430000  1
  C  C318  1  0.85790000  0.68090000  0.22780000  1
  C  C319  1  0.85980000  0.09020000  0.60940000  1
  C  C320  1  0.87190000  0.78190000  0.67700000  1
  C  C321  1  0.87440000  0.22690000  0.43170000  1
  C  C322  1  0.87480000  0.99620000  0.32070000  1
  C  C323  1  0.87580000  0.73740000  0.18080000  1
  C  C324  1  0.88320000  0.20190000  0.93010000  1
  C  C325  1  0.88660000  0.29290000  0.47100000  1
  C  C326  1  0.90410000  0.72150000  0.79400000  1
  C  C327  1  0.90430000  0.69160000  0.28210000  1
  C  C328  1  0.90780000  0.07510000  0.11700000  1
  C  C329  1  0.90980000  0.14020000  0.89060000  1
  C  C330  1  0.92490000  0.09220000  0.38300000  1
  C  C331  1  0.93240000  0.80250000  0.18960000  1
  C  C332  1  0.93360000  0.16170000  0.42750000  1
  C  C333  1  0.94070000  0.81170000  0.70990000  1
  C  C334  1  0.95850000  0.29380000  0.50680000  1
  C  C335  1  0.95860000  0.77950000  0.76910000  1
  C  C336  1  0.95990000  0.75840000  0.28750000  1
  C  C337  1  0.98250000  0.76800000  0.00300000  1
  C  C338  1  0.99290000  0.83430000  0.96330000  1
  C  C339  1  0.99620000  0.87480000  0.67930000  1
  N  N340  1  0.00580000  0.04470000  0.18360000  1
  N  N341  1  0.01120000  0.94530000  0.85550000  1
  N  N342  1  0.02540000  0.18670000  0.74190000  1
  N  N343  1  0.04470000  0.00580000  0.81640000  1
  N  N344  1  0.05470000  0.98880000  0.64450000  1
  N  N345  1  0.05690000  0.85250000  0.63820000  1
  N  N346  1  0.07680000  0.77050000  0.61680000  1
  N  N347  1  0.11980000  0.87430000  0.16230000  1
  N  N348  1  0.12570000  0.88020000  0.33770000  1
  N  N349  1  0.14750000  0.94310000  0.86180000  1
  N  N350  1  0.18670000  0.02540000  0.25810000  1
  N  N351  1  0.22950000  0.92320000  0.88320000  1
  N  N352  1  0.27050000  0.42320000  0.36680000  1
  N  N353  1  0.31330000  0.52540000  0.99190000  1
  N  N354  1  0.35250000  0.44310000  0.38820000  1
  N  N355  1  0.37430000  0.38020000  0.91230000  1
  N  N356  1  0.38020000  0.37430000  0.08770000  1
  N  N357  1  0.42320000  0.27050000  0.63320000  1
  N  N358  1  0.44310000  0.35250000  0.61180000  1
  N  N359  1  0.44530000  0.48880000  0.60550000  1
  N  N360  1  0.45530000  0.50580000  0.43360000  1
  N  N361  1  0.47460000  0.68670000  0.50810000  1
  N  N362  1  0.48880000  0.44530000  0.39450000  1
  N  N363  1  0.49420000  0.54470000  0.06640000  1
  N  N364  1  0.50580000  0.45530000  0.56640000  1
  N  N365  1  0.51120000  0.55470000  0.89450000  1
  N  N366  1  0.52540000  0.31330000  0.00810000  1
  N  N367  1  0.54470000  0.49420000  0.93360000  1
  N  N368  1  0.55470000  0.51120000  0.10550000  1
  N  N369  1  0.55690000  0.64750000  0.11180000  1
  N  N370  1  0.57680000  0.72950000  0.13320000  1
  N  N371  1  0.61980000  0.62570000  0.58770000  1
  N  N372  1  0.62570000  0.61980000  0.41230000  1
  N  N373  1  0.64750000  0.55690000  0.88820000  1
  N  N374  1  0.68670000  0.47460000  0.49190000  1
  N  N375  1  0.72950000  0.57680000  0.86680000  1
  N  N376  1  0.77050000  0.07680000  0.38320000  1
  N  N377  1  0.81330000  0.97460000  0.75810000  1
  N  N378  1  0.85250000  0.05690000  0.36180000  1
  N  N379  1  0.87430000  0.11980000  0.83770000  1
  N  N380  1  0.88020000  0.12570000  0.66230000  1
  N  N381  1  0.92320000  0.22950000  0.11680000  1
  N  N382  1  0.94310000  0.14750000  0.13820000  1
  N  N383  1  0.94530000  0.01120000  0.14450000  1
  N  N384  1  0.95530000  0.99420000  0.31640000  1
  N  N385  1  0.97460000  0.81330000  0.24190000  1
  N  N386  1  0.98880000  0.05470000  0.35550000  1
  N  N387  1  0.99420000  0.95530000  0.68360000  1
