# generated using pymatgen
data_CrC8O5
_symmetry_space_group_name_H-M   'P 1'
_cell_length_a   6.82200000
_cell_length_b   12.17800000
_cell_length_c   17.34000000
_cell_angle_alpha   90.00000000
_cell_angle_beta   90.00000000
_cell_angle_gamma   90.00000000
_symmetry_Int_Tables_number   1
_chemical_formula_structural   CrC8O5
_chemical_formula_sum   'Cr4 C32 O20'
_cell_volume   1440.57799944
_cell_formula_units_Z   4
loop_
 _symmetry_equiv_pos_site_id
 _symmetry_equiv_pos_as_xyz
  1  'x, y, z'
loop_
 _atom_site_type_symbol
 _atom_site_label
 _atom_site_symmetry_multiplicity
 _atom_site_fract_x
 _atom_site_fract_y
 _atom_site_fract_z
 _atom_site_occupancy
  Cr  Cr0  1  0.00000000  0.00000000  0.00000000  1
  Cr  Cr1  1  0.50000000  0.00000000  0.00000000  1
  Cr  Cr2  1  1.00000000  0.50000000  0.50000000  1
  Cr  Cr3  1  0.50000000  0.50000000  0.50000000  1
  C  C4  1  0.75000000  0.14300000  0.89200000  1
  C  C5  1  0.25000000  0.88300000  0.87700000  1
  C  C6  1  0.75000000  0.21300000  0.82900000  1
  C  C7  1  0.25000000  0.82000000  0.80900000  1
  C  C8  1  0.92000000  0.23600000  0.79500000  1
  C  C9  1  0.58000000  0.23600000  0.79500000  1
  C  C10  1  0.42200000  0.80200000  0.77100000  1
  C  C11  1  0.07800000  0.80200000  0.77100000  1
  C  C12  1  0.92200000  0.30200000  0.72900000  1
  C  C13  1  0.57800000  0.30200000  0.72900000  1
  C  C14  1  0.42000000  0.73600000  0.70500000  1
  C  C15  1  0.08000000  0.73600000  0.70500000  1
  C  C16  1  0.75000000  0.32000000  0.69100000  1
  C  C17  1  0.25000000  0.71300000  0.67100000  1
  C  C18  1  0.75000000  0.38300000  0.62300000  1
  C  C19  1  0.25000000  0.64300000  0.60800000  1
  C  C20  1  0.75000000  0.35700000  0.39200000  1
  C  C21  1  0.25000000  0.61700000  0.37700000  1
  C  C22  1  0.75000000  0.28700000  0.32900000  1
  C  C23  1  0.25000000  0.68000000  0.30900000  1
  C  C24  1  0.92000000  0.26400000  0.29500000  1
  C  C25  1  0.58000000  0.26400000  0.29500000  1
  C  C26  1  0.42200000  0.69800000  0.27100000  1
  C  C27  1  0.07800000  0.69800000  0.27100000  1
  C  C28  1  0.92200000  0.19800000  0.22900000  1
  C  C29  1  0.57800000  0.19800000  0.22900000  1
  C  C30  1  0.42000000  0.76400000  0.20500000  1
  C  C31  1  0.08000000  0.76400000  0.20500000  1
  C  C32  1  0.75000000  0.18000000  0.19100000  1
  C  C33  1  0.25000000  0.78700000  0.17100000  1
  C  C34  1  0.75000000  0.11700000  0.12300000  1
  C  C35  1  0.25000000  0.85700000  0.10800000  1
  O  O36  1  0.25000000  0.07800000  0.99800000  1
  O  O37  1  0.91000000  0.11200000  0.92700000  1
  O  O38  1  0.59000000  0.11200000  0.92700000  1
  O  O39  1  0.41300000  0.91100000  0.91100000  1
  O  O40  1  0.08700000  0.91100000  0.91100000  1
  O  O41  1  0.91300000  0.41100000  0.58900000  1
  O  O42  1  0.58700000  0.41100000  0.58900000  1
  O  O43  1  0.41000000  0.61200000  0.57300000  1
  O  O44  1  0.09000000  0.61200000  0.57300000  1
  O  O45  1  0.75000000  0.57800000  0.50200000  1
  O  O46  1  0.25000000  0.42200000  0.49800000  1
  O  O47  1  0.91000000  0.38800000  0.42700000  1
  O  O48  1  0.59000000  0.38800000  0.42700000  1
  O  O49  1  0.41300000  0.58900000  0.41100000  1
  O  O50  1  0.08700000  0.58900000  0.41100000  1
  O  O51  1  0.91300000  0.08900000  0.08900000  1
  O  O52  1  0.58700000  0.08900000  0.08900000  1
  O  O53  1  0.41000000  0.88800000  0.07300000  1
  O  O54  1  0.09000000  0.88800000  0.07300000  1
  O  O55  1  0.75000000  0.92200000  0.00200000  1
