# generated using pymatgen
data_Zn4H30C54O13
_symmetry_space_group_name_H-M   'P 1'
_cell_length_a   19.37760000
_cell_length_b   19.37760000
_cell_length_c   31.61390000
_cell_angle_alpha   105.79600000
_cell_angle_beta   105.79600000
_cell_angle_gamma   94.18290000
_symmetry_Int_Tables_number   1
_chemical_formula_structural   Zn4H30C54O13
_chemical_formula_sum   'Zn16 H120 C216 O52'
_cell_volume   10851.64180873
_cell_formula_units_Z   4
loop_
 _symmetry_equiv_pos_site_id
 _symmetry_equiv_pos_as_xyz
  1  'x, y, z'
loop_
 _atom_site_type_symbol
 _atom_site_label
 _atom_site_symmetry_multiplicity
 _atom_site_fract_x
 _atom_site_fract_y
 _atom_site_fract_z
 _atom_site_occupancy
  Zn  Zn0  1  0.38811000  0.75593000  0.57351000  1
  Zn  Zn1  1  0.53136000  0.75496000  0.65020000  1
  Zn  Zn2  1  0.37943000  0.68387000  0.65215000  1
  Zn  Zn3  1  0.31613000  0.62057000  0.84785000  1
  Zn  Zn4  1  0.24407000  0.61189000  0.92649000  1
  Zn  Zn5  1  0.44621000  0.60879000  0.57314000  1
  Zn  Zn6  1  0.39121000  0.55379000  0.92686000  1
  Zn  Zn7  1  0.75496000  0.53136000  0.15020000  1
  Zn  Zn8  1  0.24504000  0.46864000  0.84980000  1
  Zn  Zn9  1  0.60879000  0.44621000  0.07314000  1
  Zn  Zn10  1  0.55379000  0.39121000  0.42686000  1
  Zn  Zn11  1  0.75593000  0.38811000  0.07351000  1
  Zn  Zn12  1  0.68387000  0.37943000  0.15215000  1
  Zn  Zn13  1  0.62057000  0.31613000  0.34785000  1
  Zn  Zn14  1  0.46864000  0.24504000  0.34980000  1
  Zn  Zn15  1  0.61189000  0.24407000  0.42649000  1
  H  H16  1  0.40840000  0.98100000  0.60360000  1
  H  H17  1  0.59690000  0.97870000  0.69870000  1
  H  H18  1  0.36680000  0.97440000  0.91460000  1
  H  H19  1  0.62660000  0.95900000  0.94290000  1
  H  H20  1  0.26560000  0.94740000  0.00750000  1
  H  H21  1  0.67290000  0.90910000  0.06270000  1
  H  H22  1  0.39300000  0.89880000  0.26520000  1
  H  H23  1  0.58100000  0.89480000  0.36030000  1
  H  H24  1  0.66270000  0.88010000  0.87330000  1
  H  H25  1  0.34380000  0.85340000  0.88040000  1
  H  H26  1  0.61760000  0.83660000  0.79090000  1
  H  H27  1  0.24290000  0.82350000  0.97170000  1
  H  H28  1  0.73160000  0.81580000  0.08330000  1
  H  H29  1  0.43870000  0.81490000  0.21910000  1
  H  H30  1  0.47790000  0.77430000  0.87810000  1
  H  H31  1  0.52460000  0.77380000  0.34030000  1
  H  H32  1  0.17650000  0.75710000  0.52830000  1
  H  H33  1  0.58670000  0.75210000  0.94280000  1
  H  H34  1  0.33990000  0.73970000  0.15060000  1
  H  H35  1  0.72940000  0.73720000  0.62150000  1
  H  H36  1  0.43420000  0.73660000  0.79760000  1
  H  H37  1  0.05260000  0.73440000  0.49250000  1
  H  H38  1  0.81580000  0.73160000  0.58330000  1
  H  H39  1  0.73720000  0.72940000  0.12150000  1
  H  H40  1  0.30250000  0.70530000  0.07250000  1
  H  H41  1  0.29470000  0.69750000  0.42750000  1
  H  H42  1  0.54210000  0.69730000  0.98800000  1
  H  H43  1  0.90910000  0.67290000  0.56270000  1
  H  H44  1  0.49850000  0.67230000  0.36410000  1
  H  H45  1  0.88010000  0.66270000  0.37330000  1
  H  H46  1  0.26030000  0.66010000  0.34940000  1
  H  H47  1  0.14660000  0.65620000  0.61960000  1
  H  H48  1  0.02560000  0.63320000  0.58540000  1
  H  H49  1  0.95900000  0.62660000  0.44290000  1
  H  H50  1  0.50620000  0.62320000  0.15000000  1
  H  H51  1  0.83660000  0.61760000  0.29090000  1
  H  H52  1  0.49020000  0.61680000  0.79660000  1
  H  H53  1  0.47660000  0.61140000  0.21690000  1
  H  H54  1  0.55310000  0.60970000  0.02580000  1
  H  H55  1  0.10120000  0.60700000  0.23480000  1
  H  H56  1  0.97870000  0.59690000  0.19870000  1
  H  H57  1  0.46910000  0.59230000  0.07030000  1
  H  H58  1  0.01900000  0.59160000  0.89640000  1
  H  H59  1  0.75210000  0.58670000  0.44280000  1
  H  H60  1  0.53820000  0.58640000  0.40030000  1
  H  H61  1  0.89480000  0.58100000  0.86030000  1
  H  H62  1  0.57500000  0.57600000  0.25960000  1
  H  H63  1  0.57600000  0.57500000  0.75960000  1
  H  H64  1  0.26340000  0.56580000  0.70240000  1
  H  H65  1  0.18510000  0.56130000  0.28090000  1
  H  H66  1  0.60970000  0.55310000  0.52580000  1
  H  H67  1  0.69730000  0.54210000  0.48800000  1
  H  H68  1  0.58640000  0.53820000  0.90030000  1
  H  H69  1  0.40770000  0.53090000  0.42970000  1
  H  H70  1  0.77380000  0.52460000  0.84030000  1
  H  H71  1  0.38860000  0.52340000  0.28310000  1
  H  H72  1  0.22570000  0.52210000  0.62190000  1
  H  H73  1  0.38320000  0.50980000  0.70340000  1
  H  H74  1  0.62320000  0.50620000  0.65000000  1
  H  H75  1  0.32770000  0.50150000  0.13590000  1
  H  H76  1  0.67230000  0.49850000  0.86410000  1
  H  H77  1  0.37680000  0.49380000  0.35000000  1
  H  H78  1  0.61680000  0.49020000  0.29660000  1
  H  H79  1  0.77430000  0.47790000  0.37810000  1
  H  H80  1  0.61140000  0.47660000  0.71690000  1
  H  H81  1  0.22620000  0.47540000  0.15970000  1
  H  H82  1  0.59230000  0.46910000  0.57030000  1
  H  H83  1  0.41360000  0.46180000  0.09970000  1
  H  H84  1  0.30270000  0.45790000  0.51200000  1
  H  H85  1  0.39030000  0.44690000  0.47420000  1
  H  H86  1  0.81490000  0.43870000  0.71910000  1
  H  H87  1  0.73660000  0.43420000  0.29760000  1
  H  H88  1  0.42400000  0.42500000  0.24040000  1
  H  H89  1  0.42500000  0.42400000  0.74040000  1
  H  H90  1  0.10520000  0.41900000  0.13970000  1
  H  H91  1  0.46180000  0.41360000  0.59970000  1
  H  H92  1  0.24790000  0.41330000  0.55720000  1
  H  H93  1  0.98100000  0.40840000  0.10360000  1
  H  H94  1  0.53090000  0.40770000  0.92970000  1
  H  H95  1  0.02130000  0.40310000  0.80130000  1
  H  H96  1  0.89880000  0.39300000  0.76520000  1
  H  H97  1  0.44690000  0.39030000  0.97420000  1
  H  H98  1  0.52340000  0.38860000  0.78310000  1
  H  H99  1  0.50980000  0.38320000  0.20340000  1
  H  H100  1  0.16340000  0.38240000  0.70910000  1
  H  H101  1  0.49380000  0.37680000  0.85000000  1
  H  H102  1  0.04100000  0.37340000  0.55710000  1
  H  H103  1  0.97440000  0.36680000  0.41460000  1
  H  H104  1  0.85340000  0.34380000  0.38040000  1
  H  H105  1  0.73970000  0.33990000  0.65060000  1
  H  H106  1  0.11990000  0.33730000  0.62670000  1
  H  H107  1  0.50150000  0.32770000  0.63590000  1
  H  H108  1  0.09090000  0.32710000  0.43730000  1
  H  H109  1  0.45790000  0.30270000  0.01200000  1
  H  H110  1  0.70530000  0.30250000  0.57250000  1
  H  H111  1  0.69750000  0.29470000  0.92750000  1
  H  H112  1  0.26280000  0.27060000  0.87850000  1
  H  H113  1  0.18420000  0.26840000  0.41670000  1
  H  H114  1  0.94740000  0.26560000  0.50750000  1
  H  H115  1  0.56580000  0.26340000  0.20240000  1
  H  H116  1  0.27060000  0.26280000  0.37850000  1
  H  H117  1  0.66010000  0.26030000  0.84940000  1
  H  H118  1  0.41330000  0.24790000  0.05720000  1
  H  H119  1  0.82350000  0.24290000  0.47170000  1
  H  H120  1  0.47540000  0.22620000  0.65970000  1
  H  H121  1  0.52210000  0.22570000  0.12190000  1
  H  H122  1  0.56130000  0.18510000  0.78090000  1
  H  H123  1  0.26840000  0.18420000  0.91670000  1
  H  H124  1  0.75710000  0.17650000  0.02830000  1
  H  H125  1  0.38240000  0.16340000  0.20910000  1
  H  H126  1  0.65620000  0.14660000  0.11960000  1
  H  H127  1  0.33730000  0.11990000  0.12670000  1
  H  H128  1  0.41900000  0.10520000  0.63970000  1
  H  H129  1  0.60700000  0.10120000  0.73480000  1
  H  H130  1  0.32710000  0.09090000  0.93730000  1
  H  H131  1  0.73440000  0.05260000  0.99250000  1
  H  H132  1  0.37340000  0.04100000  0.05710000  1
  H  H133  1  0.63320000  0.02560000  0.08540000  1
  H  H134  1  0.40310000  0.02130000  0.30130000  1
  H  H135  1  0.59160000  0.01900000  0.39640000  1
  C  C136  1  0.43980000  0.99520000  0.31260000  1
  C  C137  1  0.55210000  0.99510000  0.36960000  1
  C  C138  1  0.32230000  0.97450000  0.96680000  1
  C  C139  1  0.49820000  0.96740000  0.64810000  1
  C  C140  1  0.65480000  0.94660000  0.00800000  1
  C  C141  1  0.34250000  0.94390000  0.92680000  1
  C  C142  1  0.28250000  0.92770000  0.98190000  1
  C  C143  1  0.62740000  0.92400000  0.95900000  1
  C  C144  1  0.43340000  0.92260000  0.29150000  1
  C  C145  1  0.54520000  0.92120000  0.34820000  1
  C  C146  1  0.65510000  0.89450000  0.02990000  1
  C  C147  1  0.48440000  0.88480000  0.62670000  1
  C  C148  1  0.48570000  0.88370000  0.30830000  1
  C  C149  1  0.32790000  0.87310000  0.90630000  1
  C  C150  1  0.26780000  0.85520000  0.96060000  1
  C  C151  1  0.60220000  0.85240000  0.93470000  1
  C  C152  1  0.61670000  0.85010000  0.85840000  1
  C  C153  1  0.57650000  0.83070000  0.88350000  1
  C  C154  1  0.29090000  0.82790000  0.92110000  1
  C  C155  1  0.58890000  0.82470000  0.80880000  1
  C  C156  1  0.63070000  0.82230000  0.00660000  1
  C  C157  1  0.48140000  0.80560000  0.28350000  1
  C  C158  1  0.60420000  0.80200000  0.95930000  1
  C  C159  1  0.50660000  0.78760000  0.86070000  1
  C  C160  1  0.52090000  0.78310000  0.78690000  1
  C  C161  1  0.45520000  0.78140000  0.23530000  1
  C  C162  1  0.69460000  0.77440000  0.07170000  1
  C  C163  1  0.63500000  0.76720000  0.03050000  1
  C  C164  1  0.48090000  0.76510000  0.81270000  1
  C  C165  1  0.49960000  0.75920000  0.73540000  1
  C  C166  1  0.50630000  0.75770000  0.30750000  1
  C  C167  1  0.27770000  0.74850000  0.90320000  1
  C  C168  1  0.14480000  0.73220000  0.53940000  1
  C  C169  1  0.69850000  0.72270000  0.09410000  1
  C  C170  1  0.25150000  0.72230000  0.59680000  1
  C  C171  1  0.07230000  0.71750000  0.51810000  1
  C  C172  1  0.45280000  0.71020000  0.21090000  1
  C  C173  1  0.17210000  0.70910000  0.57890000  1
  C  C174  1  0.36600000  0.70860000  0.13430000  1
  C  C175  1  0.58230000  0.70410000  0.01470000  1
  C  C176  1  0.72270000  0.69850000  0.59410000  1
  C  C177  1  0.77440000  0.69460000  0.57170000  1
  C  C178  1  0.34360000  0.68840000  0.08820000  1
  C  C179  1  0.42630000  0.68590000  0.15940000  1
  C  C180  1  0.50400000  0.68460000  0.28260000  1
  C  C181  1  0.02550000  0.67770000  0.53320000  1
  C  C182  1  0.12690000  0.67210000  0.59370000  1
  C  C183  1  0.64710000  0.66170000  0.07740000  1
  C  C184  1  0.47740000  0.66040000  0.23370000  1
  C  C185  1  0.05610000  0.65750000  0.57320000  1
  C  C186  1  0.60310000  0.65690000  0.60000000  1
  C  C187  1  0.31160000  0.65640000  0.41180000  1
  C  C188  1  0.89450000  0.65510000  0.52990000  1
  C  C189  1  0.94660000  0.65480000  0.50800000  1
  C  C190  1  0.58860000  0.65220000  0.03730000  1
  C  C191  1  0.66170000  0.64710000  0.57740000  1
  C  C192  1  0.38120000  0.64160000  0.06270000  1
  C  C193  1  0.46500000  0.64020000  0.13440000  1
  C  C194  1  0.37860000  0.63940000  0.48850000  1
  C  C195  1  0.76720000  0.63500000  0.53050000  1
  C  C196  1  0.52110000  0.63470000  0.34990000  1
  C  C197  1  0.29140000  0.63400000  0.36570000  1
  C  C198  1  0.82230000  0.63070000  0.50660000  1
  C  C199  1  0.53030000  0.63070000  0.30750000  1
  C  C200  1  0.92400000  0.62740000  0.45900000  1
  C  C201  1  0.36060000  0.62140000  0.01150000  1
  C  C202  1  0.44180000  0.62100000  0.08690000  1
  C  C203  1  0.35840000  0.61880000  0.43730000  1
  C  C204  1  0.85010000  0.61670000  0.35840000  1
  C  C205  1  0.80200000  0.60420000  0.45930000  1
  C  C206  1  0.65690000  0.60310000  0.10000000  1
  C  C207  1  0.85240000  0.60220000  0.43470000  1
  C  C208  1  0.46850000  0.59790000  0.86940000  1
  C  C209  1  0.52620000  0.59160000  0.80980000  1
  C  C210  1  0.82470000  0.58890000  0.30880000  1
  C  C211  1  0.65220000  0.58860000  0.53730000  1
  C  C212  1  0.54490000  0.58410000  0.37130000  1
  C  C213  1  0.70410000  0.58230000  0.51470000  1
  C  C214  1  0.52940000  0.57900000  0.85030000  1
  C  C215  1  0.56680000  0.57740000  0.28810000  1
  C  C216  1  0.83070000  0.57650000  0.38350000  1
  C  C217  1  0.31410000  0.57370000  0.34060000  1
  C  C218  1  0.57740000  0.56680000  0.78810000  1
  C  C219  1  0.07740000  0.56660000  0.20850000  1
  C  C220  1  0.00480000  0.56020000  0.18740000  1
  C  C221  1  0.37900000  0.55820000  0.41310000  1
  C  C222  1  0.99510000  0.55210000  0.86960000  1
  C  C223  1  0.28980000  0.54720000  0.28910000  1
  C  C224  1  0.92120000  0.54520000  0.84820000  1
  C  C225  1  0.58410000  0.54490000  0.87130000  1
  C  C226  1  0.21860000  0.54480000  0.26470000  1
  C  C227  1  0.35980000  0.53500000  0.36560000  1
  C  C228  1  0.40210000  0.53150000  0.63060000  1
  C  C229  1  0.63070000  0.53030000  0.80750000  1
  C  C230  1  0.57900000  0.52940000  0.35030000  1
  C  C231  1  0.59160000  0.52620000  0.30980000  1
  C  C232  1  0.33960000  0.52260000  0.26630000  1
  C  C233  1  0.63470000  0.52110000  0.84990000  1
  C  C234  1  0.78310000  0.52090000  0.28690000  1
  C  C235  1  0.23490000  0.51910000  0.68730000  1
  C  C236  1  0.19440000  0.51860000  0.21650000  1
  C  C237  1  0.11520000  0.51560000  0.87330000  1
  C  C238  1  0.11630000  0.51430000  0.19170000  1
  C  C239  1  0.78760000  0.50660000  0.36070000  1
  C  C240  1  0.75770000  0.50630000  0.80750000  1
  C  C241  1  0.68460000  0.50400000  0.78260000  1
  C  C242  1  0.03260000  0.50180000  0.85190000  1
  C  C243  1  0.24080000  0.50040000  0.76460000  1
  C  C244  1  0.75920000  0.49960000  0.23540000  1
  C  C245  1  0.96740000  0.49820000  0.14810000  1
  C  C246  1  0.31540000  0.49600000  0.21740000  1
  C  C247  1  0.24230000  0.49370000  0.19250000  1
  C  C248  1  0.21240000  0.49340000  0.63930000  1
  C  C249  1  0.88370000  0.48570000  0.80830000  1
  C  C250  1  0.88480000  0.48440000  0.12670000  1
  C  C251  1  0.80560000  0.48140000  0.78350000  1
  C  C252  1  0.76510000  0.48090000  0.31270000  1
  C  C253  1  0.21690000  0.47910000  0.71310000  1
  C  C254  1  0.36530000  0.47890000  0.15010000  1
  C  C255  1  0.66040000  0.47740000  0.73370000  1
  C  C256  1  0.40840000  0.47380000  0.69020000  1
  C  C257  1  0.42100000  0.47060000  0.64970000  1
  C  C258  1  0.36930000  0.46970000  0.19250000  1
  C  C259  1  0.59790000  0.46850000  0.36940000  1
  C  C260  1  0.64020000  0.46500000  0.63440000  1
  C  C261  1  0.78140000  0.45520000  0.73530000  1
  C  C262  1  0.41590000  0.45510000  0.12870000  1
  C  C263  1  0.07880000  0.45480000  0.15180000  1
  C  C264  1  0.71020000  0.45280000  0.71090000  1
  C  C265  1  0.00490000  0.44790000  0.13040000  1
  C  C266  1  0.62100000  0.44180000  0.58690000  1
  C  C267  1  0.99520000  0.43980000  0.81260000  1
  C  C268  1  0.92260000  0.43340000  0.79150000  1
  C  C269  1  0.42260000  0.43320000  0.21190000  1
  C  C270  1  0.68590000  0.42630000  0.65940000  1
  C  C271  1  0.16930000  0.42350000  0.61650000  1
  C  C272  1  0.43320000  0.42260000  0.71190000  1
  C  C273  1  0.47060000  0.42100000  0.14970000  1
  C  C274  1  0.29590000  0.41770000  0.48530000  1
  C  C275  1  0.45510000  0.41590000  0.62870000  1
  C  C276  1  0.34780000  0.41140000  0.46270000  1
  C  C277  1  0.17530000  0.41110000  0.69120000  1
  C  C278  1  0.47380000  0.40840000  0.19020000  1
  C  C279  1  0.53150000  0.40210000  0.13060000  1
  C  C280  1  0.14760000  0.39780000  0.56530000  1
  C  C281  1  0.34310000  0.39690000  0.90000000  1
  C  C282  1  0.19800000  0.39580000  0.54070000  1
  C  C283  1  0.14990000  0.38330000  0.64160000  1
  C  C284  1  0.64160000  0.38120000  0.56270000  1
  C  C285  1  0.55820000  0.37900000  0.91310000  1
  C  C286  1  0.63940000  0.37860000  0.98850000  1
  C  C287  1  0.07600000  0.37260000  0.54100000  1
  C  C288  1  0.46970000  0.36930000  0.69250000  1
  C  C289  1  0.17770000  0.36930000  0.49340000  1
  C  C290  1  0.70860000  0.36600000  0.63430000  1
  C  C291  1  0.47890000  0.36530000  0.65010000  1
  C  C292  1  0.23280000  0.36500000  0.46950000  1
  C  C293  1  0.62140000  0.36060000  0.51150000  1
  C  C294  1  0.53500000  0.35980000  0.86560000  1
  C  C295  1  0.61880000  0.35840000  0.93730000  1
  C  C296  1  0.33830000  0.35290000  0.42260000  1
  C  C297  1  0.41140000  0.34780000  0.96270000  1
  C  C298  1  0.05340000  0.34520000  0.49200000  1
  C  C299  1  0.10550000  0.34490000  0.47010000  1
  C  C300  1  0.68840000  0.34360000  0.58820000  1
  C  C301  1  0.39690000  0.34310000  0.40000000  1
  C  C302  1  0.94390000  0.34250000  0.42680000  1
  C  C303  1  0.52260000  0.33960000  0.76630000  1
  C  C304  1  0.35290000  0.33830000  0.92260000  1
  C  C305  1  0.87310000  0.32790000  0.40630000  1
  C  C306  1  0.97450000  0.32230000  0.46680000  1
  C  C307  1  0.49600000  0.31540000  0.71740000  1
  C  C308  1  0.57370000  0.31410000  0.84060000  1
  C  C309  1  0.65640000  0.31160000  0.91180000  1
  C  C310  1  0.22560000  0.30540000  0.42830000  1
  C  C311  1  0.27730000  0.30150000  0.40590000  1
  C  C312  1  0.41770000  0.29590000  0.98530000  1
  C  C313  1  0.63400000  0.29140000  0.86570000  1
  C  C314  1  0.82790000  0.29090000  0.42110000  1
  C  C315  1  0.54720000  0.28980000  0.78910000  1
  C  C316  1  0.92770000  0.28250000  0.48190000  1
  C  C317  1  0.74850000  0.27770000  0.40320000  1
  C  C318  1  0.30150000  0.27730000  0.90590000  1
  C  C319  1  0.85520000  0.26780000  0.46060000  1
  C  C320  1  0.72230000  0.25150000  0.09680000  1
  C  C321  1  0.49370000  0.24230000  0.69250000  1
  C  C322  1  0.50040000  0.24080000  0.26460000  1
  C  C323  1  0.51910000  0.23490000  0.18730000  1
  C  C324  1  0.36500000  0.23280000  0.96950000  1
  C  C325  1  0.30540000  0.22560000  0.92830000  1
  C  C326  1  0.54480000  0.21860000  0.76470000  1
  C  C327  1  0.47910000  0.21690000  0.21310000  1
  C  C328  1  0.49340000  0.21240000  0.13930000  1
  C  C329  1  0.39580000  0.19800000  0.04070000  1
  C  C330  1  0.51860000  0.19440000  0.71650000  1
  C  C331  1  0.36930000  0.17770000  0.99340000  1
  C  C332  1  0.41110000  0.17530000  0.19120000  1
  C  C333  1  0.70910000  0.17210000  0.07890000  1
  C  C334  1  0.42350000  0.16930000  0.11650000  1
  C  C335  1  0.38330000  0.14990000  0.14160000  1
  C  C336  1  0.39780000  0.14760000  0.06530000  1
  C  C337  1  0.73220000  0.14480000  0.03940000  1
  C  C338  1  0.67210000  0.12690000  0.09370000  1
  C  C339  1  0.51430000  0.11630000  0.69170000  1
  C  C340  1  0.51560000  0.11520000  0.37330000  1
  C  C341  1  0.34490000  0.10550000  0.97010000  1
  C  C342  1  0.45480000  0.07880000  0.65180000  1
  C  C343  1  0.56660000  0.07740000  0.70850000  1
  C  C344  1  0.37260000  0.07600000  0.04100000  1
  C  C345  1  0.71750000  0.07230000  0.01810000  1
  C  C346  1  0.65750000  0.05610000  0.07320000  1
  C  C347  1  0.34520000  0.05340000  0.99200000  1
  C  C348  1  0.50180000  0.03260000  0.35190000  1
  C  C349  1  0.67770000  0.02550000  0.03320000  1
  C  C350  1  0.44790000  0.00490000  0.63040000  1
  C  C351  1  0.56020000  0.00480000  0.68740000  1
  O  O352  1  0.42983000  0.85617000  0.59365000  1
  O  O353  1  0.53454000  0.85334000  0.64792000  1
  O  O354  1  0.54433000  0.76587000  0.71528000  1
  O  O355  1  0.29011000  0.75809000  0.58082000  1
  O  O356  1  0.43085000  0.73335000  0.71723000  1
  O  O357  1  0.30419000  0.71939000  0.86993000  1
  O  O358  1  0.60993000  0.71487000  0.63154000  1
  O  O359  1  0.24191000  0.70989000  0.91918000  1
  O  O360  1  0.36705000  0.70395000  0.50877000  1
  O  O361  1  0.43595000  0.70013000  0.61230000  1
  O  O362  1  0.28061000  0.69581000  0.63007000  1
  O  O363  1  0.29605000  0.63295000  0.99123000  1
  O  O364  1  0.41605000  0.62075000  0.84759000  1
  O  O365  1  0.71487000  0.60993000  0.13154000  1
  O  O366  1  0.54917000  0.60483000  0.58394000  1
  O  O367  1  0.40513000  0.59657000  0.50806000  1
  O  O368  1  0.40343000  0.59487000  0.99194000  1
  O  O369  1  0.47426000  0.58720000  0.90909000  1
  O  O370  1  0.37925000  0.58395000  0.65241000  1
  O  O371  1  0.14383000  0.57017000  0.90635000  1
  O  O372  1  0.26665000  0.56915000  0.78277000  1
  O  O373  1  0.29987000  0.56405000  0.88770000  1
  O  O374  1  0.60483000  0.54917000  0.08394000  1
  O  O375  1  0.76587000  0.54433000  0.21528000  1
  O  O376  1  0.85334000  0.53454000  0.14792000  1
  O  O377  1  0.41280000  0.52574000  0.59091000  1
  O  O378  1  0.58720000  0.47426000  0.40909000  1
  O  O379  1  0.14666000  0.46546000  0.85208000  1
  O  O380  1  0.23413000  0.45567000  0.78472000  1
  O  O381  1  0.39517000  0.45083000  0.91606000  1
  O  O382  1  0.70013000  0.43595000  0.11230000  1
  O  O383  1  0.73335000  0.43085000  0.21723000  1
  O  O384  1  0.85617000  0.42983000  0.09365000  1
  O  O385  1  0.62075000  0.41605000  0.34759000  1
  O  O386  1  0.52574000  0.41280000  0.09091000  1
  O  O387  1  0.59657000  0.40513000  0.00806000  1
  O  O388  1  0.59487000  0.40343000  0.49194000  1
  O  O389  1  0.45083000  0.39517000  0.41606000  1
  O  O390  1  0.28513000  0.39007000  0.86846000  1
  O  O391  1  0.58395000  0.37925000  0.15241000  1
  O  O392  1  0.70395000  0.36705000  0.00877000  1
  O  O393  1  0.71939000  0.30419000  0.36993000  1
  O  O394  1  0.56405000  0.29987000  0.38770000  1
  O  O395  1  0.63295000  0.29605000  0.49123000  1
  O  O396  1  0.75809000  0.29011000  0.08082000  1
  O  O397  1  0.39007000  0.28513000  0.36846000  1
  O  O398  1  0.69581000  0.28061000  0.13007000  1
  O  O399  1  0.56915000  0.26665000  0.28277000  1
  O  O400  1  0.70989000  0.24191000  0.41918000  1
  O  O401  1  0.45567000  0.23413000  0.28472000  1
  O  O402  1  0.46546000  0.14666000  0.35208000  1
  O  O403  1  0.57017000  0.14383000  0.40635000  1
