# generated using pymatgen
data_ZnH8C12(IN2)2
_symmetry_space_group_name_H-M   'P 1'
_cell_length_a   13.83900000
_cell_length_b   27.91000000
_cell_length_c   44.93000000
_cell_angle_alpha   90.00000000
_cell_angle_beta   90.00000000
_cell_angle_gamma   90.00000000
_symmetry_Int_Tables_number   1
_chemical_formula_structural   ZnH8C12(IN2)2
_chemical_formula_sum   'Zn24 H192 C288 I48 N96'
_cell_volume   17354.05479570
_cell_formula_units_Z   24
loop_
 _symmetry_equiv_pos_site_id
 _symmetry_equiv_pos_as_xyz
  1  'x, y, z'
loop_
 _atom_site_type_symbol
 _atom_site_label
 _atom_site_symmetry_multiplicity
 _atom_site_fract_x
 _atom_site_fract_y
 _atom_site_fract_z
 _atom_site_occupancy
  Zn  Zn0  1  0.12580000  0.02243000  0.91411000  1
  Zn  Zn1  1  0.12580000  0.52243000  0.58589000  1
  Zn  Zn2  1  0.14668000  0.05181000  0.58001000  1
  Zn  Zn3  1  0.14668000  0.55181000  0.91999000  1
  Zn  Zn4  1  0.16202000  0.24182000  0.31660000  1
  Zn  Zn5  1  0.16202000  0.74182000  0.18340000  1
  Zn  Zn6  1  0.33798000  0.24182000  0.81660000  1
  Zn  Zn7  1  0.33798000  0.74182000  0.68340000  1
  Zn  Zn8  1  0.35332000  0.05181000  0.08001000  1
  Zn  Zn9  1  0.35332000  0.55181000  0.41999000  1
  Zn  Zn10  1  0.37420000  0.02243000  0.41411000  1
  Zn  Zn11  1  0.37420000  0.52243000  0.08589000  1
  Zn  Zn12  1  0.62580000  0.47757000  0.91411000  1
  Zn  Zn13  1  0.62580000  0.97757000  0.58589000  1
  Zn  Zn14  1  0.64668000  0.44819000  0.58001000  1
  Zn  Zn15  1  0.64668000  0.94819000  0.91999000  1
  Zn  Zn16  1  0.66202000  0.25818000  0.31660000  1
  Zn  Zn17  1  0.66202000  0.75818000  0.18340000  1
  Zn  Zn18  1  0.83798000  0.25818000  0.81660000  1
  Zn  Zn19  1  0.83798000  0.75818000  0.68340000  1
  Zn  Zn20  1  0.85332000  0.44819000  0.08001000  1
  Zn  Zn21  1  0.85332000  0.94819000  0.41999000  1
  Zn  Zn22  1  0.87420000  0.47757000  0.41411000  1
  Zn  Zn23  1  0.87420000  0.97757000  0.08589000  1
  H  H24  1  0.00780000  0.20450000  0.72470000  1
  H  H25  1  0.00780000  0.70450000  0.77530000  1
  H  H26  1  0.01540000  0.46530000  0.46470000  1
  H  H27  1  0.01540000  0.96530000  0.03530000  1
  H  H28  1  0.02400000  0.42210000  0.38140000  1
  H  H29  1  0.02400000  0.92210000  0.11860000  1
  H  H30  1  0.03680000  0.15480000  0.66410000  1
  H  H31  1  0.03680000  0.65480000  0.83590000  1
  H  H32  1  0.04190000  0.15280000  0.22860000  1
  H  H33  1  0.04190000  0.65280000  0.27140000  1
  H  H34  1  0.04610000  0.27760000  0.83260000  1
  H  H35  1  0.04610000  0.77760000  0.66740000  1
  H  H36  1  0.04650000  0.46550000  0.05220000  1
  H  H37  1  0.04650000  0.96550000  0.44780000  1
  H  H38  1  0.04900000  0.30170000  0.27300000  1
  H  H39  1  0.04900000  0.80170000  0.22700000  1
  H  H40  1  0.05750000  0.41240000  0.67190000  1
  H  H41  1  0.05750000  0.91240000  0.82810000  1
  H  H42  1  0.06880000  0.08510000  0.63790000  1
  H  H43  1  0.06880000  0.58510000  0.86210000  1
  H  H44  1  0.07650000  0.34610000  0.59270000  1
  H  H45  1  0.07650000  0.84610000  0.90730000  1
  H  H46  1  0.07940000  0.48480000  0.64750000  1
  H  H47  1  0.07940000  0.98480000  0.85250000  1
  H  H48  1  0.09560000  0.41970000  0.57050000  1
  H  H49  1  0.09560000  0.91970000  0.92950000  1
  H  H50  1  0.10070000  0.16360000  0.27670000  1
  H  H51  1  0.10070000  0.66360000  0.22330000  1
  H  H52  1  0.10540000  0.22920000  0.58990000  1
  H  H53  1  0.10540000  0.72920000  0.91010000  1
  H  H54  1  0.11600000  0.14680000  0.40800000  1
  H  H55  1  0.11600000  0.64680000  0.09200000  1
  H  H56  1  0.11810000  0.09970000  0.47330000  1
  H  H57  1  0.11810000  0.59970000  0.02670000  1
  H  H58  1  0.12950000  0.44430000  0.00970000  1
  H  H59  1  0.12950000  0.94430000  0.49030000  1
  H  H60  1  0.13020000  0.15720000  0.56560000  1
  H  H61  1  0.13020000  0.65720000  0.93440000  1
  H  H62  1  0.13450000  0.31890000  0.86890000  1
  H  H63  1  0.13450000  0.81890000  0.63110000  1
  H  H64  1  0.17080000  0.43600000  0.47310000  1
  H  H65  1  0.17080000  0.93600000  0.02690000  1
  H  H66  1  0.18140000  0.39530000  0.38710000  1
  H  H67  1  0.18140000  0.89530000  0.11290000  1
  H  H68  1  0.19810000  0.07770000  0.51690000  1
  H  H69  1  0.19810000  0.57770000  0.98310000  1
  H  H70  1  0.19820000  0.18370000  0.37020000  1
  H  H71  1  0.19820000  0.68370000  0.12980000  1
  H  H72  1  0.30180000  0.18370000  0.87020000  1
  H  H73  1  0.30180000  0.68370000  0.62980000  1
  H  H74  1  0.30190000  0.07770000  0.01690000  1
  H  H75  1  0.30190000  0.57770000  0.48310000  1
  H  H76  1  0.31860000  0.39530000  0.88710000  1
  H  H77  1  0.31860000  0.89530000  0.61290000  1
  H  H78  1  0.32920000  0.43600000  0.97310000  1
  H  H79  1  0.32920000  0.93600000  0.52690000  1
  H  H80  1  0.36550000  0.31890000  0.36890000  1
  H  H81  1  0.36550000  0.81890000  0.13110000  1
  H  H82  1  0.36980000  0.15720000  0.06560000  1
  H  H83  1  0.36980000  0.65720000  0.43440000  1
  H  H84  1  0.37050000  0.44430000  0.50970000  1
  H  H85  1  0.37050000  0.94430000  0.99030000  1
  H  H86  1  0.38190000  0.09970000  0.97330000  1
  H  H87  1  0.38190000  0.59970000  0.52670000  1
  H  H88  1  0.38400000  0.14680000  0.90800000  1
  H  H89  1  0.38400000  0.64680000  0.59200000  1
  H  H90  1  0.39460000  0.22920000  0.08990000  1
  H  H91  1  0.39460000  0.72920000  0.41010000  1
  H  H92  1  0.39930000  0.16360000  0.77670000  1
  H  H93  1  0.39930000  0.66360000  0.72330000  1
  H  H94  1  0.40440000  0.41970000  0.07050000  1
  H  H95  1  0.40440000  0.91970000  0.42950000  1
  H  H96  1  0.42060000  0.48480000  0.14750000  1
  H  H97  1  0.42060000  0.98480000  0.35250000  1
  H  H98  1  0.42350000  0.34610000  0.09270000  1
  H  H99  1  0.42350000  0.84610000  0.40730000  1
  H  H100  1  0.43120000  0.08510000  0.13790000  1
  H  H101  1  0.43120000  0.58510000  0.36210000  1
  H  H102  1  0.44250000  0.41240000  0.17190000  1
  H  H103  1  0.44250000  0.91240000  0.32810000  1
  H  H104  1  0.45100000  0.30170000  0.77300000  1
  H  H105  1  0.45100000  0.80170000  0.72700000  1
  H  H106  1  0.45350000  0.46550000  0.55220000  1
  H  H107  1  0.45350000  0.96550000  0.94780000  1
  H  H108  1  0.45390000  0.27760000  0.33260000  1
  H  H109  1  0.45390000  0.77760000  0.16740000  1
  H  H110  1  0.45810000  0.15280000  0.72860000  1
  H  H111  1  0.45810000  0.65280000  0.77140000  1
  H  H112  1  0.46320000  0.15480000  0.16410000  1
  H  H113  1  0.46320000  0.65480000  0.33590000  1
  H  H114  1  0.47600000  0.42210000  0.88140000  1
  H  H115  1  0.47600000  0.92210000  0.61860000  1
  H  H116  1  0.48460000  0.46530000  0.96470000  1
  H  H117  1  0.48460000  0.96530000  0.53530000  1
  H  H118  1  0.49220000  0.20450000  0.22470000  1
  H  H119  1  0.49220000  0.70450000  0.27530000  1
  H  H120  1  0.50780000  0.29550000  0.72470000  1
  H  H121  1  0.50780000  0.79550000  0.77530000  1
  H  H122  1  0.51540000  0.03470000  0.46470000  1
  H  H123  1  0.51540000  0.53470000  0.03530000  1
  H  H124  1  0.52400000  0.07790000  0.38140000  1
  H  H125  1  0.52400000  0.57790000  0.11860000  1
  H  H126  1  0.53680000  0.34520000  0.66410000  1
  H  H127  1  0.53680000  0.84520000  0.83590000  1
  H  H128  1  0.54190000  0.34720000  0.22860000  1
  H  H129  1  0.54190000  0.84720000  0.27140000  1
  H  H130  1  0.54610000  0.22240000  0.83260000  1
  H  H131  1  0.54610000  0.72240000  0.66740000  1
  H  H132  1  0.54650000  0.03450000  0.05220000  1
  H  H133  1  0.54650000  0.53450000  0.44780000  1
  H  H134  1  0.54900000  0.19830000  0.27300000  1
  H  H135  1  0.54900000  0.69830000  0.22700000  1
  H  H136  1  0.55750000  0.08760000  0.67190000  1
  H  H137  1  0.55750000  0.58760000  0.82810000  1
  H  H138  1  0.56880000  0.41490000  0.63790000  1
  H  H139  1  0.56880000  0.91490000  0.86210000  1
  H  H140  1  0.57650000  0.15390000  0.59270000  1
  H  H141  1  0.57650000  0.65390000  0.90730000  1
  H  H142  1  0.57940000  0.01520000  0.64750000  1
  H  H143  1  0.57940000  0.51520000  0.85250000  1
  H  H144  1  0.59560000  0.08030000  0.57050000  1
  H  H145  1  0.59560000  0.58030000  0.92950000  1
  H  H146  1  0.60070000  0.33640000  0.27670000  1
  H  H147  1  0.60070000  0.83640000  0.22330000  1
  H  H148  1  0.60540000  0.27080000  0.58990000  1
  H  H149  1  0.60540000  0.77080000  0.91010000  1
  H  H150  1  0.61600000  0.35320000  0.40800000  1
  H  H151  1  0.61600000  0.85320000  0.09200000  1
  H  H152  1  0.61810000  0.40030000  0.47330000  1
  H  H153  1  0.61810000  0.90030000  0.02670000  1
  H  H154  1  0.62950000  0.05570000  0.00970000  1
  H  H155  1  0.62950000  0.55570000  0.49030000  1
  H  H156  1  0.63020000  0.34280000  0.56560000  1
  H  H157  1  0.63020000  0.84280000  0.93440000  1
  H  H158  1  0.63450000  0.18110000  0.86890000  1
  H  H159  1  0.63450000  0.68110000  0.63110000  1
  H  H160  1  0.67080000  0.06400000  0.47310000  1
  H  H161  1  0.67080000  0.56400000  0.02690000  1
  H  H162  1  0.68140000  0.10470000  0.38710000  1
  H  H163  1  0.68140000  0.60470000  0.11290000  1
  H  H164  1  0.69810000  0.42230000  0.51690000  1
  H  H165  1  0.69810000  0.92230000  0.98310000  1
  H  H166  1  0.69820000  0.31630000  0.37020000  1
  H  H167  1  0.69820000  0.81630000  0.12980000  1
  H  H168  1  0.80180000  0.31630000  0.87020000  1
  H  H169  1  0.80180000  0.81630000  0.62980000  1
  H  H170  1  0.80190000  0.42230000  0.01690000  1
  H  H171  1  0.80190000  0.92230000  0.48310000  1
  H  H172  1  0.81860000  0.10470000  0.88710000  1
  H  H173  1  0.81860000  0.60470000  0.61290000  1
  H  H174  1  0.82920000  0.06400000  0.97310000  1
  H  H175  1  0.82920000  0.56400000  0.52690000  1
  H  H176  1  0.86550000  0.18110000  0.36890000  1
  H  H177  1  0.86550000  0.68110000  0.13110000  1
  H  H178  1  0.86980000  0.34280000  0.06560000  1
  H  H179  1  0.86980000  0.84280000  0.43440000  1
  H  H180  1  0.87050000  0.05570000  0.50970000  1
  H  H181  1  0.87050000  0.55570000  0.99030000  1
  H  H182  1  0.88190000  0.40030000  0.97330000  1
  H  H183  1  0.88190000  0.90030000  0.52670000  1
  H  H184  1  0.88400000  0.35320000  0.90800000  1
  H  H185  1  0.88400000  0.85320000  0.59200000  1
  H  H186  1  0.89460000  0.27080000  0.08990000  1
  H  H187  1  0.89460000  0.77080000  0.41010000  1
  H  H188  1  0.89930000  0.33640000  0.77670000  1
  H  H189  1  0.89930000  0.83640000  0.72330000  1
  H  H190  1  0.90440000  0.08030000  0.07050000  1
  H  H191  1  0.90440000  0.58030000  0.42950000  1
  H  H192  1  0.92060000  0.01520000  0.14750000  1
  H  H193  1  0.92060000  0.51520000  0.35250000  1
  H  H194  1  0.92350000  0.15390000  0.09270000  1
  H  H195  1  0.92350000  0.65390000  0.40730000  1
  H  H196  1  0.93120000  0.41490000  0.13790000  1
  H  H197  1  0.93120000  0.91490000  0.36210000  1
  H  H198  1  0.94250000  0.08760000  0.17190000  1
  H  H199  1  0.94250000  0.58760000  0.32810000  1
  H  H200  1  0.95100000  0.19830000  0.77300000  1
  H  H201  1  0.95100000  0.69830000  0.72700000  1
  H  H202  1  0.95350000  0.03450000  0.55220000  1
  H  H203  1  0.95350000  0.53450000  0.94780000  1
  H  H204  1  0.95390000  0.22240000  0.33260000  1
  H  H205  1  0.95390000  0.72240000  0.16740000  1
  H  H206  1  0.95810000  0.34720000  0.72860000  1
  H  H207  1  0.95810000  0.84720000  0.77140000  1
  H  H208  1  0.96320000  0.34520000  0.16410000  1
  H  H209  1  0.96320000  0.84520000  0.33590000  1
  H  H210  1  0.97600000  0.07790000  0.88140000  1
  H  H211  1  0.97600000  0.57790000  0.61860000  1
  H  H212  1  0.98460000  0.03470000  0.96470000  1
  H  H213  1  0.98460000  0.53470000  0.53530000  1
  H  H214  1  0.99220000  0.29550000  0.22470000  1
  H  H215  1  0.99220000  0.79550000  0.27530000  1
  C  C216  1  0.01230000  0.22350000  0.22099000  1
  C  C217  1  0.01230000  0.72350000  0.27901000  1
  C  C218  1  0.01260000  0.29400000  0.84800000  1
  C  C219  1  0.01260000  0.79400000  0.65200000  1
  C  C220  1  0.01270000  0.45050000  0.03630000  1
  C  C221  1  0.01270000  0.95050000  0.46370000  1
  C  C222  1  0.01440000  0.41830000  0.98725000  1
  C  C223  1  0.01440000  0.91830000  0.51275000  1
  C  C224  1  0.01460000  0.26780000  0.23485000  1
  C  C225  1  0.01460000  0.76780000  0.26515000  1
  C  C226  1  0.01800000  0.33920000  0.89294000  1
  C  C227  1  0.01800000  0.83920000  0.60706000  1
  C  C228  1  0.01910000  0.28040000  0.68999000  1
  C  C229  1  0.01910000  0.78040000  0.81001000  1
  C  C230  1  0.04420000  0.18400000  0.23710000  1
  C  C231  1  0.04420000  0.68400000  0.26290000  1
  C  C232  1  0.04940000  0.27140000  0.26336000  1
  C  C233  1  0.04940000  0.77140000  0.23664000  1
  C  C234  1  0.04950000  0.45070000  0.44870000  1
  C  C235  1  0.04950000  0.95070000  0.05130000  1
  C  C236  1  0.05390000  0.32420000  0.64980000  1
  C  C237  1  0.05390000  0.82420000  0.85020000  1
  C  C238  1  0.05500000  0.42600000  0.40010000  1
  C  C239  1  0.05500000  0.92600000  0.09990000  1
  C  C240  1  0.05550000  0.24460000  0.64685000  1
  C  C241  1  0.05550000  0.74460000  0.85315000  1
  C  C242  1  0.05760000  0.15620000  0.64394000  1
  C  C243  1  0.05760000  0.65620000  0.85606000  1
  C  C244  1  0.06200000  0.43860000  0.01100000  1
  C  C245  1  0.06200000  0.93860000  0.48900000  1
  C  C246  1  0.06530000  0.37240000  0.63491000  1
  C  C247  1  0.06530000  0.87240000  0.86509000  1
  C  C248  1  0.06600000  0.31770000  0.86990000  1
  C  C249  1  0.06600000  0.81770000  0.63010000  1
  C  C250  1  0.06610000  0.41310000  0.65100000  1
  C  C251  1  0.06610000  0.91310000  0.84900000  1
  C  C252  1  0.06870000  0.40270000  0.96064000  1
  C  C253  1  0.06870000  0.90270000  0.53936000  1
  C  C254  1  0.07000000  0.19950000  0.62990000  1
  C  C255  1  0.07000000  0.69950000  0.87010000  1
  C  C256  1  0.07060000  0.36460000  0.91661000  1
  C  C257  1  0.07060000  0.86460000  0.58339000  1
  C  C258  1  0.07600000  0.11500000  0.62811000  1
  C  C259  1  0.07600000  0.61500000  0.87189000  1
  C  C260  1  0.07700000  0.37440000  0.60440000  1
  C  C261  1  0.07700000  0.87440000  0.89560000  1
  C  C262  1  0.07940000  0.19070000  0.26560000  1
  C  C263  1  0.07940000  0.69070000  0.23440000  1
  C  C264  1  0.07970000  0.45600000  0.63620000  1
  C  C265  1  0.07970000  0.95600000  0.86380000  1
  C  C266  1  0.08080000  0.16180000  0.39240000  1
  C  C267  1  0.08080000  0.66180000  0.10760000  1
  C  C268  1  0.08230000  0.08720000  0.48950000  1
  C  C269  1  0.08230000  0.58720000  0.01050000  1
  C  C270  1  0.08940000  0.41830000  0.59150000  1
  C  C271  1  0.08940000  0.91830000  0.90850000  1
  C  C272  1  0.09730000  0.19980000  0.60028000  1
  C  C273  1  0.09730000  0.69980000  0.89972000  1
  C  C274  1  0.11250000  0.15670000  0.58600000  1
  C  C275  1  0.11250000  0.65670000  0.91400000  1
  C  C276  1  0.12950000  0.18400000  0.37000000  1
  C  C277  1  0.12950000  0.68400000  0.13000000  1
  C  C278  1  0.12980000  0.07460000  0.51590000  1
  C  C279  1  0.12980000  0.57460000  0.98410000  1
  C  C280  1  0.14250000  0.43360000  0.45390000  1
  C  C281  1  0.14250000  0.93360000  0.04610000  1
  C  C282  1  0.14820000  0.40930000  0.40340000  1
  C  C283  1  0.14820000  0.90930000  0.09660000  1
  C  C284  1  0.19250000  0.41330000  0.43080000  1
  C  C285  1  0.19250000  0.91330000  0.06920000  1
  C  C286  1  0.20570000  0.39870000  0.93499000  1
  C  C287  1  0.20570000  0.89870000  0.56501000  1
  C  C288  1  0.29430000  0.39870000  0.43499000  1
  C  C289  1  0.29430000  0.89870000  0.06501000  1
  C  C290  1  0.30750000  0.41330000  0.93080000  1
  C  C291  1  0.30750000  0.91330000  0.56920000  1
  C  C292  1  0.35180000  0.40930000  0.90340000  1
  C  C293  1  0.35180000  0.90930000  0.59660000  1
  C  C294  1  0.35750000  0.43360000  0.95390000  1
  C  C295  1  0.35750000  0.93360000  0.54610000  1
  C  C296  1  0.37020000  0.07460000  0.01590000  1
  C  C297  1  0.37020000  0.57460000  0.48410000  1
  C  C298  1  0.37050000  0.18400000  0.87000000  1
  C  C299  1  0.37050000  0.68400000  0.63000000  1
  C  C300  1  0.38750000  0.15670000  0.08600000  1
  C  C301  1  0.38750000  0.65670000  0.41400000  1
  C  C302  1  0.40270000  0.19980000  0.10028000  1
  C  C303  1  0.40270000  0.69980000  0.39972000  1
  C  C304  1  0.41060000  0.41830000  0.09150000  1
  C  C305  1  0.41060000  0.91830000  0.40850000  1
  C  C306  1  0.41770000  0.08720000  0.98950000  1
  C  C307  1  0.41770000  0.58720000  0.51050000  1
  C  C308  1  0.41920000  0.16180000  0.89240000  1
  C  C309  1  0.41920000  0.66180000  0.60760000  1
  C  C310  1  0.42030000  0.45600000  0.13620000  1
  C  C311  1  0.42030000  0.95600000  0.36380000  1
  C  C312  1  0.42060000  0.19070000  0.76560000  1
  C  C313  1  0.42060000  0.69070000  0.73440000  1
  C  C314  1  0.42300000  0.37440000  0.10440000  1
  C  C315  1  0.42300000  0.87440000  0.39560000  1
  C  C316  1  0.42400000  0.11500000  0.12811000  1
  C  C317  1  0.42400000  0.61500000  0.37189000  1
  C  C318  1  0.42940000  0.36460000  0.41661000  1
  C  C319  1  0.42940000  0.86460000  0.08339000  1
  C  C320  1  0.43000000  0.19950000  0.12990000  1
  C  C321  1  0.43000000  0.69950000  0.37010000  1
  C  C322  1  0.43130000  0.40270000  0.46064000  1
  C  C323  1  0.43130000  0.90270000  0.03936000  1
  C  C324  1  0.43390000  0.41310000  0.15100000  1
  C  C325  1  0.43390000  0.91310000  0.34900000  1
  C  C326  1  0.43400000  0.31770000  0.36990000  1
  C  C327  1  0.43400000  0.81770000  0.13010000  1
  C  C328  1  0.43470000  0.37240000  0.13491000  1
  C  C329  1  0.43470000  0.87240000  0.36509000  1
  C  C330  1  0.43800000  0.43860000  0.51100000  1
  C  C331  1  0.43800000  0.93860000  0.98900000  1
  C  C332  1  0.44240000  0.15620000  0.14394000  1
  C  C333  1  0.44240000  0.65620000  0.35606000  1
  C  C334  1  0.44450000  0.24460000  0.14685000  1
  C  C335  1  0.44450000  0.74460000  0.35315000  1
  C  C336  1  0.44500000  0.42600000  0.90010000  1
  C  C337  1  0.44500000  0.92600000  0.59990000  1
  C  C338  1  0.44610000  0.32420000  0.14980000  1
  C  C339  1  0.44610000  0.82420000  0.35020000  1
  C  C340  1  0.45050000  0.45070000  0.94870000  1
  C  C341  1  0.45050000  0.95070000  0.55130000  1
  C  C342  1  0.45060000  0.27140000  0.76336000  1
  C  C343  1  0.45060000  0.77140000  0.73664000  1
  C  C344  1  0.45580000  0.18400000  0.73710000  1
  C  C345  1  0.45580000  0.68400000  0.76290000  1
  C  C346  1  0.48090000  0.28040000  0.18999000  1
  C  C347  1  0.48090000  0.78040000  0.31001000  1
  C  C348  1  0.48200000  0.33920000  0.39294000  1
  C  C349  1  0.48200000  0.83920000  0.10706000  1
  C  C350  1  0.48540000  0.26780000  0.73485000  1
  C  C351  1  0.48540000  0.76780000  0.76515000  1
  C  C352  1  0.48560000  0.41830000  0.48725000  1
  C  C353  1  0.48560000  0.91830000  0.01275000  1
  C  C354  1  0.48730000  0.45050000  0.53630000  1
  C  C355  1  0.48730000  0.95050000  0.96370000  1
  C  C356  1  0.48740000  0.29400000  0.34800000  1
  C  C357  1  0.48740000  0.79400000  0.15200000  1
  C  C358  1  0.48770000  0.22350000  0.72099000  1
  C  C359  1  0.48770000  0.72350000  0.77901000  1
  C  C360  1  0.51230000  0.27650000  0.22099000  1
  C  C361  1  0.51230000  0.77650000  0.27901000  1
  C  C362  1  0.51260000  0.20600000  0.84800000  1
  C  C363  1  0.51260000  0.70600000  0.65200000  1
  C  C364  1  0.51270000  0.04950000  0.03630000  1
  C  C365  1  0.51270000  0.54950000  0.46370000  1
  C  C366  1  0.51440000  0.08170000  0.98725000  1
  C  C367  1  0.51440000  0.58170000  0.51275000  1
  C  C368  1  0.51460000  0.23220000  0.23485000  1
  C  C369  1  0.51460000  0.73220000  0.26515000  1
  C  C370  1  0.51800000  0.16080000  0.89294000  1
  C  C371  1  0.51800000  0.66080000  0.60706000  1
  C  C372  1  0.51910000  0.21960000  0.68999000  1
  C  C373  1  0.51910000  0.71960000  0.81001000  1
  C  C374  1  0.54420000  0.31600000  0.23710000  1
  C  C375  1  0.54420000  0.81600000  0.26290000  1
  C  C376  1  0.54940000  0.22860000  0.26336000  1
  C  C377  1  0.54940000  0.72860000  0.23664000  1
  C  C378  1  0.54950000  0.04930000  0.44870000  1
  C  C379  1  0.54950000  0.54930000  0.05130000  1
  C  C380  1  0.55390000  0.17580000  0.64980000  1
  C  C381  1  0.55390000  0.67580000  0.85020000  1
  C  C382  1  0.55500000  0.07400000  0.40010000  1
  C  C383  1  0.55500000  0.57400000  0.09990000  1
  C  C384  1  0.55550000  0.25540000  0.64685000  1
  C  C385  1  0.55550000  0.75540000  0.85315000  1
  C  C386  1  0.55760000  0.34380000  0.64394000  1
  C  C387  1  0.55760000  0.84380000  0.85606000  1
  C  C388  1  0.56200000  0.06140000  0.01100000  1
  C  C389  1  0.56200000  0.56140000  0.48900000  1
  C  C390  1  0.56530000  0.12760000  0.63491000  1
  C  C391  1  0.56530000  0.62760000  0.86509000  1
  C  C392  1  0.56600000  0.18230000  0.86990000  1
  C  C393  1  0.56600000  0.68230000  0.63010000  1
  C  C394  1  0.56610000  0.08690000  0.65100000  1
  C  C395  1  0.56610000  0.58690000  0.84900000  1
  C  C396  1  0.56870000  0.09730000  0.96064000  1
  C  C397  1  0.56870000  0.59730000  0.53936000  1
  C  C398  1  0.57000000  0.30050000  0.62990000  1
  C  C399  1  0.57000000  0.80050000  0.87010000  1
  C  C400  1  0.57060000  0.13540000  0.91661000  1
  C  C401  1  0.57060000  0.63540000  0.58339000  1
  C  C402  1  0.57600000  0.38500000  0.62811000  1
  C  C403  1  0.57600000  0.88500000  0.87189000  1
  C  C404  1  0.57700000  0.12560000  0.60440000  1
  C  C405  1  0.57700000  0.62560000  0.89560000  1
  C  C406  1  0.57940000  0.30930000  0.26560000  1
  C  C407  1  0.57940000  0.80930000  0.23440000  1
  C  C408  1  0.57970000  0.04400000  0.63620000  1
  C  C409  1  0.57970000  0.54400000  0.86380000  1
  C  C410  1  0.58080000  0.33820000  0.39240000  1
  C  C411  1  0.58080000  0.83820000  0.10760000  1
  C  C412  1  0.58230000  0.41280000  0.48950000  1
  C  C413  1  0.58230000  0.91280000  0.01050000  1
  C  C414  1  0.58940000  0.08170000  0.59150000  1
  C  C415  1  0.58940000  0.58170000  0.90850000  1
  C  C416  1  0.59730000  0.30020000  0.60028000  1
  C  C417  1  0.59730000  0.80020000  0.89972000  1
  C  C418  1  0.61250000  0.34330000  0.58600000  1
  C  C419  1  0.61250000  0.84330000  0.91400000  1
  C  C420  1  0.62950000  0.31600000  0.37000000  1
  C  C421  1  0.62950000  0.81600000  0.13000000  1
  C  C422  1  0.62980000  0.42540000  0.51590000  1
  C  C423  1  0.62980000  0.92540000  0.98410000  1
  C  C424  1  0.64250000  0.06640000  0.45390000  1
  C  C425  1  0.64250000  0.56640000  0.04610000  1
  C  C426  1  0.64820000  0.09070000  0.40340000  1
  C  C427  1  0.64820000  0.59070000  0.09660000  1
  C  C428  1  0.69250000  0.08670000  0.43080000  1
  C  C429  1  0.69250000  0.58670000  0.06920000  1
  C  C430  1  0.70570000  0.10130000  0.93499000  1
  C  C431  1  0.70570000  0.60130000  0.56501000  1
  C  C432  1  0.79430000  0.10130000  0.43499000  1
  C  C433  1  0.79430000  0.60130000  0.06501000  1
  C  C434  1  0.80750000  0.08670000  0.93080000  1
  C  C435  1  0.80750000  0.58670000  0.56920000  1
  C  C436  1  0.85180000  0.09070000  0.90340000  1
  C  C437  1  0.85180000  0.59070000  0.59660000  1
  C  C438  1  0.85750000  0.06640000  0.95390000  1
  C  C439  1  0.85750000  0.56640000  0.54610000  1
  C  C440  1  0.87020000  0.42540000  0.01590000  1
  C  C441  1  0.87020000  0.92540000  0.48410000  1
  C  C442  1  0.87050000  0.31600000  0.87000000  1
  C  C443  1  0.87050000  0.81600000  0.63000000  1
  C  C444  1  0.88750000  0.34330000  0.08600000  1
  C  C445  1  0.88750000  0.84330000  0.41400000  1
  C  C446  1  0.90270000  0.30020000  0.10028000  1
  C  C447  1  0.90270000  0.80020000  0.39972000  1
  C  C448  1  0.91060000  0.08170000  0.09150000  1
  C  C449  1  0.91060000  0.58170000  0.40850000  1
  C  C450  1  0.91770000  0.41280000  0.98950000  1
  C  C451  1  0.91770000  0.91280000  0.51050000  1
  C  C452  1  0.91920000  0.33820000  0.89240000  1
  C  C453  1  0.91920000  0.83820000  0.60760000  1
  C  C454  1  0.92030000  0.04400000  0.13620000  1
  C  C455  1  0.92030000  0.54400000  0.36380000  1
  C  C456  1  0.92060000  0.30930000  0.76560000  1
  C  C457  1  0.92060000  0.80930000  0.73440000  1
  C  C458  1  0.92300000  0.12560000  0.10440000  1
  C  C459  1  0.92300000  0.62560000  0.39560000  1
  C  C460  1  0.92400000  0.38500000  0.12811000  1
  C  C461  1  0.92400000  0.88500000  0.37189000  1
  C  C462  1  0.92940000  0.13540000  0.41661000  1
  C  C463  1  0.92940000  0.63540000  0.08339000  1
  C  C464  1  0.93000000  0.30050000  0.12990000  1
  C  C465  1  0.93000000  0.80050000  0.37010000  1
  C  C466  1  0.93130000  0.09730000  0.46064000  1
  C  C467  1  0.93130000  0.59730000  0.03936000  1
  C  C468  1  0.93390000  0.08690000  0.15100000  1
  C  C469  1  0.93390000  0.58690000  0.34900000  1
  C  C470  1  0.93400000  0.18230000  0.36990000  1
  C  C471  1  0.93400000  0.68230000  0.13010000  1
  C  C472  1  0.93470000  0.12760000  0.13491000  1
  C  C473  1  0.93470000  0.62760000  0.36509000  1
  C  C474  1  0.93800000  0.06140000  0.51100000  1
  C  C475  1  0.93800000  0.56140000  0.98900000  1
  C  C476  1  0.94240000  0.34380000  0.14394000  1
  C  C477  1  0.94240000  0.84380000  0.35606000  1
  C  C478  1  0.94450000  0.25540000  0.14685000  1
  C  C479  1  0.94450000  0.75540000  0.35315000  1
  C  C480  1  0.94500000  0.07400000  0.90010000  1
  C  C481  1  0.94500000  0.57400000  0.59990000  1
  C  C482  1  0.94610000  0.17580000  0.14980000  1
  C  C483  1  0.94610000  0.67580000  0.35020000  1
  C  C484  1  0.95050000  0.04930000  0.94870000  1
  C  C485  1  0.95050000  0.54930000  0.55130000  1
  C  C486  1  0.95060000  0.22860000  0.76336000  1
  C  C487  1  0.95060000  0.72860000  0.73664000  1
  C  C488  1  0.95580000  0.31600000  0.73710000  1
  C  C489  1  0.95580000  0.81600000  0.76290000  1
  C  C490  1  0.98090000  0.21960000  0.18999000  1
  C  C491  1  0.98090000  0.71960000  0.31001000  1
  C  C492  1  0.98200000  0.16080000  0.39294000  1
  C  C493  1  0.98200000  0.66080000  0.10706000  1
  C  C494  1  0.98540000  0.23220000  0.73485000  1
  C  C495  1  0.98540000  0.73220000  0.76515000  1
  C  C496  1  0.98560000  0.08170000  0.48725000  1
  C  C497  1  0.98560000  0.58170000  0.01275000  1
  C  C498  1  0.98730000  0.04950000  0.53630000  1
  C  C499  1  0.98730000  0.54950000  0.96370000  1
  C  C500  1  0.98740000  0.20600000  0.34800000  1
  C  C501  1  0.98740000  0.70600000  0.15200000  1
  C  C502  1  0.98770000  0.27650000  0.72099000  1
  C  C503  1  0.98770000  0.77650000  0.77901000  1
  I  I504  1  0.06036000  0.48636000  0.89149000  1
  I  I505  1  0.06036000  0.98636000  0.60851000  1
  I  I506  1  0.17109000  0.33049000  0.32937000  1
  I  I507  1  0.17109000  0.83049000  0.17063000  1
  I  I508  1  0.17228000  0.05994000  0.07336000  1
  I  I509  1  0.17228000  0.55994000  0.42664000  1
  I  I510  1  0.17967000  0.19613000  0.81044000  1
  I  I511  1  0.17967000  0.69613000  0.68956000  1
  I  I512  1  0.20093000  0.00269000  0.96449000  1
  I  I513  1  0.20093000  0.50269000  0.53551000  1
  I  I514  1  0.20976000  0.07504000  0.87643000  1
  I  I515  1  0.20976000  0.57504000  0.62357000  1
  I  I516  1  0.29024000  0.07504000  0.37643000  1
  I  I517  1  0.29024000  0.57504000  0.12357000  1
  I  I518  1  0.29907000  0.00269000  0.46449000  1
  I  I519  1  0.29907000  0.50269000  0.03551000  1
  I  I520  1  0.32033000  0.19613000  0.31044000  1
  I  I521  1  0.32033000  0.69613000  0.18956000  1
  I  I522  1  0.32772000  0.05994000  0.57336000  1
  I  I523  1  0.32772000  0.55994000  0.92664000  1
  I  I524  1  0.32891000  0.33049000  0.82937000  1
  I  I525  1  0.32891000  0.83049000  0.67063000  1
  I  I526  1  0.43964000  0.48636000  0.39149000  1
  I  I527  1  0.43964000  0.98636000  0.10851000  1
  I  I528  1  0.56036000  0.01364000  0.89149000  1
  I  I529  1  0.56036000  0.51364000  0.60851000  1
  I  I530  1  0.67109000  0.16951000  0.32937000  1
  I  I531  1  0.67109000  0.66951000  0.17063000  1
  I  I532  1  0.67228000  0.44006000  0.07336000  1
  I  I533  1  0.67228000  0.94006000  0.42664000  1
  I  I534  1  0.67967000  0.30387000  0.81044000  1
  I  I535  1  0.67967000  0.80387000  0.68956000  1
  I  I536  1  0.70093000  0.49731000  0.96449000  1
  I  I537  1  0.70093000  0.99731000  0.53551000  1
  I  I538  1  0.70976000  0.42496000  0.87643000  1
  I  I539  1  0.70976000  0.92496000  0.62357000  1
  I  I540  1  0.79024000  0.42496000  0.37643000  1
  I  I541  1  0.79024000  0.92496000  0.12357000  1
  I  I542  1  0.79907000  0.49731000  0.46449000  1
  I  I543  1  0.79907000  0.99731000  0.03551000  1
  I  I544  1  0.82033000  0.30387000  0.31044000  1
  I  I545  1  0.82033000  0.80387000  0.18956000  1
  I  I546  1  0.82772000  0.44006000  0.57336000  1
  I  I547  1  0.82772000  0.94006000  0.92664000  1
  I  I548  1  0.82891000  0.16951000  0.82937000  1
  I  I549  1  0.82891000  0.66951000  0.67063000  1
  I  I550  1  0.93964000  0.01364000  0.39149000  1
  I  I551  1  0.93964000  0.51364000  0.10851000  1
  N  N552  1  0.00640000  0.44750000  0.42214000  1
  N  N553  1  0.00640000  0.94750000  0.07786000  1
  N  N554  1  0.01850000  0.37870000  0.94024000  1
  N  N555  1  0.01850000  0.87870000  0.55976000  1
  N  N556  1  0.03020000  0.32440000  0.67825000  1
  N  N557  1  0.03020000  0.82440000  0.82175000  1
  N  N558  1  0.03110000  0.24030000  0.67563000  1
  N  N559  1  0.03110000  0.74030000  0.82437000  1
  N  N560  1  0.06630000  0.28600000  0.63283000  1
  N  N561  1  0.06630000  0.78600000  0.86717000  1
  N  N562  1  0.08310000  0.05850000  0.53935000  1
  N  N563  1  0.08310000  0.55850000  0.96065000  1
  N  N564  1  0.08330000  0.20620000  0.34783000  1
  N  N565  1  0.08330000  0.70620000  0.15217000  1
  N  N566  1  0.08400000  0.23330000  0.27795000  1
  N  N567  1  0.08400000  0.73330000  0.22205000  1
  N  N568  1  0.09320000  0.45920000  0.60664000  1
  N  N569  1  0.09320000  0.95920000  0.89336000  1
  N  N570  1  0.10370000  0.11500000  0.59930000  1
  N  N571  1  0.10370000  0.61500000  0.90070000  1
  N  N572  1  0.16170000  0.41410000  0.95916000  1
  N  N573  1  0.16170000  0.91410000  0.54084000  1
  N  N574  1  0.16440000  0.37240000  0.91286000  1
  N  N575  1  0.16440000  0.87240000  0.58714000  1
  N  N576  1  0.33560000  0.37240000  0.41286000  1
  N  N577  1  0.33560000  0.87240000  0.08714000  1
  N  N578  1  0.33830000  0.41410000  0.45916000  1
  N  N579  1  0.33830000  0.91410000  0.04084000  1
  N  N580  1  0.39630000  0.11500000  0.09930000  1
  N  N581  1  0.39630000  0.61500000  0.40070000  1
  N  N582  1  0.40680000  0.45920000  0.10664000  1
  N  N583  1  0.40680000  0.95920000  0.39336000  1
  N  N584  1  0.41600000  0.23330000  0.77795000  1
  N  N585  1  0.41600000  0.73330000  0.72205000  1
  N  N586  1  0.41670000  0.20620000  0.84783000  1
  N  N587  1  0.41670000  0.70620000  0.65217000  1
  N  N588  1  0.41690000  0.05850000  0.03935000  1
  N  N589  1  0.41690000  0.55850000  0.46065000  1
  N  N590  1  0.43370000  0.28600000  0.13283000  1
  N  N591  1  0.43370000  0.78600000  0.36717000  1
  N  N592  1  0.46890000  0.24030000  0.17563000  1
  N  N593  1  0.46890000  0.74030000  0.32437000  1
  N  N594  1  0.46980000  0.32440000  0.17825000  1
  N  N595  1  0.46980000  0.82440000  0.32175000  1
  N  N596  1  0.48150000  0.37870000  0.44024000  1
  N  N597  1  0.48150000  0.87870000  0.05976000  1
  N  N598  1  0.49360000  0.44750000  0.92214000  1
  N  N599  1  0.49360000  0.94750000  0.57786000  1
  N  N600  1  0.50640000  0.05250000  0.42214000  1
  N  N601  1  0.50640000  0.55250000  0.07786000  1
  N  N602  1  0.51850000  0.12130000  0.94024000  1
  N  N603  1  0.51850000  0.62130000  0.55976000  1
  N  N604  1  0.53020000  0.17560000  0.67825000  1
  N  N605  1  0.53020000  0.67560000  0.82175000  1
  N  N606  1  0.53110000  0.25970000  0.67563000  1
  N  N607  1  0.53110000  0.75970000  0.82437000  1
  N  N608  1  0.56630000  0.21400000  0.63283000  1
  N  N609  1  0.56630000  0.71400000  0.86717000  1
  N  N610  1  0.58310000  0.44150000  0.53935000  1
  N  N611  1  0.58310000  0.94150000  0.96065000  1
  N  N612  1  0.58330000  0.29380000  0.34783000  1
  N  N613  1  0.58330000  0.79380000  0.15217000  1
  N  N614  1  0.58400000  0.26670000  0.27795000  1
  N  N615  1  0.58400000  0.76670000  0.22205000  1
  N  N616  1  0.59320000  0.04080000  0.60664000  1
  N  N617  1  0.59320000  0.54080000  0.89336000  1
  N  N618  1  0.60370000  0.38500000  0.59930000  1
  N  N619  1  0.60370000  0.88500000  0.90070000  1
  N  N620  1  0.66170000  0.08590000  0.95916000  1
  N  N621  1  0.66170000  0.58590000  0.54084000  1
  N  N622  1  0.66440000  0.12760000  0.91286000  1
  N  N623  1  0.66440000  0.62760000  0.58714000  1
  N  N624  1  0.83560000  0.12760000  0.41286000  1
  N  N625  1  0.83560000  0.62760000  0.08714000  1
  N  N626  1  0.83830000  0.08590000  0.45916000  1
  N  N627  1  0.83830000  0.58590000  0.04084000  1
  N  N628  1  0.89630000  0.38500000  0.09930000  1
  N  N629  1  0.89630000  0.88500000  0.40070000  1
  N  N630  1  0.90680000  0.04080000  0.10664000  1
  N  N631  1  0.90680000  0.54080000  0.39336000  1
  N  N632  1  0.91600000  0.26670000  0.77795000  1
  N  N633  1  0.91600000  0.76670000  0.72205000  1
  N  N634  1  0.91670000  0.29380000  0.84783000  1
  N  N635  1  0.91670000  0.79380000  0.65217000  1
  N  N636  1  0.91690000  0.44150000  0.03935000  1
  N  N637  1  0.91690000  0.94150000  0.46065000  1
  N  N638  1  0.93370000  0.21400000  0.13283000  1
  N  N639  1  0.93370000  0.71400000  0.36717000  1
  N  N640  1  0.96890000  0.25970000  0.17563000  1
  N  N641  1  0.96890000  0.75970000  0.32437000  1
  N  N642  1  0.96980000  0.17560000  0.17825000  1
  N  N643  1  0.96980000  0.67560000  0.32175000  1
  N  N644  1  0.98150000  0.12130000  0.44024000  1
  N  N645  1  0.98150000  0.62130000  0.05976000  1
  N  N646  1  0.99360000  0.05250000  0.92214000  1
  N  N647  1  0.99360000  0.55250000  0.57786000  1
