# generated using pymatgen
data_Zn3H24C50(N2O5)3
_symmetry_space_group_name_H-M   'P 1'
_cell_length_a   17.99800000
_cell_length_b   17.99800000
_cell_length_c   25.95770000
_cell_angle_alpha   90.00000000
_cell_angle_beta   90.00000000
_cell_angle_gamma   90.00000000
_symmetry_Int_Tables_number   1
_chemical_formula_structural   Zn3H24C50(N2O5)3
_chemical_formula_sum   'Zn12 H96 C200 N24 O60'
_cell_volume   8408.42594943
_cell_formula_units_Z   4
loop_
 _symmetry_equiv_pos_site_id
 _symmetry_equiv_pos_as_xyz
  1  'x, y, z'
loop_
 _atom_site_type_symbol
 _atom_site_label
 _atom_site_symmetry_multiplicity
 _atom_site_fract_x
 _atom_site_fract_y
 _atom_site_fract_z
 _atom_site_occupancy
  Zn  Zn0  1  0.24806000  0.50000000  0.25000000  1
  Zn  Zn1  1  0.24982000  0.33706000  0.32541000  1
  Zn  Zn2  1  0.24982000  0.66294000  0.17459000  1
  Zn  Zn3  1  0.33706000  0.24982000  0.42459000  1
  Zn  Zn4  1  0.33706000  0.75018000  0.07541000  1
  Zn  Zn5  1  0.50000000  0.24806000  0.50000000  1
  Zn  Zn6  1  0.50000000  0.75194000  0.00000000  1
  Zn  Zn7  1  0.66294000  0.24982000  0.57541000  1
  Zn  Zn8  1  0.66294000  0.75018000  0.92459000  1
  Zn  Zn9  1  0.75018000  0.33706000  0.67459000  1
  Zn  Zn10  1  0.75018000  0.66294000  0.82541000  1
  Zn  Zn11  1  0.75194000  0.50000000  0.75000000  1
  H  H12  1  0.00370000  0.33500000  0.32420000  1
  H  H13  1  0.00370000  0.66500000  0.17580000  1
  H  H14  1  0.06000000  0.44000000  0.18700000  1
  H  H15  1  0.06000000  0.56000000  0.31300000  1
  H  H16  1  0.06450000  0.45080000  0.82940000  1
  H  H17  1  0.06450000  0.54920000  0.67060000  1
  H  H18  1  0.12020000  0.34820000  0.69600000  1
  H  H19  1  0.12020000  0.65180000  0.80400000  1
  H  H20  1  0.18970000  0.44680000  0.61650000  1
  H  H21  1  0.18970000  0.55320000  0.88350000  1
  H  H22  1  0.22210000  0.36940000  0.54870000  1
  H  H23  1  0.22210000  0.63060000  0.95130000  1
  H  H24  1  0.24700000  0.37600000  0.13040000  1
  H  H25  1  0.24700000  0.62400000  0.36960000  1
  H  H26  1  0.29400000  0.30700000  0.06800000  1
  H  H27  1  0.29400000  0.69300000  0.43200000  1
  H  H28  1  0.30700000  0.29400000  0.68200000  1
  H  H29  1  0.30700000  0.70600000  0.81800000  1
  H  H30  1  0.33500000  0.00370000  0.42580000  1
  H  H31  1  0.33500000  0.99630000  0.07420000  1
  H  H32  1  0.34820000  0.12020000  0.05400000  1
  H  H33  1  0.34820000  0.87980000  0.44600000  1
  H  H34  1  0.36940000  0.22210000  0.20130000  1
  H  H35  1  0.36940000  0.77790000  0.29870000  1
  H  H36  1  0.37340000  0.46080000  0.44440000  1
  H  H37  1  0.37340000  0.53920000  0.05560000  1
  H  H38  1  0.37600000  0.24700000  0.61960000  1
  H  H39  1  0.37600000  0.75300000  0.88040000  1
  H  H40  1  0.41710000  0.45150000  0.99640000  1
  H  H41  1  0.41710000  0.54850000  0.50360000  1
  H  H42  1  0.42300000  0.44300000  0.18360000  1
  H  H43  1  0.42300000  0.55700000  0.31640000  1
  H  H44  1  0.42400000  0.49900000  0.86800000  1
  H  H45  1  0.42400000  0.50100000  0.63200000  1
  H  H46  1  0.44000000  0.06000000  0.56300000  1
  H  H47  1  0.44000000  0.94000000  0.93700000  1
  H  H48  1  0.44300000  0.42300000  0.56640000  1
  H  H49  1  0.44300000  0.57700000  0.93360000  1
  H  H50  1  0.44680000  0.18970000  0.13350000  1
  H  H51  1  0.44680000  0.81030000  0.36650000  1
  H  H52  1  0.45080000  0.06450000  0.92060000  1
  H  H53  1  0.45080000  0.93550000  0.57940000  1
  H  H54  1  0.45150000  0.41710000  0.75360000  1
  H  H55  1  0.45150000  0.58290000  0.74640000  1
  H  H56  1  0.46080000  0.37340000  0.30560000  1
  H  H57  1  0.46080000  0.62660000  0.19440000  1
  H  H58  1  0.49900000  0.42400000  0.88200000  1
  H  H59  1  0.49900000  0.57600000  0.61800000  1
  H  H60  1  0.50100000  0.42400000  0.11800000  1
  H  H61  1  0.50100000  0.57600000  0.38200000  1
  H  H62  1  0.53920000  0.37340000  0.69440000  1
  H  H63  1  0.53920000  0.62660000  0.80560000  1
  H  H64  1  0.54850000  0.41710000  0.24640000  1
  H  H65  1  0.54850000  0.58290000  0.25360000  1
  H  H66  1  0.54920000  0.06450000  0.07940000  1
  H  H67  1  0.54920000  0.93550000  0.42060000  1
  H  H68  1  0.55320000  0.18970000  0.86650000  1
  H  H69  1  0.55320000  0.81030000  0.63350000  1
  H  H70  1  0.55700000  0.42300000  0.43360000  1
  H  H71  1  0.55700000  0.57700000  0.06640000  1
  H  H72  1  0.56000000  0.06000000  0.43700000  1
  H  H73  1  0.56000000  0.94000000  0.06300000  1
  H  H74  1  0.57600000  0.49900000  0.13200000  1
  H  H75  1  0.57600000  0.50100000  0.36800000  1
  H  H76  1  0.57700000  0.44300000  0.81640000  1
  H  H77  1  0.57700000  0.55700000  0.68360000  1
  H  H78  1  0.58290000  0.45150000  0.00360000  1
  H  H79  1  0.58290000  0.54850000  0.49640000  1
  H  H80  1  0.62400000  0.24700000  0.38040000  1
  H  H81  1  0.62400000  0.75300000  0.11960000  1
  H  H82  1  0.62660000  0.46080000  0.55560000  1
  H  H83  1  0.62660000  0.53920000  0.94440000  1
  H  H84  1  0.63060000  0.22210000  0.79870000  1
  H  H85  1  0.63060000  0.77790000  0.70130000  1
  H  H86  1  0.65180000  0.12020000  0.94600000  1
  H  H87  1  0.65180000  0.87980000  0.55400000  1
  H  H88  1  0.66500000  0.00370000  0.57420000  1
  H  H89  1  0.66500000  0.99630000  0.92580000  1
  H  H90  1  0.69300000  0.29400000  0.31800000  1
  H  H91  1  0.69300000  0.70600000  0.18200000  1
  H  H92  1  0.70600000  0.30700000  0.93200000  1
  H  H93  1  0.70600000  0.69300000  0.56800000  1
  H  H94  1  0.75300000  0.37600000  0.86960000  1
  H  H95  1  0.75300000  0.62400000  0.63040000  1
  H  H96  1  0.77790000  0.36940000  0.45130000  1
  H  H97  1  0.77790000  0.63060000  0.04870000  1
  H  H98  1  0.81030000  0.44680000  0.38350000  1
  H  H99  1  0.81030000  0.55320000  0.11650000  1
  H  H100  1  0.87980000  0.34820000  0.30400000  1
  H  H101  1  0.87980000  0.65180000  0.19600000  1
  H  H102  1  0.93550000  0.45080000  0.17060000  1
  H  H103  1  0.93550000  0.54920000  0.32940000  1
  H  H104  1  0.94000000  0.44000000  0.81300000  1
  H  H105  1  0.94000000  0.56000000  0.68700000  1
  H  H106  1  0.99630000  0.33500000  0.67580000  1
  H  H107  1  0.99630000  0.66500000  0.82420000  1
  C  C108  1  0.01050000  0.35930000  0.70680000  1
  C  C109  1  0.01050000  0.64070000  0.79320000  1
  C  C110  1  0.02240000  0.42120000  0.21430000  1
  C  C111  1  0.02240000  0.57880000  0.28570000  1
  C  C112  1  0.04270000  0.38710000  0.26060000  1
  C  C113  1  0.04270000  0.61290000  0.23940000  1
  C  C114  1  0.05060000  0.42760000  0.79790000  1
  C  C115  1  0.05060000  0.57240000  0.70210000  1
  C  C116  1  0.08360000  0.36660000  0.71910000  1
  C  C117  1  0.08360000  0.63340000  0.78090000  1
  C  C118  1  0.10600000  0.40050000  0.76470000  1
  C  C119  1  0.10600000  0.59950000  0.73530000  1
  C  C120  1  0.12490000  0.38420000  0.27356000  1
  C  C121  1  0.12490000  0.61580000  0.22644000  1
  C  C122  1  0.18560000  0.41200000  0.77660000  1
  C  C123  1  0.18560000  0.58800000  0.72340000  1
  C  C124  1  0.18740000  0.22690000  0.39080000  1
  C  C125  1  0.18740000  0.77310000  0.10920000  1
  C  C126  1  0.22690000  0.18740000  0.35920000  1
  C  C127  1  0.22690000  0.81260000  0.14080000  1
  C  C128  1  0.24010000  0.44330000  0.60600000  1
  C  C129  1  0.24010000  0.55670000  0.89400000  1
  C  C130  1  0.25940000  0.39690000  0.56610000  1
  C  C131  1  0.25940000  0.60310000  0.93390000  1
  C  C132  1  0.27400000  0.46560000  0.82510000  1
  C  C133  1  0.27400000  0.53440000  0.67490000  1
  C  C134  1  0.27670000  0.47830000  0.36580000  1
  C  C135  1  0.27670000  0.52170000  0.13420000  1
  C  C136  1  0.28010000  0.39540000  0.09700000  1
  C  C137  1  0.28010000  0.60460000  0.40300000  1
  C  C138  1  0.29410000  0.48500000  0.63090000  1
  C  C139  1  0.29410000  0.51500000  0.86910000  1
  C  C140  1  0.30410000  0.46840000  0.09483000  1
  C  C141  1  0.30410000  0.53160000  0.40517000  1
  C  C142  1  0.30590000  0.39180000  0.75810000  1
  C  C143  1  0.30590000  0.60820000  0.74190000  1
  C  C144  1  0.30840000  0.34420000  0.06310000  1
  C  C145  1  0.30840000  0.65580000  0.43690000  1
  C  C146  1  0.33360000  0.39010000  0.55120000  1
  C  C147  1  0.33360000  0.60990000  0.94880000  1
  C  C148  1  0.33900000  0.35490000  0.24171000  1
  C  C149  1  0.33900000  0.64510000  0.25829000  1
  C  C150  1  0.34420000  0.30840000  0.68690000  1
  C  C151  1  0.34420000  0.69160000  0.81310000  1
  C  C152  1  0.35490000  0.33900000  0.50829000  1
  C  C153  1  0.35490000  0.66100000  0.99171000  1
  C  C154  1  0.35630000  0.48930000  0.05720000  1
  C  C155  1  0.35630000  0.51070000  0.44280000  1
  C  C156  1  0.35930000  0.01050000  0.04320000  1
  C  C157  1  0.35930000  0.98950000  0.45680000  1
  C  C158  1  0.35970000  0.36360000  0.02550000  1
  C  C159  1  0.35970000  0.63640000  0.47450000  1
  C  C160  1  0.36360000  0.35970000  0.72450000  1
  C  C161  1  0.36360000  0.64030000  0.77550000  1
  C  C162  1  0.36660000  0.08360000  0.03090000  1
  C  C163  1  0.36660000  0.91640000  0.46910000  1
  C  C164  1  0.36880000  0.47710000  0.61642000  1
  C  C165  1  0.36880000  0.52290000  0.88358000  1
  C  C166  1  0.38290000  0.43700000  0.02240000  1
  C  C167  1  0.38290000  0.56300000  0.47760000  1
  C  C168  1  0.38420000  0.12490000  0.47644000  1
  C  C169  1  0.38420000  0.87510000  0.02356000  1
  C  C170  1  0.38710000  0.04270000  0.48940000  1
  C  C171  1  0.38710000  0.95730000  0.01060000  1
  C  C172  1  0.38780000  0.43000000  0.57659000  1
  C  C173  1  0.38780000  0.57000000  0.92341000  1
  C  C174  1  0.39010000  0.33360000  0.19880000  1
  C  C175  1  0.39010000  0.66640000  0.30120000  1
  C  C176  1  0.39180000  0.30590000  0.99190000  1
  C  C177  1  0.39180000  0.69410000  0.50810000  1
  C  C178  1  0.39540000  0.28010000  0.65300000  1
  C  C179  1  0.39540000  0.71990000  0.84700000  1
  C  C180  1  0.39690000  0.25940000  0.18390000  1
  C  C181  1  0.39690000  0.74060000  0.31610000  1
  C  C182  1  0.40050000  0.10600000  0.98530000  1
  C  C183  1  0.40050000  0.89400000  0.51470000  1
  C  C184  1  0.41200000  0.18560000  0.97340000  1
  C  C185  1  0.41200000  0.81440000  0.52660000  1
  C  C186  1  0.42120000  0.02240000  0.53570000  1
  C  C187  1  0.42120000  0.97760000  0.96430000  1
  C  C188  1  0.42760000  0.05060000  0.95210000  1
  C  C189  1  0.42760000  0.94940000  0.54790000  1
  C  C190  1  0.43000000  0.38780000  0.17341000  1
  C  C191  1  0.43000000  0.61220000  0.32659000  1
  C  C192  1  0.43700000  0.38290000  0.72760000  1
  C  C193  1  0.43700000  0.61710000  0.77240000  1
  C  C194  1  0.44330000  0.24010000  0.14400000  1
  C  C195  1  0.44330000  0.75990000  0.35600000  1
  C  C196  1  0.46560000  0.27400000  0.92490000  1
  C  C197  1  0.46560000  0.72600000  0.57510000  1
  C  C198  1  0.46840000  0.30410000  0.65517000  1
  C  C199  1  0.46840000  0.69590000  0.84483000  1
  C  C200  1  0.47710000  0.36880000  0.13358000  1
  C  C201  1  0.47710000  0.63120000  0.36642000  1
  C  C202  1  0.47830000  0.27670000  0.38420000  1
  C  C203  1  0.47830000  0.72330000  0.11580000  1
  C  C204  1  0.48500000  0.29410000  0.11910000  1
  C  C205  1  0.48500000  0.70590000  0.38090000  1
  C  C206  1  0.48930000  0.35630000  0.69280000  1
  C  C207  1  0.48930000  0.64370000  0.80720000  1
  C  C208  1  0.51070000  0.35630000  0.30720000  1
  C  C209  1  0.51070000  0.64370000  0.19280000  1
  C  C210  1  0.51500000  0.29410000  0.88090000  1
  C  C211  1  0.51500000  0.70590000  0.61910000  1
  C  C212  1  0.52170000  0.27670000  0.61580000  1
  C  C213  1  0.52170000  0.72330000  0.88420000  1
  C  C214  1  0.52290000  0.36880000  0.86642000  1
  C  C215  1  0.52290000  0.63120000  0.63358000  1
  C  C216  1  0.53160000  0.30410000  0.34483000  1
  C  C217  1  0.53160000  0.69590000  0.15517000  1
  C  C218  1  0.53440000  0.27400000  0.07510000  1
  C  C219  1  0.53440000  0.72600000  0.42490000  1
  C  C220  1  0.55670000  0.24010000  0.85600000  1
  C  C221  1  0.55670000  0.75990000  0.64400000  1
  C  C222  1  0.56300000  0.38290000  0.27240000  1
  C  C223  1  0.56300000  0.61710000  0.22760000  1
  C  C224  1  0.57000000  0.38780000  0.82659000  1
  C  C225  1  0.57000000  0.61220000  0.67341000  1
  C  C226  1  0.57240000  0.05060000  0.04790000  1
  C  C227  1  0.57240000  0.94940000  0.45210000  1
  C  C228  1  0.57880000  0.02240000  0.46430000  1
  C  C229  1  0.57880000  0.97760000  0.03570000  1
  C  C230  1  0.58800000  0.18560000  0.02660000  1
  C  C231  1  0.58800000  0.81440000  0.47340000  1
  C  C232  1  0.59950000  0.10600000  0.01470000  1
  C  C233  1  0.59950000  0.89400000  0.48530000  1
  C  C234  1  0.60310000  0.25940000  0.81610000  1
  C  C235  1  0.60310000  0.74060000  0.68390000  1
  C  C236  1  0.60460000  0.28010000  0.34700000  1
  C  C237  1  0.60460000  0.71990000  0.15300000  1
  C  C238  1  0.60820000  0.30590000  0.00810000  1
  C  C239  1  0.60820000  0.69410000  0.49190000  1
  C  C240  1  0.60990000  0.33360000  0.80120000  1
  C  C241  1  0.60990000  0.66640000  0.69880000  1
  C  C242  1  0.61220000  0.43000000  0.42341000  1
  C  C243  1  0.61220000  0.57000000  0.07659000  1
  C  C244  1  0.61290000  0.04270000  0.51060000  1
  C  C245  1  0.61290000  0.95730000  0.98940000  1
  C  C246  1  0.61580000  0.12490000  0.52356000  1
  C  C247  1  0.61580000  0.87510000  0.97644000  1
  C  C248  1  0.61710000  0.43700000  0.97760000  1
  C  C249  1  0.61710000  0.56300000  0.52240000  1
  C  C250  1  0.63120000  0.47710000  0.38358000  1
  C  C251  1  0.63120000  0.52290000  0.11642000  1
  C  C252  1  0.63340000  0.08360000  0.96910000  1
  C  C253  1  0.63340000  0.91640000  0.53090000  1
  C  C254  1  0.63640000  0.35970000  0.27550000  1
  C  C255  1  0.63640000  0.64030000  0.22450000  1
  C  C256  1  0.64030000  0.36360000  0.97450000  1
  C  C257  1  0.64030000  0.63640000  0.52550000  1
  C  C258  1  0.64070000  0.01050000  0.95680000  1
  C  C259  1  0.64070000  0.98950000  0.54320000  1
  C  C260  1  0.64370000  0.48930000  0.94280000  1
  C  C261  1  0.64370000  0.51070000  0.55720000  1
  C  C262  1  0.64510000  0.33900000  0.49171000  1
  C  C263  1  0.64510000  0.66100000  0.00829000  1
  C  C264  1  0.65580000  0.30840000  0.31310000  1
  C  C265  1  0.65580000  0.69160000  0.18690000  1
  C  C266  1  0.66100000  0.35490000  0.75829000  1
  C  C267  1  0.66100000  0.64510000  0.74171000  1
  C  C268  1  0.66640000  0.39010000  0.44880000  1
  C  C269  1  0.66640000  0.60990000  0.05120000  1
  C  C270  1  0.69160000  0.34420000  0.93690000  1
  C  C271  1  0.69160000  0.65580000  0.56310000  1
  C  C272  1  0.69410000  0.39180000  0.24190000  1
  C  C273  1  0.69410000  0.60820000  0.25810000  1
  C  C274  1  0.69590000  0.46840000  0.90517000  1
  C  C275  1  0.69590000  0.53160000  0.59483000  1
  C  C276  1  0.70590000  0.48500000  0.36910000  1
  C  C277  1  0.70590000  0.51500000  0.13090000  1
  C  C278  1  0.71990000  0.39540000  0.90300000  1
  C  C279  1  0.71990000  0.60460000  0.59700000  1
  C  C280  1  0.72330000  0.47830000  0.63420000  1
  C  C281  1  0.72330000  0.52170000  0.86580000  1
  C  C282  1  0.72600000  0.46560000  0.17490000  1
  C  C283  1  0.72600000  0.53440000  0.32510000  1
  C  C284  1  0.74060000  0.39690000  0.43390000  1
  C  C285  1  0.74060000  0.60310000  0.06610000  1
  C  C286  1  0.75990000  0.44330000  0.39400000  1
  C  C287  1  0.75990000  0.55670000  0.10600000  1
  C  C288  1  0.77310000  0.18740000  0.64080000  1
  C  C289  1  0.77310000  0.81260000  0.85920000  1
  C  C290  1  0.81260000  0.22690000  0.60920000  1
  C  C291  1  0.81260000  0.77310000  0.89080000  1
  C  C292  1  0.81440000  0.41200000  0.22340000  1
  C  C293  1  0.81440000  0.58800000  0.27660000  1
  C  C294  1  0.87510000  0.38420000  0.72644000  1
  C  C295  1  0.87510000  0.61580000  0.77356000  1
  C  C296  1  0.89400000  0.40050000  0.23530000  1
  C  C297  1  0.89400000  0.59950000  0.26470000  1
  C  C298  1  0.91640000  0.36660000  0.28090000  1
  C  C299  1  0.91640000  0.63340000  0.21910000  1
  C  C300  1  0.94940000  0.42760000  0.20210000  1
  C  C301  1  0.94940000  0.57240000  0.29790000  1
  C  C302  1  0.95730000  0.38710000  0.73940000  1
  C  C303  1  0.95730000  0.61290000  0.76060000  1
  C  C304  1  0.97760000  0.42120000  0.78570000  1
  C  C305  1  0.97760000  0.57880000  0.71430000  1
  C  C306  1  0.98950000  0.35930000  0.29320000  1
  C  C307  1  0.98950000  0.64070000  0.20680000  1
  N  N308  1  0.20190000  0.45480000  0.81646000  1
  N  N309  1  0.20190000  0.54520000  0.68354000  1
  N  N310  1  0.23560000  0.37840000  0.74690000  1
  N  N311  1  0.23560000  0.62160000  0.75310000  1
  N  N312  1  0.32890000  0.43590000  0.79758000  1
  N  N313  1  0.32890000  0.56410000  0.70242000  1
  N  N314  1  0.37840000  0.23560000  0.00310000  1
  N  N315  1  0.37840000  0.76440000  0.49690000  1
  N  N316  1  0.43590000  0.32890000  0.95242000  1
  N  N317  1  0.43590000  0.67110000  0.54758000  1
  N  N318  1  0.45480000  0.20190000  0.93354000  1
  N  N319  1  0.45480000  0.79810000  0.56646000  1
  N  N320  1  0.54520000  0.20190000  0.06646000  1
  N  N321  1  0.54520000  0.79810000  0.43354000  1
  N  N322  1  0.56410000  0.32890000  0.04758000  1
  N  N323  1  0.56410000  0.67110000  0.45242000  1
  N  N324  1  0.62160000  0.23560000  0.99690000  1
  N  N325  1  0.62160000  0.76440000  0.50310000  1
  N  N326  1  0.67110000  0.43590000  0.20242000  1
  N  N327  1  0.67110000  0.56410000  0.29758000  1
  N  N328  1  0.76440000  0.37840000  0.25310000  1
  N  N329  1  0.76440000  0.62160000  0.24690000  1
  N  N330  1  0.79810000  0.45480000  0.18354000  1
  N  N331  1  0.79810000  0.54520000  0.31646000  1
  O  O332  1  0.14237000  0.34640000  0.31381000  1
  O  O333  1  0.14237000  0.65360000  0.18619000  1
  O  O334  1  0.16866000  0.41616000  0.24506000  1
  O  O335  1  0.16866000  0.58384000  0.25494000  1
  O  O336  1  0.17660000  0.18600000  0.42770000  1
  O  O337  1  0.17660000  0.81400000  0.07230000  1
  O  O338  1  0.18600000  0.17660000  0.32230000  1
  O  O339  1  0.18600000  0.82340000  0.17770000  1
  O  O340  1  0.24045000  0.49712000  0.17076000  1
  O  O341  1  0.24045000  0.50288000  0.32924000  1
  O  O342  1  0.25149000  0.25149000  0.37500000  1
  O  O343  1  0.25149000  0.74851000  0.12500000  1
  O  O344  1  0.29020000  0.40933000  0.37349000  1
  O  O345  1  0.29020000  0.59067000  0.12651000  1
  O  O346  1  0.30332000  0.30608000  0.48419000  1
  O  O347  1  0.30332000  0.69392000  0.01581000  1
  O  O348  1  0.30608000  0.30332000  0.26581000  1
  O  O349  1  0.30608000  0.69668000  0.23419000  1
  O  O350  1  0.33357000  0.42265000  0.25216000  1
  O  O351  1  0.33357000  0.57735000  0.24784000  1
  O  O352  1  0.34640000  0.14237000  0.43619000  1
  O  O353  1  0.34640000  0.85763000  0.06381000  1
  O  O354  1  0.40933000  0.29020000  0.37651000  1
  O  O355  1  0.40933000  0.70980000  0.12349000  1
  O  O356  1  0.41616000  0.16866000  0.50494000  1
  O  O357  1  0.41616000  0.83134000  0.99506000  1
  O  O358  1  0.42265000  0.33357000  0.49784000  1
  O  O359  1  0.42265000  0.66643000  0.00216000  1
  O  O360  1  0.49712000  0.24045000  0.57924000  1
  O  O361  1  0.49712000  0.75955000  0.92076000  1
  O  O362  1  0.50288000  0.24045000  0.42076000  1
  O  O363  1  0.50288000  0.75955000  0.07924000  1
  O  O364  1  0.57735000  0.33357000  0.50216000  1
  O  O365  1  0.57735000  0.66643000  0.99784000  1
  O  O366  1  0.58384000  0.16866000  0.49506000  1
  O  O367  1  0.58384000  0.83134000  0.00494000  1
  O  O368  1  0.59067000  0.29020000  0.62349000  1
  O  O369  1  0.59067000  0.70980000  0.87651000  1
  O  O370  1  0.65360000  0.14237000  0.56381000  1
  O  O371  1  0.65360000  0.85763000  0.93619000  1
  O  O372  1  0.66643000  0.42265000  0.74784000  1
  O  O373  1  0.66643000  0.57735000  0.75216000  1
  O  O374  1  0.69392000  0.30332000  0.73419000  1
  O  O375  1  0.69392000  0.69668000  0.76581000  1
  O  O376  1  0.69668000  0.30608000  0.51581000  1
  O  O377  1  0.69668000  0.69392000  0.98419000  1
  O  O378  1  0.70980000  0.40933000  0.62651000  1
  O  O379  1  0.70980000  0.59067000  0.87349000  1
  O  O380  1  0.74851000  0.25149000  0.62500000  1
  O  O381  1  0.74851000  0.74851000  0.87500000  1
  O  O382  1  0.75955000  0.49712000  0.82924000  1
  O  O383  1  0.75955000  0.50288000  0.67076000  1
  O  O384  1  0.81400000  0.17660000  0.67770000  1
  O  O385  1  0.81400000  0.82340000  0.82230000  1
  O  O386  1  0.82340000  0.18600000  0.57230000  1
  O  O387  1  0.82340000  0.81400000  0.92770000  1
  O  O388  1  0.83134000  0.41616000  0.75494000  1
  O  O389  1  0.83134000  0.58384000  0.74506000  1
  O  O390  1  0.85763000  0.34640000  0.68619000  1
  O  O391  1  0.85763000  0.65360000  0.81381000  1
