# generated using pymatgen
data_Co7H32C48(NO6)4
_symmetry_space_group_name_H-M   'P 1'
_cell_length_a   13.11100000
_cell_length_b   13.84800000
_cell_length_c   19.97800000
_cell_angle_alpha   90.00000000
_cell_angle_beta   90.00000000
_cell_angle_gamma   90.00000000
_symmetry_Int_Tables_number   1
_chemical_formula_structural   Co7H32C48(NO6)4
_chemical_formula_sum   'Co14 H64 C96 N8 O48'
_cell_volume   3627.22821518
_cell_formula_units_Z   2
loop_
 _symmetry_equiv_pos_site_id
 _symmetry_equiv_pos_as_xyz
  1  'x, y, z'
loop_
 _atom_site_type_symbol
 _atom_site_label
 _atom_site_symmetry_multiplicity
 _atom_site_fract_x
 _atom_site_fract_y
 _atom_site_fract_z
 _atom_site_occupancy
  Co  Co0  1  0.25927000  0.02526000  0.61500000  1
  Co  Co1  1  0.25927000  0.47474000  0.11500000  1
  Co  Co2  1  0.25927000  0.52526000  0.88500000  1
  Co  Co3  1  0.25927000  0.97474000  0.38500000  1
  Co  Co4  1  0.40532000  0.10368000  0.47478000  1
  Co  Co5  1  0.40532000  0.39632000  0.97478000  1
  Co  Co6  1  0.40532000  0.60368000  0.02522000  1
  Co  Co7  1  0.40532000  0.89632000  0.52522000  1
  Co  Co8  1  0.58707000  0.20200000  0.40253000  1
  Co  Co9  1  0.58707000  0.29800000  0.90253000  1
  Co  Co10  1  0.58707000  0.70200000  0.09747000  1
  Co  Co11  1  0.58707000  0.79800000  0.59747000  1
  Co  Co12  1  0.66305000  0.00000000  0.50000000  1
  Co  Co13  1  0.66305000  0.50000000  0.00000000  1
  H  H14  1  0.05010000  0.17180000  0.83810000  1
  H  H15  1  0.05010000  0.32820000  0.33810000  1
  H  H16  1  0.05010000  0.67180000  0.66190000  1
  H  H17  1  0.05010000  0.82820000  0.16190000  1
  H  H18  1  0.15820000  0.00000000  0.00000000  1
  H  H19  1  0.15820000  0.50000000  0.50000000  1
  H  H20  1  0.17770000  0.24700000  0.39110000  1
  H  H21  1  0.17770000  0.25300000  0.89110000  1
  H  H22  1  0.17770000  0.74700000  0.10890000  1
  H  H23  1  0.17770000  0.75300000  0.60890000  1
  H  H24  1  0.24690000  0.14430000  0.00290000  1
  H  H25  1  0.24690000  0.35570000  0.50290000  1
  H  H26  1  0.24690000  0.64430000  0.49710000  1
  H  H27  1  0.24690000  0.85570000  0.99710000  1
  H  H28  1  0.29710000  0.04940000  0.76420000  1
  H  H29  1  0.29710000  0.45060000  0.26420000  1
  H  H30  1  0.29710000  0.54940000  0.73580000  1
  H  H31  1  0.29710000  0.95060000  0.23580000  1
  H  H32  1  0.30900000  0.23930000  0.62070000  1
  H  H33  1  0.30900000  0.26070000  0.12070000  1
  H  H34  1  0.30900000  0.73930000  0.87930000  1
  H  H35  1  0.30900000  0.76070000  0.37930000  1
  H  H36  1  0.34530000  0.16280000  0.84100000  1
  H  H37  1  0.34530000  0.33720000  0.34100000  1
  H  H38  1  0.34530000  0.66280000  0.65900000  1
  H  H39  1  0.34530000  0.83720000  0.15900000  1
  H  H40  1  0.34880000  0.14030000  0.19450000  1
  H  H41  1  0.34880000  0.35970000  0.69450000  1
  H  H42  1  0.34880000  0.64030000  0.30550000  1
  H  H43  1  0.34880000  0.85970000  0.80550000  1
  H  H44  1  0.45070000  0.05270000  0.59540000  1
  H  H45  1  0.45070000  0.44730000  0.09540000  1
  H  H46  1  0.45070000  0.55270000  0.90460000  1
  H  H47  1  0.45070000  0.94730000  0.40460000  1
  H  H48  1  0.51090000  0.00000000  0.00000000  1
  H  H49  1  0.51090000  0.50000000  0.50000000  1
  H  H50  1  0.57260000  0.15420000  0.52040000  1
  H  H51  1  0.57260000  0.34580000  0.02040000  1
  H  H52  1  0.57260000  0.65420000  0.97960000  1
  H  H53  1  0.57260000  0.84580000  0.47960000  1
  H  H54  1  0.58570000  0.07910000  0.87250000  1
  H  H55  1  0.58570000  0.42090000  0.37250000  1
  H  H56  1  0.58570000  0.57910000  0.62750000  1
  H  H57  1  0.58570000  0.92090000  0.12750000  1
  H  H58  1  0.60170000  0.02840000  0.21350000  1
  H  H59  1  0.60170000  0.47160000  0.71350000  1
  H  H60  1  0.60170000  0.52840000  0.28650000  1
  H  H61  1  0.60170000  0.97160000  0.78650000  1
  H  H62  1  0.61530000  0.20690000  0.25180000  1
  H  H63  1  0.61530000  0.29310000  0.75180000  1
  H  H64  1  0.61530000  0.70690000  0.24820000  1
  H  H65  1  0.61530000  0.79310000  0.74820000  1
  H  H66  1  0.62900000  0.19280000  0.66340000  1
  H  H67  1  0.62900000  0.30720000  0.16340000  1
  H  H68  1  0.62900000  0.69280000  0.83660000  1
  H  H69  1  0.62900000  0.80720000  0.33660000  1
  H  H70  1  0.88170000  0.20130000  0.86560000  1
  H  H71  1  0.88170000  0.29870000  0.36560000  1
  H  H72  1  0.88170000  0.70130000  0.63440000  1
  H  H73  1  0.88170000  0.79870000  0.13440000  1
  H  H74  1  0.97370000  0.11510000  0.50830000  1
  H  H75  1  0.97370000  0.38490000  0.00830000  1
  H  H76  1  0.97370000  0.61510000  0.99170000  1
  H  H77  1  0.97370000  0.88490000  0.49170000  1
  C  C78  1  0.03440000  0.21600000  0.87160000  1
  C  C79  1  0.03440000  0.28400000  0.37160000  1
  C  C80  1  0.03440000  0.71600000  0.62840000  1
  C  C81  1  0.03440000  0.78400000  0.12840000  1
  C  C82  1  0.08900000  0.17460000  0.45620000  1
  C  C83  1  0.08900000  0.32540000  0.95620000  1
  C  C84  1  0.08900000  0.67460000  0.04380000  1
  C  C85  1  0.08900000  0.82540000  0.54380000  1
  C  C86  1  0.11040000  0.23710000  0.40410000  1
  C  C87  1  0.11040000  0.26290000  0.90410000  1
  C  C88  1  0.11040000  0.73710000  0.09590000  1
  C  C89  1  0.11040000  0.76290000  0.59590000  1
  C  C90  1  0.17510000  0.12450000  0.49230000  1
  C  C91  1  0.17510000  0.37550000  0.99230000  1
  C  C92  1  0.17510000  0.62450000  0.00770000  1
  C  C93  1  0.17510000  0.87550000  0.50770000  1
  C  C94  1  0.22920000  0.00000000  0.00000000  1
  C  C95  1  0.22920000  0.50000000  0.50000000  1
  C  C96  1  0.28230000  0.08620000  0.00030000  1
  C  C97  1  0.28230000  0.41380000  0.50030000  1
  C  C98  1  0.28230000  0.58620000  0.49970000  1
  C  C99  1  0.28230000  0.91380000  0.99970000  1
  C  C100  1  0.30880000  0.11240000  0.74990000  1
  C  C101  1  0.30880000  0.38760000  0.24990000  1
  C  C102  1  0.30880000  0.61240000  0.75010000  1
  C  C103  1  0.30880000  0.88760000  0.25010000  1
  C  C104  1  0.31470000  0.22440000  0.66590000  1
  C  C105  1  0.31470000  0.27560000  0.16590000  1
  C  C106  1  0.31470000  0.72440000  0.83410000  1
  C  C107  1  0.31470000  0.77560000  0.33410000  1
  C  C108  1  0.33720000  0.18020000  0.79640000  1
  C  C109  1  0.33720000  0.31980000  0.29640000  1
  C  C110  1  0.33720000  0.68020000  0.70360000  1
  C  C111  1  0.33720000  0.81980000  0.20360000  1
  C  C112  1  0.34040000  0.20320000  0.20970000  1
  C  C113  1  0.34040000  0.29680000  0.70970000  1
  C  C114  1  0.34040000  0.70320000  0.29030000  1
  C  C115  1  0.34040000  0.79680000  0.79030000  1
  C  C116  1  0.35370000  0.22500000  0.27640000  1
  C  C117  1  0.35370000  0.27500000  0.77640000  1
  C  C118  1  0.35370000  0.72500000  0.22360000  1
  C  C119  1  0.35370000  0.77500000  0.72360000  1
  C  C120  1  0.37180000  0.14790000  0.32750000  1
  C  C121  1  0.37180000  0.35210000  0.82750000  1
  C  C122  1  0.37180000  0.64790000  0.17250000  1
  C  C123  1  0.37180000  0.85210000  0.67250000  1
  C  C124  1  0.38700000  0.08660000  0.99680000  1
  C  C125  1  0.38700000  0.41340000  0.49680000  1
  C  C126  1  0.38700000  0.58660000  0.50320000  1
  C  C127  1  0.38700000  0.91340000  0.00320000  1
  C  C128  1  0.43960000  0.18230000  0.99040000  1
  C  C129  1  0.43960000  0.31770000  0.49040000  1
  C  C130  1  0.43960000  0.68230000  0.50960000  1
  C  C131  1  0.43960000  0.81770000  0.00960000  1
  C  C132  1  0.43990000  0.00000000  0.00000000  1
  C  C133  1  0.43990000  0.50000000  0.50000000  1
  C  C134  1  0.59570000  0.10300000  0.82950000  1
  C  C135  1  0.59570000  0.39700000  0.32950000  1
  C  C136  1  0.59570000  0.60300000  0.67050000  1
  C  C137  1  0.59570000  0.89700000  0.17050000  1
  C  C138  1  0.60520000  0.03750000  0.77780000  1
  C  C139  1  0.60520000  0.46250000  0.27780000  1
  C  C140  1  0.60520000  0.53750000  0.72220000  1
  C  C141  1  0.60520000  0.96250000  0.22220000  1
  C  C142  1  0.61250000  0.22700000  0.75970000  1
  C  C143  1  0.61250000  0.27300000  0.25970000  1
  C  C144  1  0.61250000  0.72700000  0.74030000  1
  C  C145  1  0.61250000  0.77300000  0.24030000  1
  C  C146  1  0.61960000  0.06990000  0.71400000  1
  C  C147  1  0.61960000  0.43010000  0.21400000  1
  C  C148  1  0.61960000  0.56990000  0.78600000  1
  C  C149  1  0.61960000  0.93010000  0.28600000  1
  C  C150  1  0.62150000  0.16690000  0.70610000  1
  C  C151  1  0.62150000  0.33310000  0.20610000  1
  C  C152  1  0.62150000  0.66690000  0.79390000  1
  C  C153  1  0.62150000  0.83310000  0.29390000  1
  C  C154  1  0.63130000  0.00130000  0.65460000  1
  C  C155  1  0.63130000  0.49870000  0.15460000  1
  C  C156  1  0.63130000  0.50130000  0.84540000  1
  C  C157  1  0.63130000  0.99870000  0.34540000  1
  C  C158  1  0.79980000  0.17350000  0.45190000  1
  C  C159  1  0.79980000  0.32650000  0.95190000  1
  C  C160  1  0.79980000  0.67350000  0.04810000  1
  C  C161  1  0.79980000  0.82650000  0.54810000  1
  C  C162  1  0.91050000  0.20110000  0.43820000  1
  C  C163  1  0.91050000  0.29890000  0.93820000  1
  C  C164  1  0.91050000  0.70110000  0.06180000  1
  C  C165  1  0.91050000  0.79890000  0.56180000  1
  C  C166  1  0.93370000  0.23340000  0.88810000  1
  C  C167  1  0.93370000  0.26660000  0.38810000  1
  C  C168  1  0.93370000  0.73340000  0.61190000  1
  C  C169  1  0.93370000  0.76660000  0.11190000  1
  C  C170  1  0.98870000  0.15690000  0.47320000  1
  C  C171  1  0.98870000  0.34310000  0.97320000  1
  C  C172  1  0.98870000  0.65690000  0.02680000  1
  C  C173  1  0.98870000  0.84310000  0.52680000  1
  N  N174  1  0.29740000  0.13310000  0.68536000  1
  N  N175  1  0.29740000  0.36690000  0.18536000  1
  N  N176  1  0.29740000  0.63310000  0.81464000  1
  N  N177  1  0.29740000  0.86690000  0.31464000  1
  N  N178  1  0.60010000  0.19790000  0.82166000  1
  N  N179  1  0.60010000  0.30210000  0.32166000  1
  N  N180  1  0.60010000  0.69790000  0.67834000  1
  N  N181  1  0.60010000  0.80210000  0.17834000  1
  O  O182  1  0.16880000  0.11320000  0.55421000  1
  O  O183  1  0.16880000  0.38680000  0.05421000  1
  O  O184  1  0.16880000  0.61320000  0.94579000  1
  O  O185  1  0.16880000  0.88680000  0.44579000  1
  O  O186  1  0.24730000  0.09593000  0.45666000  1
  O  O187  1  0.24730000  0.40407000  0.95666000  1
  O  O188  1  0.24730000  0.59593000  0.04334000  1
  O  O189  1  0.24730000  0.90407000  0.54334000  1
  O  O190  1  0.32510000  0.07060000  0.31791000  1
  O  O191  1  0.32510000  0.42940000  0.81791000  1
  O  O192  1  0.32510000  0.57060000  0.18209000  1
  O  O193  1  0.32510000  0.92940000  0.68209000  1
  O  O194  1  0.39100000  0.24580000  0.50869000  1
  O  O195  1  0.39100000  0.25420000  0.00869000  1
  O  O196  1  0.39100000  0.74580000  0.99131000  1
  O  O197  1  0.39100000  0.75420000  0.49131000  1
  O  O198  1  0.39380000  0.03694000  0.56556000  1
  O  O199  1  0.39380000  0.46306000  0.06556000  1
  O  O200  1  0.39380000  0.53694000  0.93444000  1
  O  O201  1  0.39380000  0.96306000  0.43444000  1
  O  O202  1  0.42560000  0.16840000  0.37887000  1
  O  O203  1  0.42560000  0.33160000  0.87887000  1
  O  O204  1  0.42560000  0.66840000  0.12113000  1
  O  O205  1  0.42560000  0.83160000  0.62113000  1
  O  O206  1  0.52810000  0.18280000  0.96457000  1
  O  O207  1  0.52810000  0.31720000  0.46457000  1
  O  O208  1  0.52810000  0.68280000  0.53543000  1
  O  O209  1  0.52810000  0.81720000  0.03543000  1
  O  O210  1  0.56230000  0.11177000  0.48172000  1
  O  O211  1  0.56230000  0.38823000  0.98172000  1
  O  O212  1  0.56230000  0.61177000  0.01828000  1
  O  O213  1  0.56230000  0.88823000  0.51828000  1
  O  O214  1  0.62180000  0.08610000  0.33590000  1
  O  O215  1  0.62180000  0.41390000  0.83590000  1
  O  O216  1  0.62180000  0.58610000  0.16410000  1
  O  O217  1  0.62180000  0.91390000  0.66410000  1
  O  O218  1  0.65020000  0.04410000  0.60058000  1
  O  O219  1  0.65020000  0.45590000  0.10058000  1
  O  O220  1  0.65020000  0.54410000  0.89942000  1
  O  O221  1  0.65020000  0.95590000  0.39942000  1
  O  O222  1  0.73460000  0.23100000  0.43030000  1
  O  O223  1  0.73460000  0.26900000  0.93030000  1
  O  O224  1  0.73460000  0.73100000  0.06970000  1
  O  O225  1  0.73460000  0.76900000  0.56970000  1
  O  O226  1  0.78500000  0.09540000  0.48097000  1
  O  O227  1  0.78500000  0.40460000  0.98097000  1
  O  O228  1  0.78500000  0.59540000  0.01903000  1
  O  O229  1  0.78500000  0.90460000  0.51903000  1
