# generated using pymatgen
data_ZnH12C18NO4
_symmetry_space_group_name_H-M   'P 1'
_cell_length_a   10.93100000
_cell_length_b   16.20990000
_cell_length_c   43.60200000
_cell_angle_alpha   90.00000000
_cell_angle_beta   92.75400000
_cell_angle_gamma   90.00000000
_symmetry_Int_Tables_number   1
_chemical_formula_structural   ZnH12C18NO4
_chemical_formula_sum   'Zn16 H192 C288 N16 O64'
_cell_volume   7716.93346024
_cell_formula_units_Z   16
loop_
 _symmetry_equiv_pos_site_id
 _symmetry_equiv_pos_as_xyz
  1  'x, y, z'
loop_
 _atom_site_type_symbol
 _atom_site_label
 _atom_site_symmetry_multiplicity
 _atom_site_fract_x
 _atom_site_fract_y
 _atom_site_fract_z
 _atom_site_occupancy
  Zn  Zn0  1  0.31172000  0.67943000  0.19850000  1
  Zn  Zn1  1  0.31172000  0.82057000  0.69850000  1
  Zn  Zn2  1  0.31540000  0.66270000  0.44787000  1
  Zn  Zn3  1  0.31540000  0.83730000  0.94787000  1
  Zn  Zn4  1  0.31886000  0.63969000  0.69890000  1
  Zn  Zn5  1  0.31886000  0.86031000  0.19890000  1
  Zn  Zn6  1  0.32004000  0.65574000  0.95168000  1
  Zn  Zn7  1  0.32004000  0.84426000  0.45168000  1
  Zn  Zn8  1  0.67996000  0.15574000  0.54832000  1
  Zn  Zn9  1  0.67996000  0.34426000  0.04832000  1
  Zn  Zn10  1  0.68114000  0.13969000  0.80110000  1
  Zn  Zn11  1  0.68114000  0.36031000  0.30110000  1
  Zn  Zn12  1  0.68460000  0.16270000  0.05213000  1
  Zn  Zn13  1  0.68460000  0.33730000  0.55213000  1
  Zn  Zn14  1  0.68828000  0.17943000  0.30150000  1
  Zn  Zn15  1  0.68828000  0.32057000  0.80150000  1
  H  H16  1  0.00790000  0.61100000  0.91020000  1
  H  H17  1  0.00790000  0.88900000  0.41020000  1
  H  H18  1  0.02250000  0.57680000  0.72460000  1
  H  H19  1  0.02250000  0.92320000  0.22460000  1
  H  H20  1  0.06640000  0.15120000  0.03320000  1
  H  H21  1  0.06640000  0.34880000  0.53320000  1
  H  H22  1  0.07870000  0.15920000  0.31240000  1
  H  H23  1  0.07870000  0.34080000  0.81240000  1
  H  H24  1  0.08710000  0.53390000  0.25960000  1
  H  H25  1  0.08710000  0.96610000  0.75960000  1
  H  H26  1  0.08910000  0.02090000  0.08590000  1
  H  H27  1  0.08910000  0.47910000  0.58590000  1
  H  H28  1  0.10090000  0.00560000  0.03320000  1
  H  H29  1  0.10090000  0.49440000  0.53320000  1
  H  H30  1  0.10480000  0.00650000  0.29390000  1
  H  H31  1  0.10480000  0.49350000  0.79390000  1
  H  H32  1  0.10650000  0.00850000  0.34770000  1
  H  H33  1  0.10650000  0.49150000  0.84770000  1
  H  H34  1  0.11300000  0.01490000  0.61450000  1
  H  H35  1  0.11300000  0.48510000  0.11450000  1
  H  H36  1  0.11350000  0.11020000  0.94300000  1
  H  H37  1  0.11350000  0.38980000  0.44300000  1
  H  H38  1  0.13100000  0.52850000  0.43840000  1
  H  H39  1  0.13100000  0.97150000  0.93840000  1
  H  H40  1  0.13720000  0.53950000  0.18910000  1
  H  H41  1  0.13720000  0.96050000  0.68910000  1
  H  H42  1  0.13890000  0.10060000  0.68030000  1
  H  H43  1  0.13890000  0.39940000  0.18030000  1
  H  H44  1  0.16100000  0.58100000  0.61840000  1
  H  H45  1  0.16100000  0.91900000  0.11840000  1
  H  H46  1  0.18560000  0.60850000  0.51290000  1
  H  H47  1  0.18560000  0.89150000  0.01290000  1
  H  H48  1  0.19330000  0.59770000  0.87550000  1
  H  H49  1  0.19330000  0.90230000  0.37550000  1
  H  H50  1  0.19400000  0.60040000  0.76890000  1
  H  H51  1  0.19400000  0.89960000  0.26890000  1
  H  H52  1  0.22110000  0.24410000  0.94270000  1
  H  H53  1  0.22110000  0.25590000  0.44270000  1
  H  H54  1  0.22450000  0.23810000  0.97860000  1
  H  H55  1  0.22450000  0.26190000  0.47860000  1
  H  H56  1  0.25080000  0.22250000  0.66600000  1
  H  H57  1  0.25080000  0.27750000  0.16600000  1
  H  H58  1  0.27620000  0.23270000  0.72070000  1
  H  H59  1  0.27620000  0.26730000  0.22070000  1
  H  H60  1  0.27830000  0.14160000  0.03430000  1
  H  H61  1  0.27830000  0.35840000  0.53430000  1
  H  H62  1  0.28990000  0.15660000  0.31360000  1
  H  H63  1  0.28990000  0.34340000  0.81360000  1
  H  H64  1  0.29360000  0.00460000  0.15880000  1
  H  H65  1  0.29360000  0.49540000  0.65880000  1
  H  H66  1  0.29910000  0.52700000  0.25850000  1
  H  H67  1  0.29910000  0.97300000  0.75850000  1
  H  H68  1  0.30470000  0.14550000  0.15930000  1
  H  H69  1  0.30470000  0.35450000  0.65930000  1
  H  H70  1  0.32500000  0.02180000  0.61320000  1
  H  H71  1  0.32500000  0.47820000  0.11320000  1
  H  H72  1  0.33890000  0.52670000  0.99870000  1
  H  H73  1  0.33890000  0.97330000  0.49870000  1
  H  H74  1  0.33940000  0.50990000  0.90980000  1
  H  H75  1  0.33940000  0.99010000  0.40980000  1
  H  H76  1  0.35000000  0.66410000  0.10520000  1
  H  H77  1  0.35000000  0.83590000  0.60520000  1
  H  H78  1  0.35020000  0.64800000  0.05240000  1
  H  H79  1  0.35020000  0.85200000  0.55240000  1
  H  H80  1  0.36230000  0.13000000  0.41270000  1
  H  H81  1  0.36230000  0.37000000  0.91270000  1
  H  H82  1  0.36820000  0.11190000  0.50410000  1
  H  H83  1  0.36820000  0.38810000  0.00410000  1
  H  H84  1  0.36970000  0.50720000  0.74670000  1
  H  H85  1  0.36970000  0.99280000  0.24670000  1
  H  H86  1  0.37980000  0.13330000  0.25030000  1
  H  H87  1  0.37980000  0.36670000  0.75030000  1
  H  H88  1  0.38480000  0.65600000  0.35200000  1
  H  H89  1  0.38480000  0.84400000  0.85200000  1
  H  H90  1  0.38970000  0.65640000  0.29870000  1
  H  H91  1  0.38970000  0.84360000  0.79870000  1
  H  H92  1  0.39380000  0.21850000  0.66420000  1
  H  H93  1  0.39380000  0.28150000  0.16420000  1
  H  H94  1  0.40130000  0.08990000  0.77410000  1
  H  H95  1  0.40130000  0.41010000  0.27410000  1
  H  H96  1  0.41500000  0.12460000  0.58640000  1
  H  H97  1  0.41500000  0.37540000  0.08640000  1
  H  H98  1  0.41830000  0.23390000  0.71780000  1
  H  H99  1  0.41830000  0.26610000  0.21780000  1
  H  H100  1  0.42980000  0.24130000  0.48180000  1
  H  H101  1  0.42980000  0.25870000  0.98180000  1
  H  H102  1  0.43780000  0.24890000  0.44610000  1
  H  H103  1  0.43780000  0.25110000  0.94610000  1
  H  H104  1  0.46250000  0.11960000  0.97310000  1
  H  H105  1  0.46250000  0.38040000  0.47310000  1
  H  H106  1  0.47300000  0.52130000  0.46640000  1
  H  H107  1  0.47300000  0.97870000  0.96640000  1
  H  H108  1  0.49470000  0.54490000  0.19470000  1
  H  H109  1  0.49470000  0.95510000  0.69470000  1
  H  H110  1  0.49600000  0.59420000  0.81380000  1
  H  H111  1  0.49600000  0.90580000  0.31380000  1
  H  H112  1  0.50400000  0.09420000  0.68620000  1
  H  H113  1  0.50400000  0.40580000  0.18620000  1
  H  H114  1  0.50530000  0.04490000  0.30530000  1
  H  H115  1  0.50530000  0.45510000  0.80530000  1
  H  H116  1  0.52700000  0.02130000  0.03360000  1
  H  H117  1  0.52700000  0.47870000  0.53360000  1
  H  H118  1  0.53750000  0.61960000  0.52690000  1
  H  H119  1  0.53750000  0.88040000  0.02690000  1
  H  H120  1  0.56220000  0.74890000  0.05390000  1
  H  H121  1  0.56220000  0.75110000  0.55390000  1
  H  H122  1  0.57020000  0.74130000  0.01820000  1
  H  H123  1  0.57020000  0.75870000  0.51820000  1
  H  H124  1  0.58170000  0.73390000  0.78220000  1
  H  H125  1  0.58170000  0.76610000  0.28220000  1
  H  H126  1  0.58500000  0.62460000  0.91360000  1
  H  H127  1  0.58500000  0.87540000  0.41360000  1
  H  H128  1  0.59870000  0.58990000  0.72590000  1
  H  H129  1  0.59870000  0.91010000  0.22590000  1
  H  H130  1  0.60620000  0.71850000  0.83580000  1
  H  H131  1  0.60620000  0.78150000  0.33580000  1
  H  H132  1  0.61030000  0.15640000  0.20130000  1
  H  H133  1  0.61030000  0.34360000  0.70130000  1
  H  H134  1  0.61520000  0.15600000  0.14800000  1
  H  H135  1  0.61520000  0.34400000  0.64800000  1
  H  H136  1  0.62020000  0.63330000  0.24970000  1
  H  H137  1  0.62020000  0.86670000  0.74970000  1
  H  H138  1  0.63030000  0.00720000  0.75330000  1
  H  H139  1  0.63030000  0.49280000  0.25330000  1
  H  H140  1  0.63180000  0.61190000  0.99590000  1
  H  H141  1  0.63180000  0.88810000  0.49590000  1
  H  H142  1  0.63770000  0.63000000  0.08730000  1
  H  H143  1  0.63770000  0.87000000  0.58730000  1
  H  H144  1  0.64980000  0.14800000  0.44760000  1
  H  H145  1  0.64980000  0.35200000  0.94760000  1
  H  H146  1  0.65000000  0.16410000  0.39480000  1
  H  H147  1  0.65000000  0.33590000  0.89480000  1
  H  H148  1  0.66060000  0.00990000  0.59020000  1
  H  H149  1  0.66060000  0.49010000  0.09020000  1
  H  H150  1  0.66110000  0.02670000  0.50130000  1
  H  H151  1  0.66110000  0.47330000  0.00130000  1
  H  H152  1  0.67500000  0.52180000  0.88680000  1
  H  H153  1  0.67500000  0.97820000  0.38680000  1
  H  H154  1  0.69530000  0.64550000  0.34070000  1
  H  H155  1  0.69530000  0.85450000  0.84070000  1
  H  H156  1  0.70090000  0.02700000  0.24150000  1
  H  H157  1  0.70090000  0.47300000  0.74150000  1
  H  H158  1  0.70640000  0.50460000  0.34120000  1
  H  H159  1  0.70640000  0.99540000  0.84120000  1
  H  H160  1  0.71010000  0.65660000  0.18640000  1
  H  H161  1  0.71010000  0.84340000  0.68640000  1
  H  H162  1  0.72170000  0.64160000  0.46570000  1
  H  H163  1  0.72170000  0.85840000  0.96570000  1
  H  H164  1  0.72380000  0.73270000  0.77930000  1
  H  H165  1  0.72380000  0.76730000  0.27930000  1
  H  H166  1  0.74920000  0.72250000  0.83400000  1
  H  H167  1  0.74920000  0.77750000  0.33400000  1
  H  H168  1  0.77550000  0.73810000  0.52140000  1
  H  H169  1  0.77550000  0.76190000  0.02140000  1
  H  H170  1  0.77890000  0.74410000  0.55730000  1
  H  H171  1  0.77890000  0.75590000  0.05730000  1
  H  H172  1  0.80600000  0.10040000  0.73110000  1
  H  H173  1  0.80600000  0.39960000  0.23110000  1
  H  H174  1  0.80670000  0.09770000  0.62450000  1
  H  H175  1  0.80670000  0.40230000  0.12450000  1
  H  H176  1  0.81440000  0.10850000  0.98710000  1
  H  H177  1  0.81440000  0.39150000  0.48710000  1
  H  H178  1  0.83900000  0.08100000  0.88160000  1
  H  H179  1  0.83900000  0.41900000  0.38160000  1
  H  H180  1  0.86110000  0.60060000  0.81970000  1
  H  H181  1  0.86110000  0.89940000  0.31970000  1
  H  H182  1  0.86280000  0.03950000  0.31090000  1
  H  H183  1  0.86280000  0.46050000  0.81090000  1
  H  H184  1  0.86900000  0.02850000  0.06160000  1
  H  H185  1  0.86900000  0.47150000  0.56160000  1
  H  H186  1  0.88650000  0.61020000  0.55700000  1
  H  H187  1  0.88650000  0.88980000  0.05700000  1
  H  H188  1  0.88700000  0.51490000  0.88550000  1
  H  H189  1  0.88700000  0.98510000  0.38550000  1
  H  H190  1  0.89350000  0.50850000  0.15230000  1
  H  H191  1  0.89350000  0.99150000  0.65230000  1
  H  H192  1  0.89520000  0.50650000  0.20610000  1
  H  H193  1  0.89520000  0.99350000  0.70610000  1
  H  H194  1  0.89910000  0.50560000  0.46680000  1
  H  H195  1  0.89910000  0.99440000  0.96680000  1
  H  H196  1  0.91090000  0.52090000  0.41410000  1
  H  H197  1  0.91090000  0.97910000  0.91410000  1
  H  H198  1  0.91290000  0.03390000  0.24040000  1
  H  H199  1  0.91290000  0.46610000  0.74040000  1
  H  H200  1  0.92130000  0.65920000  0.18760000  1
  H  H201  1  0.92130000  0.84080000  0.68760000  1
  H  H202  1  0.93360000  0.65120000  0.46680000  1
  H  H203  1  0.93360000  0.84880000  0.96680000  1
  H  H204  1  0.97750000  0.07680000  0.77540000  1
  H  H205  1  0.97750000  0.42320000  0.27540000  1
  H  H206  1  0.99210000  0.11100000  0.58980000  1
  H  H207  1  0.99210000  0.38900000  0.08980000  1
  C  C208  1  0.05590000  0.24380000  0.55683000  1
  C  C209  1  0.05590000  0.25620000  0.05683000  1
  C  C210  1  0.05620000  0.22560000  0.79664000  1
  C  C211  1  0.05620000  0.27440000  0.29664000  1
  C  C212  1  0.06250000  0.08010000  0.77566000  1
  C  C213  1  0.06250000  0.41990000  0.27566000  1
  C  C214  1  0.07670000  0.11490000  0.58890000  1
  C  C215  1  0.07670000  0.38510000  0.08890000  1
  C  C216  1  0.08160000  0.73090000  0.70208000  1
  C  C217  1  0.08160000  0.76910000  0.20208000  1
  C  C218  1  0.08310000  0.74360000  0.94591000  1
  C  C219  1  0.08310000  0.75640000  0.44591000  1
  C  C220  1  0.11330000  0.19220000  0.04289000  1
  C  C221  1  0.11330000  0.30780000  0.54289000  1
  C  C222  1  0.12090000  0.15380000  0.78616000  1
  C  C223  1  0.12090000  0.34620000  0.28616000  1
  C  C224  1  0.12100000  0.20560000  0.30619000  1
  C  C225  1  0.12100000  0.29440000  0.80619000  1
  C  C226  1  0.12450000  0.52620000  0.57802000  1
  C  C227  1  0.12450000  0.97380000  0.07802000  1
  C  C228  1  0.12730000  0.18030000  0.57212000  1
  C  C229  1  0.12730000  0.31970000  0.07212000  1
  C  C230  1  0.12780000  0.01400000  0.76595000  1
  C  C231  1  0.12780000  0.48600000  0.26595000  1
  C  C232  1  0.13200000  0.53560000  0.54622000  1
  C  C233  1  0.13200000  0.96440000  0.04622000  1
  C  C234  1  0.14190000  0.53630000  0.80515000  1
  C  C235  1  0.14190000  0.96370000  0.30515000  1
  C  C236  1  0.14230000  0.53530000  0.83766000  1
  C  C237  1  0.14230000  0.96470000  0.33766000  1
  C  C238  1  0.14900000  0.05720000  0.60372000  1
  C  C239  1  0.14900000  0.44280000  0.10372000  1
  C  C240  1  0.16930000  0.58670000  0.59742000  1
  C  C241  1  0.16930000  0.91330000  0.09742000  1
  C  C242  1  0.18340000  0.60310000  0.53409000  1
  C  C243  1  0.18340000  0.89690000  0.03409000  1
  C  C244  1  0.18840000  0.08530000  0.94809000  1
  C  C245  1  0.18840000  0.41470000  0.44809000  1
  C  C246  1  0.19520000  0.59840000  0.85423000  1
  C  C247  1  0.19520000  0.90160000  0.35423000  1
  C  C248  1  0.19590000  0.59980000  0.79027000  1
  C  C249  1  0.19590000  0.90020000  0.29027000  1
  C  C250  1  0.19980000  0.00180000  0.94487000  1
  C  C251  1  0.19980000  0.49820000  0.44487000  1
  C  C252  1  0.21190000  0.51230000  0.18838000  1
  C  C253  1  0.21190000  0.98770000  0.68838000  1
  C  C254  1  0.21250000  0.07210000  0.68311000  1
  C  C255  1  0.21250000  0.42790000  0.18311000  1
  C  C256  1  0.22820000  0.65780000  0.58614000  1
  C  C257  1  0.22820000  0.84220000  0.08614000  1
  C  C258  1  0.23480000  0.66650000  0.55376000  1
  C  C259  1  0.23480000  0.83350000  0.05376000  1
  C  C260  1  0.24150000  0.18720000  0.04298000  1
  C  C261  1  0.24150000  0.31280000  0.54298000  1
  C  C262  1  0.24870000  0.20380000  0.30677000  1
  C  C263  1  0.24870000  0.29620000  0.80677000  1
  C  C264  1  0.25140000  0.15690000  0.78652000  1
  C  C265  1  0.25140000  0.34310000  0.28652000  1
  C  C266  1  0.25350000  0.66560000  0.83951000  1
  C  C267  1  0.25350000  0.83440000  0.33951000  1
  C  C268  1  0.25490000  0.66510000  0.80704000  1
  C  C269  1  0.25490000  0.83490000  0.30704000  1
  C  C270  1  0.25550000  0.01800000  0.76543000  1
  C  C271  1  0.25550000  0.48200000  0.26543000  1
  C  C272  1  0.25790000  0.18410000  0.57118000  1
  C  C273  1  0.25790000  0.31590000  0.07118000  1
  C  C274  1  0.26940000  0.22500000  0.96055000  1
  C  C275  1  0.26940000  0.27500000  0.46055000  1
  C  C276  1  0.27670000  0.06110000  0.60291000  1
  C  C277  1  0.27670000  0.43890000  0.10291000  1
  C  C278  1  0.27850000  0.72270000  0.60544000  1
  C  C279  1  0.27850000  0.77730000  0.10544000  1
  C  C280  1  0.28340000  0.13240000  0.95852000  1
  C  C281  1  0.28340000  0.36760000  0.45852000  1
  C  C282  1  0.28680000  0.73950000  0.54140000  1
  C  C283  1  0.28680000  0.76050000  0.04140000  1
  C  C284  1  0.28920000  0.71840000  0.64003000  1
  C  C285  1  0.28920000  0.78160000  0.14003000  1
  C  C286  1  0.30620000  0.73360000  0.85622000  1
  C  C287  1  0.30620000  0.76640000  0.35622000  1
  C  C288  1  0.30760000  0.74940000  0.50769000  1
  C  C289  1  0.30760000  0.75060000  0.00769000  1
  C  C290  1  0.31070000  0.03110000  0.17737000  1
  C  C291  1  0.31070000  0.46890000  0.67737000  1
  C  C292  1  0.31080000  0.73320000  0.79178000  1
  C  C293  1  0.31080000  0.76680000  0.29178000  1
  C  C294  1  0.31210000  0.73760000  0.89066000  1
  C  C295  1  0.31210000  0.76240000  0.39066000  1
  C  C296  1  0.31290000  0.24900000  0.05573000  1
  C  C297  1  0.31290000  0.25100000  0.55573000  1
  C  C298  1  0.31410000  0.22950000  0.79749000  1
  C  C299  1  0.31410000  0.27050000  0.29749000  1
  C  C300  1  0.31590000  0.11590000  0.17752000  1
  C  C301  1  0.31590000  0.38410000  0.67752000  1
  C  C302  1  0.31650000  0.08750000  0.77503000  1
  C  C303  1  0.31650000  0.41250000  0.27503000  1
  C  C304  1  0.32150000  0.70680000  0.09256000  1
  C  C305  1  0.32150000  0.79320000  0.59256000  1
  C  C306  1  0.32240000  0.11370000  0.68205000  1
  C  C307  1  0.32240000  0.38630000  0.18205000  1
  C  C308  1  0.32360000  0.69740000  0.06062000  1
  C  C309  1  0.32360000  0.73480000  0.75763000  1
  C  C310  1  0.32360000  0.76520000  0.25763000  1
  C  C311  1  0.32360000  0.80260000  0.56062000  1
  C  C312  1  0.32600000  0.20490000  0.67683000  1
  C  C313  1  0.32600000  0.29510000  0.17683000  1
  C  C314  1  0.33010000  0.12260000  0.58697000  1
  C  C315  1  0.33010000  0.37740000  0.08697000  1
  C  C316  1  0.33830000  0.15700000  0.20546000  1
  C  C317  1  0.33830000  0.34300000  0.70546000  1
  C  C318  1  0.34100000  0.24970000  0.20774000  1
  C  C319  1  0.34100000  0.25030000  0.70774000  1
  C  C320  1  0.34420000  0.01510000  0.42899000  1
  C  C321  1  0.34420000  0.48490000  0.92899000  1
  C  C322  1  0.34490000  0.00530000  0.48119000  1
  C  C323  1  0.34490000  0.49470000  0.98119000  1
  C  C324  1  0.35380000  0.70110000  0.34093000  1
  C  C325  1  0.35380000  0.79890000  0.84093000  1
  C  C326  1  0.35490000  0.02400000  0.22897000  1
  C  C327  1  0.35490000  0.47600000  0.72897000  1
  C  C328  1  0.35650000  0.70130000  0.30867000  1
  C  C329  1  0.35650000  0.79870000  0.80867000  1
  C  C330  1  0.35850000  0.09910000  0.43061000  1
  C  C331  1  0.35850000  0.40090000  0.93061000  1
  C  C332  1  0.36080000  0.10870000  0.23138000  1
  C  C333  1  0.36080000  0.39130000  0.73138000  1
  C  C334  1  0.36120000  0.08870000  0.48458000  1
  C  C335  1  0.36120000  0.41130000  0.98458000  1
  C  C336  1  0.36730000  0.13800000  0.45910000  1
  C  C337  1  0.36730000  0.36200000  0.95910000  1
  C  C338  1  0.38700000  0.22980000  0.46230000  1
  C  C339  1  0.38700000  0.27020000  0.96230000  1
  C  C340  1  0.39390000  0.09060000  0.96563000  1
  C  C341  1  0.39390000  0.40940000  0.46563000  1
  C  C342  1  0.39980000  0.00590000  0.96142000  1
  C  C343  1  0.39980000  0.49410000  0.46142000  1
  C  C344  1  0.42230000  0.51540000  0.19169000  1
  C  C345  1  0.42230000  0.98460000  0.69169000  1
  C  C346  1  0.42830000  0.06820000  0.68659000  1
  C  C347  1  0.42830000  0.43180000  0.18659000  1
  C  C348  1  0.44900000  0.24490000  0.05208000  1
  C  C349  1  0.44900000  0.25510000  0.55208000  1
  C  C350  1  0.45200000  0.23380000  0.80114000  1
  C  C351  1  0.45200000  0.26620000  0.30114000  1
  C  C352  1  0.54800000  0.73380000  0.69886000  1
  C  C353  1  0.54800000  0.76620000  0.19886000  1
  C  C354  1  0.55100000  0.74490000  0.44792000  1
  C  C355  1  0.55100000  0.75510000  0.94792000  1
  C  C356  1  0.57170000  0.56820000  0.81341000  1
  C  C357  1  0.57170000  0.93180000  0.31341000  1
  C  C358  1  0.57770000  0.01540000  0.30831000  1
  C  C359  1  0.57770000  0.48460000  0.80831000  1
  C  C360  1  0.60020000  0.50590000  0.53858000  1
  C  C361  1  0.60020000  0.99410000  0.03858000  1
  C  C362  1  0.60610000  0.59060000  0.53437000  1
  C  C363  1  0.60610000  0.90940000  0.03437000  1
  C  C364  1  0.61300000  0.72980000  0.03770000  1
  C  C365  1  0.61300000  0.77020000  0.53770000  1
  C  C366  1  0.63270000  0.63800000  0.04090000  1
  C  C367  1  0.63270000  0.86200000  0.54090000  1
  C  C368  1  0.63880000  0.58870000  0.01542000  1
  C  C369  1  0.63880000  0.91130000  0.51542000  1
  C  C370  1  0.63920000  0.60870000  0.26862000  1
  C  C371  1  0.63920000  0.89130000  0.76862000  1
  C  C372  1  0.64150000  0.59910000  0.06939000  1
  C  C373  1  0.64150000  0.90090000  0.56939000  1
  C  C374  1  0.64350000  0.20130000  0.19133000  1
  C  C375  1  0.64350000  0.29870000  0.69133000  1
  C  C376  1  0.64510000  0.52400000  0.27103000  1
  C  C377  1  0.64510000  0.97600000  0.77103000  1
  C  C378  1  0.64620000  0.20110000  0.15907000  1
  C  C379  1  0.64620000  0.29890000  0.65907000  1
  C  C380  1  0.65510000  0.50530000  0.01881000  1
  C  C381  1  0.65510000  0.99470000  0.51881000  1
  C  C382  1  0.65580000  0.51510000  0.07101000  1
  C  C383  1  0.65580000  0.98490000  0.57101000  1
  C  C384  1  0.65900000  0.74970000  0.29226000  1
  C  C385  1  0.65900000  0.75030000  0.79226000  1
  C  C386  1  0.66170000  0.65700000  0.29454000  1
  C  C387  1  0.66170000  0.84300000  0.79454000  1
  C  C388  1  0.66990000  0.62260000  0.91303000  1
  C  C389  1  0.66990000  0.87740000  0.41303000  1
  C  C390  1  0.67400000  0.70490000  0.82317000  1
  C  C391  1  0.67400000  0.79510000  0.32317000  1
  C  C392  1  0.67640000  0.19740000  0.43938000  1
  C  C393  1  0.67640000  0.23480000  0.74237000  1
  C  C394  1  0.67640000  0.26520000  0.24237000  1
  C  C395  1  0.67640000  0.30260000  0.93938000  1
  C  C396  1  0.67760000  0.61370000  0.81795000  1
  C  C397  1  0.67760000  0.88630000  0.31795000  1
  C  C398  1  0.67850000  0.20680000  0.40744000  1
  C  C399  1  0.67850000  0.29320000  0.90744000  1
  C  C400  1  0.68350000  0.58750000  0.72497000  1
  C  C401  1  0.68350000  0.91250000  0.22497000  1
  C  C402  1  0.68410000  0.61590000  0.32248000  1
  C  C403  1  0.68410000  0.88410000  0.82248000  1
  C  C404  1  0.68590000  0.72950000  0.70251000  1
  C  C405  1  0.68590000  0.77050000  0.20251000  1
  C  C406  1  0.68710000  0.74900000  0.44427000  1
  C  C407  1  0.68710000  0.75100000  0.94427000  1
  C  C408  1  0.68790000  0.23760000  0.60934000  1
  C  C409  1  0.68790000  0.26240000  0.10934000  1
  C  C410  1  0.68920000  0.23320000  0.70822000  1
  C  C411  1  0.68920000  0.26680000  0.20822000  1
  C  C412  1  0.68930000  0.53110000  0.32263000  1
  C  C413  1  0.68930000  0.96890000  0.82263000  1
  C  C414  1  0.69240000  0.24940000  0.99231000  1
  C  C415  1  0.69240000  0.25060000  0.49231000  1
  C  C416  1  0.69380000  0.23360000  0.64378000  1
  C  C417  1  0.69380000  0.26640000  0.14378000  1
  C  C418  1  0.71080000  0.21840000  0.85997000  1
  C  C419  1  0.71080000  0.28160000  0.35997000  1
  C  C420  1  0.71320000  0.23950000  0.95860000  1
  C  C421  1  0.71320000  0.26050000  0.45860000  1
  C  C422  1  0.71660000  0.63240000  0.54148000  1
  C  C423  1  0.71660000  0.86760000  0.04148000  1
  C  C424  1  0.72150000  0.22270000  0.89456000  1
  C  C425  1  0.72150000  0.27730000  0.39456000  1
  C  C426  1  0.72330000  0.56110000  0.89709000  1
  C  C427  1  0.72330000  0.93890000  0.39709000  1
  C  C428  1  0.73060000  0.72500000  0.53945000  1
  C  C429  1  0.73060000  0.77500000  0.03945000  1
  C  C430  1  0.74210000  0.68410000  0.92882000  1
  C  C431  1  0.74210000  0.81590000  0.42882000  1
  C  C432  1  0.74450000  0.51800000  0.73457000  1
  C  C433  1  0.74450000  0.98200000  0.23457000  1
  C  C434  1  0.74510000  0.16510000  0.69296000  1
  C  C435  1  0.74510000  0.33490000  0.19296000  1
  C  C436  1  0.74650000  0.16560000  0.66049000  1
  C  C437  1  0.74650000  0.33440000  0.16049000  1
  C  C438  1  0.74860000  0.65690000  0.71348000  1
  C  C439  1  0.74860000  0.84310000  0.21348000  1
  C  C440  1  0.75130000  0.70380000  0.19323000  1
  C  C441  1  0.75130000  0.79620000  0.69323000  1
  C  C442  1  0.75850000  0.68720000  0.45702000  1
  C  C443  1  0.75850000  0.81280000  0.95702000  1
  C  C444  1  0.76520000  0.16650000  0.94624000  1
  C  C445  1  0.76520000  0.33350000  0.44624000  1
  C  C446  1  0.77180000  0.15780000  0.91386000  1
  C  C447  1  0.77180000  0.34220000  0.41386000  1
  C  C448  1  0.78750000  0.57210000  0.81689000  1
  C  C449  1  0.78750000  0.92790000  0.31689000  1
  C  C450  1  0.78810000  0.01230000  0.31162000  1
  C  C451  1  0.78810000  0.48770000  0.81162000  1
  C  C452  1  0.80020000  0.50180000  0.55513000  1
  C  C453  1  0.80020000  0.99820000  0.05513000  1
  C  C454  1  0.80410000  0.09980000  0.70973000  1
  C  C455  1  0.80410000  0.40020000  0.20973000  1
  C  C456  1  0.80480000  0.09840000  0.64577000  1
  C  C457  1  0.80480000  0.40160000  0.14577000  1
  C  C458  1  0.81160000  0.58530000  0.55191000  1
  C  C459  1  0.81160000  0.91470000  0.05191000  1
  C  C460  1  0.81660000  0.10310000  0.96591000  1
  C  C461  1  0.81660000  0.39690000  0.46591000  1
  C  C462  1  0.83070000  0.08670000  0.90258000  1
  C  C463  1  0.83070000  0.41330000  0.40258000  1
  C  C464  1  0.85100000  0.55720000  0.89628000  1
  C  C465  1  0.85100000  0.94280000  0.39628000  1
  C  C466  1  0.85770000  0.03530000  0.66234000  1
  C  C467  1  0.85770000  0.46470000  0.16234000  1
  C  C468  1  0.85810000  0.03630000  0.69485000  1
  C  C469  1  0.85810000  0.46370000  0.19485000  1
  C  C470  1  0.86800000  0.03560000  0.95378000  1
  C  C471  1  0.86800000  0.46440000  0.45378000  1
  C  C472  1  0.87220000  0.51400000  0.73405000  1
  C  C473  1  0.87220000  0.98600000  0.23405000  1
  C  C474  1  0.87270000  0.68030000  0.92788000  1
  C  C475  1  0.87270000  0.81970000  0.42788000  1
  C  C476  1  0.87550000  0.02620000  0.92198000  1
  C  C477  1  0.87550000  0.47380000  0.42198000  1
  C  C478  1  0.87900000  0.70560000  0.19381000  1
  C  C479  1  0.87900000  0.79440000  0.69381000  1
  C  C480  1  0.87910000  0.65380000  0.71384000  1
  C  C481  1  0.87910000  0.84620000  0.21384000  1
  C  C482  1  0.88670000  0.69220000  0.45711000  1
  C  C483  1  0.88670000  0.80780000  0.95711000  1
  C  C484  1  0.91690000  0.24360000  0.55409000  1
  C  C485  1  0.91690000  0.25640000  0.05409000  1
  C  C486  1  0.91840000  0.23090000  0.79792000  1
  C  C487  1  0.91840000  0.26910000  0.29792000  1
  C  C488  1  0.92330000  0.61490000  0.91110000  1
  C  C489  1  0.92330000  0.88510000  0.41110000  1
  C  C490  1  0.93750000  0.58010000  0.72434000  1
  C  C491  1  0.93750000  0.91990000  0.22434000  1
  C  C492  1  0.94380000  0.72560000  0.70336000  1
  C  C493  1  0.94380000  0.77440000  0.20336000  1
  C  C494  1  0.94410000  0.74380000  0.94317000  1
  C  C495  1  0.94410000  0.75620000  0.44317000  1
  N  N496  1  0.30380000  0.53790000  0.45049000  1
  N  N497  1  0.30380000  0.96210000  0.95049000  1
  N  N498  1  0.31510000  0.55570000  0.19239000  1
  N  N499  1  0.31510000  0.94430000  0.69239000  1
  N  N500  1  0.32920000  0.51550000  0.70272000  1
  N  N501  1  0.32920000  0.98450000  0.20272000  1
  N  N502  1  0.33700000  0.53210000  0.95391000  1
  N  N503  1  0.33700000  0.96790000  0.45391000  1
  N  N504  1  0.66300000  0.03210000  0.54609000  1
  N  N505  1  0.66300000  0.46790000  0.04609000  1
  N  N506  1  0.67080000  0.01550000  0.79728000  1
  N  N507  1  0.67080000  0.48450000  0.29728000  1
  N  N508  1  0.68490000  0.05570000  0.30761000  1
  N  N509  1  0.68490000  0.44430000  0.80761000  1
  N  N510  1  0.69620000  0.03790000  0.04951000  1
  N  N511  1  0.69620000  0.46210000  0.54951000  1
  O  O512  1  0.12610000  0.69930000  0.19716000  1
  O  O513  1  0.12610000  0.80070000  0.69716000  1
  O  O514  1  0.13430000  0.68810000  0.45265000  1
  O  O515  1  0.13430000  0.81190000  0.95265000  1
  O  O516  1  0.13970000  0.67750000  0.94185000  1
  O  O517  1  0.13970000  0.82250000  0.44185000  1
  O  O518  1  0.14400000  0.66666667  0.70604000  1
  O  O519  1  0.14400000  0.83340000  0.20604000  1
  O  O520  1  0.28020000  0.64880000  0.65295000  1
  O  O521  1  0.28020000  0.85120000  0.15295000  1
  O  O522  1  0.28580000  0.69280000  0.40251000  1
  O  O523  1  0.28580000  0.80720000  0.90251000  1
  O  O524  1  0.29080000  0.67970000  0.99639000  1
  O  O525  1  0.29080000  0.82030000  0.49639000  1
  O  O526  1  0.30540000  0.69710000  0.24470000  1
  O  O527  1  0.30540000  0.80290000  0.74470000  1
  O  O528  1  0.30960000  0.71550000  0.15401000  1
  O  O529  1  0.30960000  0.78450000  0.65401000  1
  O  O530  1  0.34330000  0.67370000  0.90544000  1
  O  O531  1  0.34330000  0.82630000  0.40544000  1
  O  O532  1  0.34470000  0.68720000  0.49341000  1
  O  O533  1  0.34470000  0.81280000  0.99341000  1
  O  O534  1  0.35590000  0.66920000  0.74461000  1
  O  O535  1  0.35590000  0.83080000  0.24461000  1
  O  O536  1  0.49230000  0.66930000  0.69073000  1
  O  O537  1  0.49230000  0.83070000  0.19073000  1
  O  O538  1  0.49840000  0.67650000  0.44180000  1
  O  O539  1  0.49840000  0.82350000  0.94180000  1
  O  O540  1  0.49850000  0.69730000  0.20357000  1
  O  O541  1  0.49850000  0.80270000  0.70357000  1
  O  O542  1  0.49910000  0.69130000  0.95729000  1
  O  O543  1  0.49910000  0.80870000  0.45729000  1
  O  O544  1  0.50090000  0.19130000  0.54271000  1
  O  O545  1  0.50090000  0.30870000  0.04271000  1
  O  O546  1  0.50150000  0.19730000  0.29643000  1
  O  O547  1  0.50150000  0.30270000  0.79643000  1
  O  O548  1  0.50160000  0.17650000  0.05820000  1
  O  O549  1  0.50160000  0.32350000  0.55820000  1
  O  O550  1  0.50770000  0.16930000  0.80927000  1
  O  O551  1  0.50770000  0.33070000  0.30927000  1
  O  O552  1  0.64410000  0.16920000  0.75539000  1
  O  O553  1  0.64410000  0.33080000  0.25539000  1
  O  O554  1  0.65530000  0.18720000  0.00659000  1
  O  O555  1  0.65530000  0.31280000  0.50659000  1
  O  O556  1  0.65670000  0.17370000  0.59456000  1
  O  O557  1  0.65670000  0.32630000  0.09456000  1
  O  O558  1  0.69040000  0.21550000  0.34599000  1
  O  O559  1  0.69040000  0.28450000  0.84599000  1
  O  O560  1  0.69460000  0.19710000  0.25530000  1
  O  O561  1  0.69460000  0.30290000  0.75530000  1
  O  O562  1  0.70920000  0.17970000  0.50361000  1
  O  O563  1  0.70920000  0.32030000  0.00361000  1
  O  O564  1  0.71420000  0.19280000  0.09749000  1
  O  O565  1  0.71420000  0.30720000  0.59749000  1
  O  O566  1  0.71980000  0.14880000  0.84705000  1
  O  O567  1  0.71980000  0.35120000  0.34705000  1
  O  O568  1  0.85600000  0.16660000  0.79396000  1
  O  O569  1  0.85600000  0.33340000  0.29396000  1
  O  O570  1  0.86030000  0.17750000  0.55815000  1
  O  O571  1  0.86030000  0.32250000  0.05815000  1
  O  O572  1  0.86570000  0.18810000  0.04735000  1
  O  O573  1  0.86570000  0.31190000  0.54735000  1
  O  O574  1  0.87390000  0.19930000  0.30284000  1
  O  O575  1  0.87390000  0.30070000  0.80284000  1
