# generated using pymatgen
data_Cd4H19C28(N3O4)3
_symmetry_space_group_name_H-M   'P 1'
_cell_length_a   14.35330000
_cell_length_b   19.90260000
_cell_length_c   37.94100000
_cell_angle_alpha   90.00000000
_cell_angle_beta   90.00000000
_cell_angle_gamma   90.00000000
_symmetry_Int_Tables_number   1
_chemical_formula_structural   Cd4H19C28(N3O4)3
_chemical_formula_sum   'Cd32 H152 C224 N72 O96'
_cell_volume   10838.52915471
_cell_formula_units_Z   8
loop_
 _symmetry_equiv_pos_site_id
 _symmetry_equiv_pos_as_xyz
  1  'x, y, z'
loop_
 _atom_site_type_symbol
 _atom_site_label
 _atom_site_symmetry_multiplicity
 _atom_site_fract_x
 _atom_site_fract_y
 _atom_site_fract_z
 _atom_site_occupancy
  Cd  Cd0  1  0.50153000  0.73933000  0.88424000  1
  Cd  Cd1  1  0.00153000  0.26067000  0.88424000  1
  Cd  Cd2  1  0.08963000  0.79005000  0.82394000  1
  Cd  Cd3  1  0.58963000  0.20995000  0.82394000  1
  Cd  Cd4  1  0.91183000  0.67015000  0.81985000  1
  Cd  Cd5  1  0.41183000  0.32985000  0.81985000  1
  Cd  Cd6  1  0.24878000  0.81696000  0.75227000  1
  Cd  Cd7  1  0.74878000  0.18304000  0.75227000  1
  Cd  Cd8  1  0.74878000  0.68304000  0.74773000  1
  Cd  Cd9  1  0.24878000  0.31696000  0.74773000  1
  Cd  Cd10  1  0.41183000  0.82985000  0.68015000  1
  Cd  Cd11  1  0.91183000  0.17015000  0.68015000  1
  Cd  Cd12  1  0.58963000  0.70995000  0.67606000  1
  Cd  Cd13  1  0.08963000  0.29005000  0.67606000  1
  Cd  Cd14  1  0.00153000  0.76067000  0.61576000  1
  Cd  Cd15  1  0.50153000  0.23933000  0.61576000  1
  Cd  Cd16  1  0.49847000  0.76067000  0.38424000  1
  Cd  Cd17  1  0.99847000  0.23933000  0.38424000  1
  Cd  Cd18  1  0.91037000  0.70995000  0.32394000  1
  Cd  Cd19  1  0.41037000  0.29005000  0.32394000  1
  Cd  Cd20  1  0.08817000  0.82985000  0.31985000  1
  Cd  Cd21  1  0.58817000  0.17015000  0.31985000  1
  Cd  Cd22  1  0.75122000  0.68304000  0.25227000  1
  Cd  Cd23  1  0.25122000  0.31696000  0.25227000  1
  Cd  Cd24  1  0.25122000  0.81696000  0.24773000  1
  Cd  Cd25  1  0.75122000  0.18304000  0.24773000  1
  Cd  Cd26  1  0.58817000  0.67015000  0.18015000  1
  Cd  Cd27  1  0.08817000  0.32985000  0.18015000  1
  Cd  Cd28  1  0.41037000  0.79005000  0.17606000  1
  Cd  Cd29  1  0.91037000  0.20995000  0.17606000  1
  Cd  Cd30  1  0.99847000  0.73933000  0.11576000  1
  Cd  Cd31  1  0.49847000  0.26067000  0.11576000  1
  H  H32  1  0.59760000  0.65060000  0.99970000  1
  H  H33  1  0.09760000  0.34940000  0.99970000  1
  H  H34  1  0.09250000  0.79450000  0.99910000  1
  H  H35  1  0.59250000  0.20550000  0.99910000  1
  H  H36  1  0.90640000  0.64610000  0.93940000  1
  H  H37  1  0.40640000  0.35390000  0.93940000  1
  H  H38  1  0.09300000  0.79420000  0.93840000  1
  H  H39  1  0.59300000  0.20580000  0.93840000  1
  H  H40  1  0.69980000  0.69750000  0.91000000  1
  H  H41  1  0.19980000  0.30250000  0.91000000  1
  H  H42  1  0.30560000  0.76120000  0.90870000  1
  H  H43  1  0.80560000  0.23880000  0.90870000  1
  H  H44  1  0.79540000  0.68270000  0.89690000  1
  H  H45  1  0.29540000  0.31730000  0.89690000  1
  H  H46  1  0.20820000  0.77020000  0.89600000  1
  H  H47  1  0.70820000  0.22980000  0.89600000  1
  H  H48  1  0.63660000  0.96170000  0.81880000  1
  H  H49  1  0.13660000  0.03830000  0.81880000  1
  H  H50  1  0.88330000  0.91860000  0.81170000  1
  H  H51  1  0.38330000  0.08140000  0.81170000  1
  H  H52  1  0.51520000  0.82280000  0.81110000  1
  H  H53  1  0.01520000  0.17720000  0.81110000  1
  H  H54  1  0.36890000  0.57120000  0.80980000  1
  H  H55  1  0.86890000  0.42880000  0.80980000  1
  H  H56  1  0.56530000  0.70180000  0.80130000  1
  H  H57  1  0.06530000  0.29820000  0.80130000  1
  H  H58  1  0.09330000  0.55050000  0.80120000  1
  H  H59  1  0.59330000  0.44950000  0.80120000  1
  H  H60  1  0.64600000  0.85900000  0.79040000  1
  H  H61  1  0.14600000  0.14100000  0.79040000  1
  H  H62  1  0.36490000  0.97980000  0.78440000  1
  H  H63  1  0.86490000  0.02020000  0.78440000  1
  H  H64  1  0.37390000  0.67350000  0.78190000  1
  H  H65  1  0.87390000  0.32650000  0.78190000  1
  H  H66  1  0.45440000  0.84270000  0.78100000  1
  H  H67  1  0.95440000  0.15730000  0.78100000  1
  H  H68  1  0.59870000  0.55220000  0.77380000  1
  H  H69  1  0.09870000  0.44780000  0.77380000  1
  H  H70  1  0.09870000  0.94780000  0.72620000  1
  H  H71  1  0.59870000  0.05220000  0.72620000  1
  H  H72  1  0.95440000  0.65730000  0.71900000  1
  H  H73  1  0.45440000  0.34270000  0.71900000  1
  H  H74  1  0.87390000  0.82650000  0.71810000  1
  H  H75  1  0.37390000  0.17350000  0.71810000  1
  H  H76  1  0.86490000  0.52020000  0.71560000  1
  H  H77  1  0.36490000  0.47980000  0.71560000  1
  H  H78  1  0.14600000  0.64100000  0.70960000  1
  H  H79  1  0.64600000  0.35900000  0.70960000  1
  H  H80  1  0.59330000  0.94950000  0.69880000  1
  H  H81  1  0.09330000  0.05050000  0.69880000  1
  H  H82  1  0.06530000  0.79820000  0.69870000  1
  H  H83  1  0.56530000  0.20180000  0.69870000  1
  H  H84  1  0.86890000  0.92880000  0.69020000  1
  H  H85  1  0.36890000  0.07120000  0.69020000  1
  H  H86  1  0.01520000  0.67720000  0.68890000  1
  H  H87  1  0.51520000  0.32280000  0.68890000  1
  H  H88  1  0.38330000  0.58140000  0.68830000  1
  H  H89  1  0.88330000  0.41860000  0.68830000  1
  H  H90  1  0.13660000  0.53830000  0.68120000  1
  H  H91  1  0.63660000  0.46170000  0.68120000  1
  H  H92  1  0.70820000  0.72980000  0.60400000  1
  H  H93  1  0.20820000  0.27020000  0.60400000  1
  H  H94  1  0.29540000  0.81730000  0.60310000  1
  H  H95  1  0.79540000  0.18270000  0.60310000  1
  H  H96  1  0.80560000  0.73880000  0.59130000  1
  H  H97  1  0.30560000  0.26120000  0.59130000  1
  H  H98  1  0.19980000  0.80250000  0.59000000  1
  H  H99  1  0.69980000  0.19750000  0.59000000  1
  H  H100  1  0.59300000  0.70580000  0.56160000  1
  H  H101  1  0.09300000  0.29420000  0.56160000  1
  H  H102  1  0.40640000  0.85390000  0.56060000  1
  H  H103  1  0.90640000  0.14610000  0.56060000  1
  H  H104  1  0.59250000  0.70550000  0.50090000  1
  H  H105  1  0.09250000  0.29450000  0.50090000  1
  H  H106  1  0.09760000  0.84940000  0.50030000  1
  H  H107  1  0.59760000  0.15060000  0.50030000  1
  H  H108  1  0.40240000  0.84940000  0.49970000  1
  H  H109  1  0.90240000  0.15060000  0.49970000  1
  H  H110  1  0.90750000  0.70550000  0.49910000  1
  H  H111  1  0.40750000  0.29450000  0.49910000  1
  H  H112  1  0.09360000  0.85390000  0.43940000  1
  H  H113  1  0.59360000  0.14610000  0.43940000  1
  H  H114  1  0.90700000  0.70580000  0.43840000  1
  H  H115  1  0.40700000  0.29420000  0.43840000  1
  H  H116  1  0.30020000  0.80250000  0.41000000  1
  H  H117  1  0.80020000  0.19750000  0.41000000  1
  H  H118  1  0.69440000  0.73880000  0.40870000  1
  H  H119  1  0.19440000  0.26120000  0.40870000  1
  H  H120  1  0.20460000  0.81730000  0.39690000  1
  H  H121  1  0.70460000  0.18270000  0.39690000  1
  H  H122  1  0.79180000  0.72980000  0.39600000  1
  H  H123  1  0.29180000  0.27020000  0.39600000  1
  H  H124  1  0.36340000  0.53830000  0.31880000  1
  H  H125  1  0.86340000  0.46170000  0.31880000  1
  H  H126  1  0.11670000  0.58140000  0.31170000  1
  H  H127  1  0.61670000  0.41860000  0.31170000  1
  H  H128  1  0.48480000  0.67720000  0.31110000  1
  H  H129  1  0.98480000  0.32280000  0.31110000  1
  H  H130  1  0.63110000  0.92880000  0.30980000  1
  H  H131  1  0.13110000  0.07120000  0.30980000  1
  H  H132  1  0.43470000  0.79820000  0.30130000  1
  H  H133  1  0.93470000  0.20180000  0.30130000  1
  H  H134  1  0.90670000  0.94950000  0.30120000  1
  H  H135  1  0.40670000  0.05050000  0.30120000  1
  H  H136  1  0.35400000  0.64100000  0.29040000  1
  H  H137  1  0.85400000  0.35900000  0.29040000  1
  H  H138  1  0.63510000  0.52020000  0.28440000  1
  H  H139  1  0.13510000  0.47980000  0.28440000  1
  H  H140  1  0.62610000  0.82650000  0.28190000  1
  H  H141  1  0.12610000  0.17350000  0.28190000  1
  H  H142  1  0.54560000  0.65730000  0.28100000  1
  H  H143  1  0.04560000  0.34270000  0.28100000  1
  H  H144  1  0.40130000  0.94780000  0.27380000  1
  H  H145  1  0.90130000  0.05220000  0.27380000  1
  H  H146  1  0.90130000  0.55220000  0.22620000  1
  H  H147  1  0.40130000  0.44780000  0.22620000  1
  H  H148  1  0.04560000  0.84270000  0.21900000  1
  H  H149  1  0.54560000  0.15730000  0.21900000  1
  H  H150  1  0.12610000  0.67350000  0.21810000  1
  H  H151  1  0.62610000  0.32650000  0.21810000  1
  H  H152  1  0.13510000  0.97980000  0.21560000  1
  H  H153  1  0.63510000  0.02020000  0.21560000  1
  H  H154  1  0.85400000  0.85900000  0.20960000  1
  H  H155  1  0.35400000  0.14100000  0.20960000  1
  H  H156  1  0.40670000  0.55050000  0.19880000  1
  H  H157  1  0.90670000  0.44950000  0.19880000  1
  H  H158  1  0.93470000  0.70180000  0.19870000  1
  H  H159  1  0.43470000  0.29820000  0.19870000  1
  H  H160  1  0.13110000  0.57120000  0.19020000  1
  H  H161  1  0.63110000  0.42880000  0.19020000  1
  H  H162  1  0.98480000  0.82280000  0.18890000  1
  H  H163  1  0.48480000  0.17720000  0.18890000  1
  H  H164  1  0.61670000  0.91860000  0.18830000  1
  H  H165  1  0.11670000  0.08140000  0.18830000  1
  H  H166  1  0.86340000  0.96170000  0.18120000  1
  H  H167  1  0.36340000  0.03830000  0.18120000  1
  H  H168  1  0.29180000  0.77020000  0.10400000  1
  H  H169  1  0.79180000  0.22980000  0.10400000  1
  H  H170  1  0.70460000  0.68270000  0.10310000  1
  H  H171  1  0.20460000  0.31730000  0.10310000  1
  H  H172  1  0.19440000  0.76120000  0.09130000  1
  H  H173  1  0.69440000  0.23880000  0.09130000  1
  H  H174  1  0.80020000  0.69750000  0.09000000  1
  H  H175  1  0.30020000  0.30250000  0.09000000  1
  H  H176  1  0.40700000  0.79420000  0.06160000  1
  H  H177  1  0.90700000  0.20580000  0.06160000  1
  H  H178  1  0.59360000  0.64610000  0.06060000  1
  H  H179  1  0.09360000  0.35390000  0.06060000  1
  H  H180  1  0.40750000  0.79450000  0.00090000  1
  H  H181  1  0.90750000  0.20550000  0.00090000  1
  H  H182  1  0.90240000  0.65060000  0.00030000  1
  H  H183  1  0.40240000  0.34940000  0.00030000  1
  C  C184  1  0.50600000  0.72450000  0.99420000  1
  C  C185  1  0.00600000  0.27550000  0.99420000  1
  C  C186  1  0.94100000  0.67980000  0.98790000  1
  C  C187  1  0.44100000  0.32020000  0.98790000  1
  C  C188  1  0.05300000  0.76550000  0.98710000  1
  C  C189  1  0.55300000  0.23450000  0.98710000  1
  C  C190  1  0.50700000  0.72810000  0.95440000  1
  C  C191  1  0.00700000  0.27190000  0.95440000  1
  C  C192  1  0.94360000  0.67690000  0.95130000  1
  C  C193  1  0.44360000  0.32310000  0.95130000  1
  C  C194  1  0.05500000  0.76440000  0.95060000  1
  C  C195  1  0.55500000  0.23560000  0.95060000  1
  C  C196  1  0.00080000  0.71920000  0.93250000  1
  C  C197  1  0.50080000  0.28080000  0.93250000  1
  C  C198  1  0.00210000  0.71800000  0.89340000  1
  C  C199  1  0.50210000  0.28200000  0.89340000  1
  C  C200  1  0.29680000  0.77890000  0.86090000  1
  C  C201  1  0.79680000  0.22110000  0.86090000  1
  C  C202  1  0.70540000  0.69170000  0.85900000  1
  C  C203  1  0.20540000  0.30830000  0.85900000  1
  C  C204  1  0.38890000  0.80720000  0.81920000  1
  C  C205  1  0.88890000  0.19280000  0.81920000  1
  C  C206  1  0.61790000  0.69540000  0.81520000  1
  C  C207  1  0.11790000  0.30460000  0.81520000  1
  C  C208  1  0.62870000  0.95940000  0.79450000  1
  C  C209  1  0.12870000  0.04060000  0.79450000  1
  C  C210  1  0.10630000  0.91660000  0.79380000  1
  C  C211  1  0.60630000  0.08340000  0.79380000  1
  C  C212  1  0.87900000  0.92060000  0.78730000  1
  C  C213  1  0.37900000  0.07940000  0.78730000  1
  C  C214  1  0.89590000  0.79610000  0.78540000  1
  C  C215  1  0.39590000  0.20390000  0.78540000  1
  C  C216  1  0.37110000  0.57330000  0.78530000  1
  C  C217  1  0.87110000  0.42670000  0.78530000  1
  C  C218  1  0.87480000  0.55230000  0.78350000  1
  C  C219  1  0.37480000  0.44770000  0.78350000  1
  C  C220  1  0.63270000  0.89770000  0.77770000  1
  C  C221  1  0.13270000  0.10230000  0.77770000  1
  C  C222  1  0.10330000  0.54830000  0.77700000  1
  C  C223  1  0.60330000  0.45170000  0.77700000  1
  C  C224  1  0.11320000  0.98290000  0.77570000  1
  C  C225  1  0.61320000  0.01710000  0.77570000  1
  C  C226  1  0.11510000  0.67330000  0.77520000  1
  C  C227  1  0.61510000  0.32670000  0.77520000  1
  C  C228  1  0.87050000  0.98120000  0.77110000  1
  C  C229  1  0.37050000  0.01880000  0.77110000  1
  C  C230  1  0.37530000  0.63420000  0.76860000  1
  C  C231  1  0.87530000  0.36580000  0.76860000  1
  C  C232  1  0.88150000  0.86170000  0.76770000  1
  C  C233  1  0.38150000  0.13830000  0.76770000  1
  C  C234  1  0.37030000  0.51530000  0.76570000  1
  C  C235  1  0.87030000  0.48470000  0.76570000  1
  C  C236  1  0.60420000  0.51310000  0.76050000  1
  C  C237  1  0.10420000  0.48690000  0.76050000  1
  C  C238  1  0.11700000  0.60620000  0.75820000  1
  C  C239  1  0.61700000  0.39380000  0.75820000  1
  C  C240  1  0.61700000  0.89380000  0.74180000  1
  C  C241  1  0.11700000  0.10620000  0.74180000  1
  C  C242  1  0.10420000  0.98690000  0.73950000  1
  C  C243  1  0.60420000  0.01310000  0.73950000  1
  C  C244  1  0.87030000  0.98470000  0.73430000  1
  C  C245  1  0.37030000  0.01530000  0.73430000  1
  C  C246  1  0.38150000  0.63830000  0.73230000  1
  C  C247  1  0.88150000  0.36170000  0.73230000  1
  C  C248  1  0.87530000  0.86580000  0.73140000  1
  C  C249  1  0.37530000  0.13420000  0.73140000  1
  C  C250  1  0.37050000  0.51880000  0.72890000  1
  C  C251  1  0.87050000  0.48120000  0.72890000  1
  C  C252  1  0.61510000  0.82670000  0.72480000  1
  C  C253  1  0.11510000  0.17330000  0.72480000  1
  C  C254  1  0.61320000  0.51710000  0.72430000  1
  C  C255  1  0.11320000  0.48290000  0.72430000  1
  C  C256  1  0.60330000  0.95170000  0.72300000  1
  C  C257  1  0.10330000  0.04830000  0.72300000  1
  C  C258  1  0.13270000  0.60230000  0.72230000  1
  C  C259  1  0.63270000  0.39770000  0.72230000  1
  C  C260  1  0.37480000  0.94770000  0.71650000  1
  C  C261  1  0.87480000  0.05230000  0.71650000  1
  C  C262  1  0.87110000  0.92670000  0.71470000  1
  C  C263  1  0.37110000  0.07330000  0.71470000  1
  C  C264  1  0.39590000  0.70390000  0.71460000  1
  C  C265  1  0.89590000  0.29610000  0.71460000  1
  C  C266  1  0.37900000  0.57940000  0.71270000  1
  C  C267  1  0.87900000  0.42060000  0.71270000  1
  C  C268  1  0.60630000  0.58340000  0.70620000  1
  C  C269  1  0.10630000  0.41660000  0.70620000  1
  C  C270  1  0.12870000  0.54060000  0.70550000  1
  C  C271  1  0.62870000  0.45940000  0.70550000  1
  C  C272  1  0.11790000  0.80460000  0.68480000  1
  C  C273  1  0.61790000  0.19540000  0.68480000  1
  C  C274  1  0.88890000  0.69280000  0.68080000  1
  C  C275  1  0.38890000  0.30720000  0.68080000  1
  C  C276  1  0.20540000  0.80830000  0.64100000  1
  C  C277  1  0.70540000  0.19170000  0.64100000  1
  C  C278  1  0.79680000  0.72110000  0.63910000  1
  C  C279  1  0.29680000  0.27890000  0.63910000  1
  C  C280  1  0.50210000  0.78200000  0.60660000  1
  C  C281  1  0.00210000  0.21800000  0.60660000  1
  C  C282  1  0.50080000  0.78080000  0.56750000  1
  C  C283  1  0.00080000  0.21920000  0.56750000  1
  C  C284  1  0.55500000  0.73560000  0.54940000  1
  C  C285  1  0.05500000  0.26440000  0.54940000  1
  C  C286  1  0.44360000  0.82310000  0.54870000  1
  C  C287  1  0.94360000  0.17690000  0.54870000  1
  C  C288  1  0.00700000  0.77190000  0.54560000  1
  C  C289  1  0.50700000  0.22810000  0.54560000  1
  C  C290  1  0.55300000  0.73450000  0.51290000  1
  C  C291  1  0.05300000  0.26550000  0.51290000  1
  C  C292  1  0.44100000  0.82020000  0.51210000  1
  C  C293  1  0.94100000  0.17980000  0.51210000  1
  C  C294  1  0.00600000  0.77550000  0.50580000  1
  C  C295  1  0.50600000  0.22450000  0.50580000  1
  C  C296  1  0.49400000  0.77550000  0.49420000  1
  C  C297  1  0.99400000  0.22450000  0.49420000  1
  C  C298  1  0.05900000  0.82020000  0.48790000  1
  C  C299  1  0.55900000  0.17980000  0.48790000  1
  C  C300  1  0.94700000  0.73450000  0.48710000  1
  C  C301  1  0.44700000  0.26550000  0.48710000  1
  C  C302  1  0.49300000  0.77190000  0.45440000  1
  C  C303  1  0.99300000  0.22810000  0.45440000  1
  C  C304  1  0.05640000  0.82310000  0.45130000  1
  C  C305  1  0.55640000  0.17690000  0.45130000  1
  C  C306  1  0.94500000  0.73560000  0.45060000  1
  C  C307  1  0.44500000  0.26440000  0.45060000  1
  C  C308  1  0.99920000  0.78080000  0.43250000  1
  C  C309  1  0.49920000  0.21920000  0.43250000  1
  C  C310  1  0.99790000  0.78200000  0.39340000  1
  C  C311  1  0.49790000  0.21800000  0.39340000  1
  C  C312  1  0.70320000  0.72110000  0.36090000  1
  C  C313  1  0.20320000  0.27890000  0.36090000  1
  C  C314  1  0.29460000  0.80830000  0.35900000  1
  C  C315  1  0.79460000  0.19170000  0.35900000  1
  C  C316  1  0.61110000  0.69280000  0.31920000  1
  C  C317  1  0.11110000  0.30720000  0.31920000  1
  C  C318  1  0.38210000  0.80460000  0.31520000  1
  C  C319  1  0.88210000  0.19540000  0.31520000  1
  C  C320  1  0.37130000  0.54060000  0.29450000  1
  C  C321  1  0.87130000  0.45940000  0.29450000  1
  C  C322  1  0.89370000  0.58340000  0.29380000  1
  C  C323  1  0.39370000  0.41660000  0.29380000  1
  C  C324  1  0.12100000  0.57940000  0.28730000  1
  C  C325  1  0.62100000  0.42060000  0.28730000  1
  C  C326  1  0.10410000  0.70390000  0.28540000  1
  C  C327  1  0.60410000  0.29610000  0.28540000  1
  C  C328  1  0.62890000  0.92670000  0.28530000  1
  C  C329  1  0.12890000  0.07330000  0.28530000  1
  C  C330  1  0.12520000  0.94770000  0.28350000  1
  C  C331  1  0.62520000  0.05230000  0.28350000  1
  C  C332  1  0.36730000  0.60230000  0.27770000  1
  C  C333  1  0.86730000  0.39770000  0.27770000  1
  C  C334  1  0.89670000  0.95170000  0.27700000  1
  C  C335  1  0.39670000  0.04830000  0.27700000  1
  C  C336  1  0.88680000  0.51710000  0.27570000  1
  C  C337  1  0.38680000  0.48290000  0.27570000  1
  C  C338  1  0.88490000  0.82670000  0.27520000  1
  C  C339  1  0.38490000  0.17330000  0.27520000  1
  C  C340  1  0.12950000  0.51880000  0.27110000  1
  C  C341  1  0.62950000  0.48120000  0.27110000  1
  C  C342  1  0.62470000  0.86580000  0.26860000  1
  C  C343  1  0.12470000  0.13420000  0.26860000  1
  C  C344  1  0.11850000  0.63830000  0.26770000  1
  C  C345  1  0.61850000  0.36170000  0.26770000  1
  C  C346  1  0.62970000  0.98470000  0.26570000  1
  C  C347  1  0.12970000  0.01530000  0.26570000  1
  C  C348  1  0.39580000  0.98690000  0.26050000  1
  C  C349  1  0.89580000  0.01310000  0.26050000  1
  C  C350  1  0.88300000  0.89380000  0.25820000  1
  C  C351  1  0.38300000  0.10620000  0.25820000  1
  C  C352  1  0.38300000  0.60620000  0.24180000  1
  C  C353  1  0.88300000  0.39380000  0.24180000  1
  C  C354  1  0.89580000  0.51310000  0.23950000  1
  C  C355  1  0.39580000  0.48690000  0.23950000  1
  C  C356  1  0.12970000  0.51530000  0.23430000  1
  C  C357  1  0.62970000  0.48470000  0.23430000  1
  C  C358  1  0.61850000  0.86170000  0.23230000  1
  C  C359  1  0.11850000  0.13830000  0.23230000  1
  C  C360  1  0.12470000  0.63420000  0.23140000  1
  C  C361  1  0.62470000  0.36580000  0.23140000  1
  C  C362  1  0.62950000  0.98120000  0.22890000  1
  C  C363  1  0.12950000  0.01880000  0.22890000  1
  C  C364  1  0.38490000  0.67330000  0.22480000  1
  C  C365  1  0.88490000  0.32670000  0.22480000  1
  C  C366  1  0.38680000  0.98290000  0.22430000  1
  C  C367  1  0.88680000  0.01710000  0.22430000  1
  C  C368  1  0.39670000  0.54830000  0.22300000  1
  C  C369  1  0.89670000  0.45170000  0.22300000  1
  C  C370  1  0.86730000  0.89770000  0.22230000  1
  C  C371  1  0.36730000  0.10230000  0.22230000  1
  C  C372  1  0.62520000  0.55230000  0.21650000  1
  C  C373  1  0.12520000  0.44770000  0.21650000  1
  C  C374  1  0.12890000  0.57330000  0.21470000  1
  C  C375  1  0.62890000  0.42670000  0.21470000  1
  C  C376  1  0.60410000  0.79610000  0.21460000  1
  C  C377  1  0.10410000  0.20390000  0.21460000  1
  C  C378  1  0.62100000  0.92060000  0.21270000  1
  C  C379  1  0.12100000  0.07940000  0.21270000  1
  C  C380  1  0.39370000  0.91660000  0.20620000  1
  C  C381  1  0.89370000  0.08340000  0.20620000  1
  C  C382  1  0.87130000  0.95940000  0.20550000  1
  C  C383  1  0.37130000  0.04060000  0.20550000  1
  C  C384  1  0.88210000  0.69540000  0.18480000  1
  C  C385  1  0.38210000  0.30460000  0.18480000  1
  C  C386  1  0.11110000  0.80720000  0.18080000  1
  C  C387  1  0.61110000  0.19280000  0.18080000  1
  C  C388  1  0.79460000  0.69170000  0.14100000  1
  C  C389  1  0.29460000  0.30830000  0.14100000  1
  C  C390  1  0.20320000  0.77890000  0.13910000  1
  C  C391  1  0.70320000  0.22110000  0.13910000  1
  C  C392  1  0.49790000  0.71800000  0.10660000  1
  C  C393  1  0.99790000  0.28200000  0.10660000  1
  C  C394  1  0.49920000  0.71920000  0.06750000  1
  C  C395  1  0.99920000  0.28080000  0.06750000  1
  C  C396  1  0.44500000  0.76440000  0.04940000  1
  C  C397  1  0.94500000  0.23560000  0.04940000  1
  C  C398  1  0.55640000  0.67690000  0.04870000  1
  C  C399  1  0.05640000  0.32310000  0.04870000  1
  C  C400  1  0.99300000  0.72810000  0.04560000  1
  C  C401  1  0.49300000  0.27190000  0.04560000  1
  C  C402  1  0.44700000  0.76550000  0.01290000  1
  C  C403  1  0.94700000  0.23450000  0.01290000  1
  C  C404  1  0.55900000  0.67980000  0.01210000  1
  C  C405  1  0.05900000  0.32020000  0.01210000  1
  C  C406  1  0.99400000  0.72450000  0.00580000  1
  C  C407  1  0.49400000  0.27550000  0.00580000  1
  N  N408  1  0.73750000  0.69050000  0.89280000  1
  N  N409  1  0.23750000  0.30950000  0.89280000  1
  N  N410  1  0.26710000  0.76910000  0.89180000  1
  N  N411  1  0.76710000  0.23090000  0.89180000  1
  N  N412  1  0.38760000  0.78680000  0.85374000  1
  N  N413  1  0.88760000  0.21320000  0.85374000  1
  N  N414  1  0.61430000  0.69950000  0.85060000  1
  N  N415  1  0.11430000  0.30050000  0.85060000  1
  N  N416  1  0.24280000  0.79100000  0.83403000  1
  N  N417  1  0.74280000  0.20900000  0.83403000  1
  N  N418  1  0.75740000  0.68150000  0.83066000  1
  N  N419  1  0.25740000  0.31850000  0.83066000  1
  N  N420  1  0.30250000  0.81070000  0.80699000  1
  N  N421  1  0.80250000  0.18930000  0.80699000  1
  N  N422  1  0.46070000  0.82630000  0.80190000  1
  N  N423  1  0.96070000  0.17370000  0.80190000  1
  N  N424  1  0.69710000  0.68230000  0.80177000  1
  N  N425  1  0.19710000  0.31770000  0.80177000  1
  N  N426  1  0.19710000  0.81770000  0.69823000  1
  N  N427  1  0.69710000  0.18230000  0.69823000  1
  N  N428  1  0.96070000  0.67370000  0.69810000  1
  N  N429  1  0.46070000  0.32630000  0.69810000  1
  N  N430  1  0.80250000  0.68930000  0.69301000  1
  N  N431  1  0.30250000  0.31070000  0.69301000  1
  N  N432  1  0.25740000  0.81850000  0.66934000  1
  N  N433  1  0.75740000  0.18150000  0.66934000  1
  N  N434  1  0.74280000  0.70900000  0.66597000  1
  N  N435  1  0.24280000  0.29100000  0.66597000  1
  N  N436  1  0.11430000  0.80050000  0.64940000  1
  N  N437  1  0.61430000  0.19950000  0.64940000  1
  N  N438  1  0.88760000  0.71320000  0.64626000  1
  N  N439  1  0.38760000  0.28680000  0.64626000  1
  N  N440  1  0.76710000  0.73090000  0.60820000  1
  N  N441  1  0.26710000  0.26910000  0.60820000  1
  N  N442  1  0.23750000  0.80950000  0.60720000  1
  N  N443  1  0.73750000  0.19050000  0.60720000  1
  N  N444  1  0.26250000  0.80950000  0.39280000  1
  N  N445  1  0.76250000  0.19050000  0.39280000  1
  N  N446  1  0.73290000  0.73090000  0.39180000  1
  N  N447  1  0.23290000  0.26910000  0.39180000  1
  N  N448  1  0.61240000  0.71320000  0.35374000  1
  N  N449  1  0.11240000  0.28680000  0.35374000  1
  N  N450  1  0.38570000  0.80050000  0.35060000  1
  N  N451  1  0.88570000  0.19950000  0.35060000  1
  N  N452  1  0.75720000  0.70900000  0.33403000  1
  N  N453  1  0.25720000  0.29100000  0.33403000  1
  N  N454  1  0.24260000  0.81850000  0.33066000  1
  N  N455  1  0.74260000  0.18150000  0.33066000  1
  N  N456  1  0.69750000  0.68930000  0.30699000  1
  N  N457  1  0.19750000  0.31070000  0.30699000  1
  N  N458  1  0.53930000  0.67370000  0.30190000  1
  N  N459  1  0.03930000  0.32630000  0.30190000  1
  N  N460  1  0.30290000  0.81770000  0.30177000  1
  N  N461  1  0.80290000  0.18230000  0.30177000  1
  N  N462  1  0.80290000  0.68230000  0.19823000  1
  N  N463  1  0.30290000  0.31770000  0.19823000  1
  N  N464  1  0.03930000  0.82630000  0.19810000  1
  N  N465  1  0.53930000  0.17370000  0.19810000  1
  N  N466  1  0.19750000  0.81070000  0.19301000  1
  N  N467  1  0.69750000  0.18930000  0.19301000  1
  N  N468  1  0.74260000  0.68150000  0.16934000  1
  N  N469  1  0.24260000  0.31850000  0.16934000  1
  N  N470  1  0.25720000  0.79100000  0.16597000  1
  N  N471  1  0.75720000  0.20900000  0.16597000  1
  N  N472  1  0.88570000  0.69950000  0.14940000  1
  N  N473  1  0.38570000  0.30050000  0.14940000  1
  N  N474  1  0.11240000  0.78680000  0.14626000  1
  N  N475  1  0.61240000  0.21320000  0.14626000  1
  N  N476  1  0.23290000  0.76910000  0.10820000  1
  N  N477  1  0.73290000  0.23090000  0.10820000  1
  N  N478  1  0.76250000  0.69050000  0.10720000  1
  N  N479  1  0.26250000  0.30950000  0.10720000  1
  O  O480  1  0.44440000  0.76130000  0.93920000  1
  O  O481  1  0.94440000  0.23870000  0.93920000  1
  O  O482  1  0.56730000  0.69660000  0.93880000  1
  O  O483  1  0.06730000  0.30340000  0.93880000  1
  O  O484  1  0.05930000  0.75720000  0.87887000  1
  O  O485  1  0.55930000  0.24280000  0.87887000  1
  O  O486  1  0.94690000  0.67990000  0.87739000  1
  O  O487  1  0.44690000  0.32010000  0.87739000  1
  O  O488  1  0.09390000  0.91400000  0.82640000  1
  O  O489  1  0.59390000  0.08600000  0.82640000  1
  O  O490  1  0.92910000  0.79430000  0.81630000  1
  O  O491  1  0.42910000  0.20570000  0.81630000  1
  O  O492  1  0.90070000  0.55630000  0.81484000  1
  O  O493  1  0.40070000  0.44370000  0.81484000  1
  O  O494  1  0.06800000  0.68050000  0.80373000  1
  O  O495  1  0.56800000  0.31950000  0.80373000  1
  O  O496  1  0.11280000  0.86350000  0.77601000  1
  O  O497  1  0.61280000  0.13650000  0.77601000  1
  O  O498  1  0.87910000  0.74290000  0.76892000  1
  O  O499  1  0.37910000  0.25710000  0.76892000  1
  O  O500  1  0.86040000  0.60460000  0.76470000  1
  O  O501  1  0.36040000  0.39540000  0.76470000  1
  O  O502  1  0.15890000  0.72060000  0.76240000  1
  O  O503  1  0.65890000  0.27940000  0.76240000  1
  O  O504  1  0.65890000  0.77940000  0.73760000  1
  O  O505  1  0.15890000  0.22060000  0.73760000  1
  O  O506  1  0.36040000  0.89540000  0.73530000  1
  O  O507  1  0.86040000  0.10460000  0.73530000  1
  O  O508  1  0.37910000  0.75710000  0.73108000  1
  O  O509  1  0.87910000  0.24290000  0.73108000  1
  O  O510  1  0.61280000  0.63650000  0.72399000  1
  O  O511  1  0.11280000  0.36350000  0.72399000  1
  O  O512  1  0.56800000  0.81950000  0.69627000  1
  O  O513  1  0.06800000  0.18050000  0.69627000  1
  O  O514  1  0.40070000  0.94370000  0.68516000  1
  O  O515  1  0.90070000  0.05630000  0.68516000  1
  O  O516  1  0.42910000  0.70570000  0.68370000  1
  O  O517  1  0.92910000  0.29430000  0.68370000  1
  O  O518  1  0.59390000  0.58600000  0.67360000  1
  O  O519  1  0.09390000  0.41400000  0.67360000  1
  O  O520  1  0.44690000  0.82010000  0.62261000  1
  O  O521  1  0.94690000  0.17990000  0.62261000  1
  O  O522  1  0.55930000  0.74280000  0.62113000  1
  O  O523  1  0.05930000  0.25720000  0.62113000  1
  O  O524  1  0.06730000  0.80340000  0.56120000  1
  O  O525  1  0.56730000  0.19660000  0.56120000  1
  O  O526  1  0.94440000  0.73870000  0.56080000  1
  O  O527  1  0.44440000  0.26130000  0.56080000  1
  O  O528  1  0.55560000  0.73870000  0.43920000  1
  O  O529  1  0.05560000  0.26130000  0.43920000  1
  O  O530  1  0.43270000  0.80340000  0.43880000  1
  O  O531  1  0.93270000  0.19660000  0.43880000  1
  O  O532  1  0.94070000  0.74280000  0.37887000  1
  O  O533  1  0.44070000  0.25720000  0.37887000  1
  O  O534  1  0.05310000  0.82010000  0.37739000  1
  O  O535  1  0.55310000  0.17990000  0.37739000  1
  O  O536  1  0.90610000  0.58600000  0.32640000  1
  O  O537  1  0.40610000  0.41400000  0.32640000  1
  O  O538  1  0.07090000  0.70570000  0.31630000  1
  O  O539  1  0.57090000  0.29430000  0.31630000  1
  O  O540  1  0.09930000  0.94370000  0.31484000  1
  O  O541  1  0.59930000  0.05630000  0.31484000  1
  O  O542  1  0.93200000  0.81950000  0.30373000  1
  O  O543  1  0.43200000  0.18050000  0.30373000  1
  O  O544  1  0.88720000  0.63650000  0.27601000  1
  O  O545  1  0.38720000  0.36350000  0.27601000  1
  O  O546  1  0.12090000  0.75710000  0.26892000  1
  O  O547  1  0.62090000  0.24290000  0.26892000  1
  O  O548  1  0.13960000  0.89540000  0.26470000  1
  O  O549  1  0.63960000  0.10460000  0.26470000  1
  O  O550  1  0.84110000  0.77940000  0.26240000  1
  O  O551  1  0.34110000  0.22060000  0.26240000  1
  O  O552  1  0.34110000  0.72060000  0.23760000  1
  O  O553  1  0.84110000  0.27940000  0.23760000  1
  O  O554  1  0.63960000  0.60460000  0.23530000  1
  O  O555  1  0.13960000  0.39540000  0.23530000  1
  O  O556  1  0.62090000  0.74290000  0.23108000  1
  O  O557  1  0.12090000  0.25710000  0.23108000  1
  O  O558  1  0.38720000  0.86350000  0.22399000  1
  O  O559  1  0.88720000  0.13650000  0.22399000  1
  O  O560  1  0.43200000  0.68050000  0.19627000  1
  O  O561  1  0.93200000  0.31950000  0.19627000  1
  O  O562  1  0.59930000  0.55630000  0.18516000  1
  O  O563  1  0.09930000  0.44370000  0.18516000  1
  O  O564  1  0.57090000  0.79430000  0.18370000  1
  O  O565  1  0.07090000  0.20570000  0.18370000  1
  O  O566  1  0.40610000  0.91400000  0.17360000  1
  O  O567  1  0.90610000  0.08600000  0.17360000  1
  O  O568  1  0.55310000  0.67990000  0.12261000  1
  O  O569  1  0.05310000  0.32010000  0.12261000  1
  O  O570  1  0.44070000  0.75720000  0.12113000  1
  O  O571  1  0.94070000  0.24280000  0.12113000  1
  O  O572  1  0.93270000  0.69660000  0.06120000  1
  O  O573  1  0.43270000  0.30340000  0.06120000  1
  O  O574  1  0.05560000  0.76130000  0.06080000  1
  O  O575  1  0.55560000  0.23870000  0.06080000  1
