# generated using pymatgen
data_Ni2H14C26N2O9
_symmetry_space_group_name_H-M   'P 1'
_cell_length_a   10.76470000
_cell_length_b   10.76470000
_cell_length_c   26.75780000
_cell_angle_alpha   90.00000000
_cell_angle_beta   90.00000000
_cell_angle_gamma   120.00000000
_symmetry_Int_Tables_number   1
_chemical_formula_structural   Ni2H14C26N2O9
_chemical_formula_sum   'Ni6 H42 C78 N6 O27'
_cell_volume   2685.25106227
_cell_formula_units_Z   3
loop_
 _symmetry_equiv_pos_site_id
 _symmetry_equiv_pos_as_xyz
  1  'x, y, z'
loop_
 _atom_site_type_symbol
 _atom_site_label
 _atom_site_symmetry_multiplicity
 _atom_site_fract_x
 _atom_site_fract_y
 _atom_site_fract_z
 _atom_site_occupancy
  Ni  Ni0  1  0.94892000  0.16769000  0.20001000  1
  Ni  Ni1  1  0.83231000  0.78123000  0.86668000  1
  Ni  Ni2  1  0.78123000  0.83231000  0.13332000  1
  Ni  Ni3  1  0.21877000  0.05108000  0.53335000  1
  Ni  Ni4  1  0.16769000  0.94892000  0.79999000  1
  Ni  Ni5  1  0.05108000  0.21877000  0.46665000  1
  H  H6  1  0.98500000  0.45220000  0.17110000  1
  H  H7  1  0.97720000  0.68680000  0.67243000  1
  H  H8  1  0.87290000  0.52140000  0.60973000  1
  H  H9  1  0.81700000  0.30440000  0.57633000  1
  H  H10  1  0.80080000  0.35480000  0.09567000  1
  H  H11  1  0.79420000  0.21940000  0.28840000  1
  H  H12  1  0.78060000  0.57480000  0.95507000  1
  H  H13  1  0.73940000  0.46100000  0.03267000  1
  H  H14  1  0.72160000  0.26060000  0.36600000  1
  H  H15  1  0.70960000  0.02280000  0.00577000  1
  H  H16  1  0.69560000  0.51260000  0.24300000  1
  H  H17  1  0.68680000  0.97720000  0.32757000  1
  H  H18  1  0.64850000  0.12710000  0.94307000  1
  H  H19  1  0.64520000  0.44600000  0.76233000  1
  H  H20  1  0.57480000  0.78060000  0.04493000  1
  H  H21  1  0.55400000  0.19920000  0.42900000  1
  H  H22  1  0.54780000  0.53280000  0.83777000  1
  H  H23  1  0.53900000  0.27840000  0.69933000  1
  H  H24  1  0.53280000  0.54780000  0.16223000  1
  H  H25  1  0.52140000  0.87290000  0.39027000  1
  H  H26  1  0.51260000  0.69560000  0.75700000  1
  H  H27  1  0.48740000  0.18300000  0.90967000  1
  H  H28  1  0.47860000  0.35150000  0.27640000  1
  H  H29  1  0.46720000  0.01500000  0.50443000  1
  H  H30  1  0.46100000  0.73940000  0.96733000  1
  H  H31  1  0.45220000  0.98500000  0.82890000  1
  H  H32  1  0.44600000  0.64520000  0.23767000  1
  H  H33  1  0.42520000  0.20580000  0.62173000  1
  H  H34  1  0.35480000  0.80080000  0.90433000  1
  H  H35  1  0.35150000  0.47860000  0.72360000  1
  H  H36  1  0.31320000  0.29040000  0.33910000  1
  H  H37  1  0.30440000  0.81700000  0.42367000  1
  H  H38  1  0.29040000  0.31320000  0.66090000  1
  H  H39  1  0.27840000  0.53900000  0.30067000  1
  H  H40  1  0.26060000  0.72160000  0.63400000  1
  H  H41  1  0.21940000  0.79420000  0.71160000  1
  H  H42  1  0.20580000  0.42520000  0.37827000  1
  H  H43  1  0.19920000  0.55400000  0.57100000  1
  H  H44  1  0.18300000  0.48740000  0.09033000  1
  H  H45  1  0.12710000  0.64850000  0.05693000  1
  H  H46  1  0.02280000  0.70960000  0.99423000  1
  H  H47  1  0.01500000  0.46720000  0.49557000  1
  C  C48  1  0.91880000  0.42760000  0.19691000  1
  C  C49  1  0.89807000  0.68900000  0.76635000  1
  C  C50  1  0.88980000  0.60400000  0.67825000  1
  C  C51  1  0.86920000  0.61820000  0.16397000  1
  C  C52  1  0.84690000  0.50260000  0.20140000  1
  C  C53  1  0.82710000  0.50500000  0.64052000  1
  C  C54  1  0.82560000  0.58300000  0.72470000  1
  C  C55  1  0.80600000  0.29020000  0.26581000  1
  C  C56  1  0.79093000  0.10193000  0.09969000  1
  C  C57  1  0.76860000  0.30810000  0.06515000  1
  C  C58  1  0.75740000  0.17440000  0.05804000  1
  C  C59  1  0.74900000  0.13080000  0.49730000  1
  C  C60  1  0.74790000  0.46560000  0.23977000  1
  C  C61  1  0.73210000  0.37230000  0.02722000  1
  C  C62  1  0.72680000  0.35870000  0.27333000  1
  C  C63  1  0.71770000  0.25210000  0.57310000  1
  C  C64  1  0.71420000  0.11020000  0.01159000  1
  C  C65  1  0.70980000  0.51580000  0.93248000  1
  C  C66  1  0.69500000  0.37990000  0.64801000  1
  C  C67  1  0.69190000  0.46050000  0.73181000  1
  C  C68  1  0.68900000  0.89807000  0.23365000  1
  C  C69  1  0.68490000  0.30500000  0.98135000  1
  C  C70  1  0.67790000  0.17290000  0.97386000  1
  C  C71  1  0.65570000  0.15310000  0.53473000  1
  C  C72  1  0.64130000  0.36810000  0.94000000  1
  C  C73  1  0.64020000  0.26790000  0.36055000  1
  C  C74  1  0.63190000  0.27320000  0.60666000  1
  C  C75  1  0.62770000  0.35980000  0.69388000  1
  C  C76  1  0.62010000  0.31510000  0.31468000  1
  C  C77  1  0.61820000  0.86920000  0.83603000  1
  C  C78  1  0.60400000  0.88980000  0.32175000  1
  C  C79  1  0.58300000  0.82560000  0.27530000  1
  C  C80  1  0.57240000  0.49120000  0.86358000  1
  C  C81  1  0.53950000  0.23140000  0.39848000  1
  C  C82  1  0.53440000  0.28230000  0.90644000  1
  C  C83  1  0.51580000  0.70980000  0.06752000  1
  C  C84  1  0.50880000  0.08120000  0.53024000  1
  C  C85  1  0.50500000  0.82710000  0.35948000  1
  C  C86  1  0.50260000  0.84690000  0.79860000  1
  C  C87  1  0.49740000  0.34430000  0.86807000  1
  C  C88  1  0.49500000  0.32210000  0.30719000  1
  C  C89  1  0.49120000  0.57240000  0.13642000  1
  C  C90  1  0.48420000  0.19400000  0.59914000  1
  C  C91  1  0.46560000  0.74790000  0.76023000  1
  C  C92  1  0.46050000  0.69190000  0.26819000  1
  C  C93  1  0.42760000  0.91880000  0.80309000  1
  C  C94  1  0.41700000  0.24260000  0.39137000  1
  C  C95  1  0.39600000  0.28580000  0.34492000  1
  C  C96  1  0.38180000  0.25100000  0.83064000  1
  C  C97  1  0.37990000  0.69500000  0.35199000  1
  C  C98  1  0.37230000  0.73210000  0.97278000  1
  C  C99  1  0.36810000  0.64130000  0.06000000  1
  C  C100  1  0.35980000  0.62770000  0.30612000  1
  C  C101  1  0.35870000  0.72680000  0.72667000  1
  C  C102  1  0.34430000  0.49740000  0.13193000  1
  C  C103  1  0.32210000  0.49500000  0.69281000  1
  C  C104  1  0.31510000  0.62010000  0.68532000  1
  C  C105  1  0.31100000  0.20907000  0.43302000  1
  C  C106  1  0.30810000  0.76860000  0.93485000  1
  C  C107  1  0.30500000  0.68490000  0.01865000  1
  C  C108  1  0.29020000  0.80600000  0.73419000  1
  C  C109  1  0.28580000  0.39600000  0.65508000  1
  C  C110  1  0.28230000  0.53440000  0.09356000  1
  C  C111  1  0.27320000  0.63190000  0.39334000  1
  C  C112  1  0.26790000  0.64020000  0.63945000  1
  C  C113  1  0.25210000  0.71770000  0.42690000  1
  C  C114  1  0.25100000  0.38180000  0.16936000  1
  C  C115  1  0.24260000  0.41700000  0.60863000  1
  C  C116  1  0.23140000  0.53950000  0.60152000  1
  C  C117  1  0.20907000  0.31100000  0.56698000  1
  C  C118  1  0.19400000  0.48420000  0.40086000  1
  C  C119  1  0.17440000  0.75740000  0.94196000  1
  C  C120  1  0.17290000  0.67790000  0.02614000  1
  C  C121  1  0.15310000  0.65570000  0.46527000  1
  C  C122  1  0.13080000  0.74900000  0.50270000  1
  C  C123  1  0.11020000  0.71420000  0.98841000  1
  C  C124  1  0.10193000  0.79093000  0.90031000  1
  C  C125  1  0.08120000  0.50880000  0.46976000  1
  N  N126  1  0.89842000  0.32052000  0.22781000  1
  N  N127  1  0.67948000  0.57790000  0.89448000  1
  N  N128  1  0.57790000  0.67948000  0.10552000  1
  N  N129  1  0.42210000  0.10158000  0.56114000  1
  N  N130  1  0.32052000  0.89842000  0.77219000  1
  N  N131  1  0.10158000  0.42210000  0.43886000  1
  O  O132  1  0.00000000  0.97629000  0.83333000  1
  O  O133  1  0.98326000  0.77902000  0.91044000  1
  O  O134  1  0.97629000  1.00000000  0.16667000  1
  O  O135  1  0.94730000  0.63446000  0.12747000  1
  O  O136  1  0.88012000  0.19686000  0.50670000  1
  O  O137  1  0.83424000  0.66159000  0.80787000  1
  O  O138  1  0.82735000  0.16576000  0.14121000  1
  O  O139  1  0.80314000  0.68326000  0.17337000  1
  O  O140  1  0.79576000  0.01674000  0.24378000  1
  O  O141  1  0.77902000  0.98326000  0.08956000  1
  O  O142  1  0.68716000  0.05270000  0.46080000  1
  O  O143  1  0.68326000  0.80314000  0.82663000  1
  O  O144  1  0.66159000  0.83424000  0.19213000  1
  O  O145  1  0.63446000  0.94730000  0.87253000  1
  O  O146  1  0.36554000  0.31284000  0.79414000  1
  O  O147  1  0.33841000  0.17265000  0.47454000  1
  O  O148  1  0.31674000  0.11988000  0.84004000  1
  O  O149  1  0.31284000  0.36554000  0.20586000  1
  O  O150  1  0.22098000  0.20424000  0.57711000  1
  O  O151  1  0.20424000  0.22098000  0.42289000  1
  O  O152  1  0.19686000  0.88012000  0.49330000  1
  O  O153  1  0.17265000  0.33841000  0.52546000  1
  O  O154  1  0.16576000  0.82735000  0.85879000  1
  O  O155  1  0.11988000  0.31674000  0.15996000  1
  O  O156  1  0.05270000  0.68716000  0.53920000  1
  O  O157  1  0.02371000  0.02371000  0.50000000  1
  O  O158  1  0.01674000  0.79576000  0.75622000  1
