# generated using pymatgen
data_NiH24C22(N4O3)2
_symmetry_space_group_name_H-M   'P 1'
_cell_length_a   12.56110000
_cell_length_b   12.56110000
_cell_length_c   62.47100000
_cell_angle_alpha   90.00000000
_cell_angle_beta   90.00000000
_cell_angle_gamma   120.00000000
_symmetry_Int_Tables_number   1
_chemical_formula_structural   NiH24C22(N4O3)2
_chemical_formula_sum   'Ni12 H288 C264 N96 O72'
_cell_volume   8536.19712839
_cell_formula_units_Z   12
loop_
 _symmetry_equiv_pos_site_id
 _symmetry_equiv_pos_as_xyz
  1  'x, y, z'
loop_
 _atom_site_type_symbol
 _atom_site_label
 _atom_site_symmetry_multiplicity
 _atom_site_fract_x
 _atom_site_fract_y
 _atom_site_fract_z
 _atom_site_occupancy
  Ni  Ni0  1  0.81146000  0.40573000  0.41667000  1
  Ni  Ni1  1  0.69610000  0.34805000  0.91667000  1
  Ni  Ni2  1  0.65195000  0.30390000  0.25000000  1
  Ni  Ni3  1  0.65195000  0.34805000  0.58333000  1
  Ni  Ni4  1  0.59427000  0.18854000  0.75000000  1
  Ni  Ni5  1  0.59427000  0.40573000  0.08333000  1
  Ni  Ni6  1  0.40573000  0.59427000  0.58333000  1
  Ni  Ni7  1  0.40573000  0.81146000  0.25000000  1
  Ni  Ni8  1  0.34805000  0.65195000  0.08333000  1
  Ni  Ni9  1  0.34805000  0.69610000  0.75000000  1
  Ni  Ni10  1  0.30390000  0.65195000  0.41667000  1
  Ni  Ni11  1  0.18854000  0.59427000  0.91667000  1
  H  H12  1  0.99980000  0.20750000  0.28303000  1
  H  H13  1  0.99980000  0.79230000  0.55030000  1
  H  H14  1  0.99760000  0.29740000  0.61140000  1
  H  H15  1  0.99760000  0.70020000  0.22193000  1
  H  H16  1  0.99640000  0.28990000  0.76733000  1
  H  H17  1  0.99640000  0.70650000  0.06600000  1
  H  H18  1  0.99180000  0.30900000  0.14247000  1
  H  H19  1  0.99180000  0.68280000  0.69087000  1
  H  H20  1  0.99030000  0.17290000  0.64270000  1
  H  H21  1  0.99030000  0.81740000  0.19063000  1
  H  H22  1  0.98480000  0.37750000  0.36643000  1
  H  H23  1  0.98480000  0.60730000  0.46690000  1
  H  H24  1  0.97520000  0.36010000  0.06090000  1
  H  H25  1  0.97520000  0.61510000  0.77243000  1
  H  H26  1  0.96360000  0.16320000  0.77763000  1
  H  H27  1  0.96360000  0.80040000  0.05570000  1
  H  H28  1  0.96170000  0.37380000  0.10837000  1
  H  H29  1  0.96170000  0.58790000  0.72497000  1
  H  H30  1  0.94260000  0.30440000  0.67393000  1
  H  H31  1  0.94260000  0.63820000  0.15940000  1
  H  H32  1  0.94140000  0.21110000  0.02840000  1
  H  H33  1  0.94140000  0.43950000  0.17397000  1
  H  H34  1  0.94140000  0.50190000  0.65937000  1
  H  H35  1  0.94140000  0.73030000  0.80493000  1
  H  H36  1  0.90740000  0.21440000  0.84083000  1
  H  H37  1  0.90740000  0.69300000  0.99250000  1
  H  H38  1  0.90360000  0.29040000  0.97980000  1
  H  H39  1  0.90360000  0.61320000  0.85353000  1
  H  H40  1  0.90300000  0.17890000  0.80463000  1
  H  H41  1  0.90300000  0.72410000  0.02870000  1
  H  H42  1  0.89700000  0.36070000  0.58920000  1
  H  H43  1  0.89700000  0.53630000  0.24413000  1
  H  H44  1  0.89110000  0.39430000  0.86073000  1
  H  H45  1  0.89110000  0.49680000  0.97260000  1
  H  H46  1  0.88640000  0.12660000  0.50917000  1
  H  H47  1  0.88640000  0.75980000  0.32417000  1
  H  H48  1  0.87730000  0.24640000  0.15767000  1
  H  H49  1  0.87730000  0.63090000  0.67567000  1
  H  H50  1  0.87340000  0.11360000  0.65750000  1
  H  H51  1  0.87340000  0.75980000  0.17583000  1
  H  H52  1  0.84300000  0.40890000  0.08487000  1
  H  H53  1  0.84300000  0.43410000  0.74847000  1
  H  H54  1  0.83680000  0.03640000  0.38903000  1
  H  H55  1  0.83680000  0.80040000  0.44430000  1
  H  H56  1  0.82710000  0.00970000  0.52397000  1
  H  H57  1  0.82710000  0.81740000  0.30937000  1
  H  H58  1  0.82110000  0.09700000  0.36203000  1
  H  H59  1  0.82110000  0.72410000  0.47130000  1
  H  H60  1  0.81740000  0.82710000  0.35730000  1
  H  H61  1  0.81740000  0.99030000  0.47603000  1
  H  H62  1  0.80910000  0.28130000  0.51387000  1
  H  H63  1  0.80910000  0.52780000  0.31947000  1
  H  H64  1  0.80040000  0.83680000  0.22237000  1
  H  H65  1  0.80040000  0.96360000  0.61097000  1
  H  H66  1  0.79250000  0.00020000  0.88363000  1
  H  H67  1  0.79250000  0.79230000  0.94970000  1
  H  H68  1  0.79230000  0.79250000  0.71697000  1
  H  H69  1  0.79230000  0.99980000  0.11637000  1
  H  H70  1  0.78890000  0.05860000  0.13827000  1
  H  H71  1  0.78890000  0.73030000  0.69507000  1
  H  H72  1  0.78560000  0.09260000  0.32583000  1
  H  H73  1  0.78560000  0.69300000  0.50750000  1
  H  H74  1  0.75980000  0.87340000  0.49083000  1
  H  H75  1  0.75980000  0.88640000  0.34250000  1
  H  H76  1  0.75680000  0.37310000  0.36933000  1
  H  H77  1  0.75680000  0.38370000  0.46400000  1
  H  H78  1  0.75360000  0.12270000  0.00900000  1
  H  H79  1  0.75360000  0.63090000  0.82433000  1
  H  H80  1  0.74660000  0.37210000  0.29577000  1
  H  H81  1  0.74660000  0.37450000  0.53757000  1
  H  H82  1  0.73030000  0.78890000  0.97160000  1
  H  H83  1  0.73030000  0.94140000  0.86173000  1
  H  H84  1  0.72940000  0.33790000  0.15487000  1
  H  H85  1  0.72940000  0.39150000  0.67847000  1
  H  H86  1  0.72410000  0.82110000  0.19537000  1
  H  H87  1  0.72410000  0.90300000  0.63797000  1
  H  H88  1  0.71870000  0.19090000  0.65280000  1
  H  H89  1  0.71870000  0.52780000  0.18053000  1
  H  H90  1  0.71010000  0.00360000  0.39933000  1
  H  H91  1  0.71010000  0.70650000  0.43400000  1
  H  H92  1  0.70960000  0.09640000  0.18687000  1
  H  H93  1  0.70960000  0.61320000  0.64647000  1
  H  H94  1  0.70650000  0.71010000  0.23267000  1
  H  H95  1  0.70650000  0.99640000  0.60067000  1
  H  H96  1  0.70260000  0.00240000  0.55527000  1
  H  H97  1  0.70260000  0.70020000  0.27807000  1
  H  H98  1  0.70020000  0.70260000  0.38860000  1
  H  H99  1  0.70020000  0.99760000  0.44473000  1
  H  H100  1  0.69560000  0.05740000  0.49273000  1
  H  H101  1  0.69560000  0.63820000  0.34060000  1
  H  H102  1  0.69300000  0.78560000  0.15917000  1
  H  H103  1  0.69300000  0.90740000  0.67417000  1
  H  H104  1  0.69100000  0.00820000  0.02420000  1
  H  H105  1  0.69100000  0.68280000  0.80913000  1
  H  H106  1  0.68280000  0.69100000  0.85753000  1
  H  H107  1  0.68280000  0.99180000  0.97580000  1
  H  H108  1  0.66210000  0.27060000  0.01180000  1
  H  H109  1  0.66210000  0.39150000  0.82153000  1
  H  H110  1  0.63990000  0.02480000  0.10577000  1
  H  H111  1  0.63990000  0.61510000  0.72757000  1
  H  H112  1  0.63930000  0.10300000  0.57747000  1
  H  H113  1  0.63930000  0.53630000  0.25587000  1
  H  H114  1  0.63820000  0.69560000  0.32607000  1
  H  H115  1  0.63820000  0.94260000  0.50727000  1
  H  H116  1  0.63090000  0.75360000  0.84233000  1
  H  H117  1  0.63090000  0.87730000  0.99100000  1
  H  H118  1  0.62790000  0.25340000  0.87090000  1
  H  H119  1  0.62790000  0.37450000  0.96243000  1
  H  H120  1  0.62690000  0.24320000  0.79733000  1
  H  H121  1  0.62690000  0.38370000  0.03600000  1
  H  H122  1  0.62620000  0.03830000  0.05830000  1
  H  H123  1  0.62620000  0.58790000  0.77503000  1
  H  H124  1  0.62550000  0.25340000  0.62910000  1
  H  H125  1  0.62550000  0.37210000  0.20423000  1
  H  H126  1  0.62250000  0.01520000  0.80023000  1
  H  H127  1  0.62250000  0.60730000  0.03310000  1
  H  H128  1  0.61630000  0.24320000  0.70267000  1
  H  H129  1  0.61630000  0.37310000  0.13067000  1
  H  H130  1  0.61510000  0.63990000  0.93910000  1
  H  H131  1  0.61510000  0.97520000  0.89423000  1
  H  H132  1  0.61320000  0.70960000  0.02020000  1
  H  H133  1  0.61320000  0.90360000  0.81313000  1
  H  H134  1  0.60850000  0.27060000  0.48820000  1
  H  H135  1  0.60850000  0.33790000  0.34513000  1
  H  H136  1  0.60730000  0.62250000  0.63357000  1
  H  H137  1  0.60730000  0.98480000  0.19977000  1
  H  H138  1  0.60570000  0.10890000  0.30593000  1
  H  H139  1  0.60570000  0.49680000  0.52740000  1
  H  H140  1  0.59110000  0.15700000  0.08180000  1
  H  H141  1  0.59110000  0.43410000  0.75153000  1
  H  H142  1  0.58790000  0.62620000  0.89163000  1
  H  H143  1  0.58790000  0.96170000  0.94170000  1
  H  H144  1  0.56590000  0.15700000  0.41820000  1
  H  H145  1  0.56590000  0.40890000  0.41513000  1
  H  H146  1  0.56050000  0.05860000  0.99270000  1
  H  H147  1  0.56050000  0.50190000  0.84063000  1
  H  H148  1  0.53630000  0.63930000  0.41080000  1
  H  H149  1  0.53630000  0.89700000  0.42253000  1
  H  H150  1  0.52780000  0.71870000  0.48613000  1
  H  H151  1  0.52780000  0.80910000  0.34720000  1
  H  H152  1  0.50320000  0.10890000  0.19407000  1
  H  H153  1  0.50320000  0.39430000  0.63927000  1
  H  H154  1  0.50190000  0.56050000  0.82603000  1
  H  H155  1  0.50190000  0.94140000  0.00730000  1
  H  H156  1  0.49810000  0.05860000  0.50730000  1
  H  H157  1  0.49810000  0.43950000  0.32603000  1
  H  H158  1  0.49680000  0.60570000  0.13927000  1
  H  H159  1  0.49680000  0.89110000  0.69407000  1
  H  H160  1  0.47220000  0.19090000  0.84720000  1
  H  H161  1  0.47220000  0.28130000  0.98613000  1
  H  H162  1  0.46370000  0.10300000  0.92253000  1
  H  H163  1  0.46370000  0.36070000  0.91080000  1
  H  H164  1  0.43950000  0.49810000  0.34063000  1
  H  H165  1  0.43950000  0.94140000  0.49270000  1
  H  H166  1  0.43410000  0.59110000  0.91513000  1
  H  H167  1  0.43410000  0.84300000  0.91820000  1
  H  H168  1  0.41210000  0.03830000  0.44170000  1
  H  H169  1  0.41210000  0.37380000  0.39163000  1
  H  H170  1  0.40890000  0.56590000  0.25153000  1
  H  H171  1  0.40890000  0.84300000  0.58180000  1
  H  H172  1  0.39430000  0.50320000  0.02740000  1
  H  H173  1  0.39430000  0.89110000  0.80593000  1
  H  H174  1  0.39270000  0.01520000  0.69977000  1
  H  H175  1  0.39270000  0.37750000  0.13357000  1
  H  H176  1  0.39150000  0.66210000  0.84513000  1
  H  H177  1  0.39150000  0.72940000  0.98820000  1
  H  H178  1  0.38680000  0.09640000  0.31313000  1
  H  H179  1  0.38680000  0.29040000  0.52020000  1
  H  H180  1  0.38490000  0.02480000  0.39423000  1
  H  H181  1  0.38490000  0.36010000  0.43910000  1
  H  H182  1  0.38370000  0.62690000  0.63067000  1
  H  H183  1  0.38370000  0.75680000  0.20267000  1
  H  H184  1  0.37750000  0.39270000  0.53310000  1
  H  H185  1  0.37750000  0.98480000  0.30023000  1
  H  H186  1  0.37450000  0.62790000  0.70423000  1
  H  H187  1  0.37450000  0.74660000  0.12910000  1
  H  H188  1  0.37380000  0.41210000  0.27503000  1
  H  H189  1  0.37380000  0.96170000  0.55830000  1
  H  H190  1  0.37310000  0.61630000  0.53600000  1
  H  H191  1  0.37310000  0.75680000  0.29733000  1
  H  H192  1  0.37210000  0.62550000  0.46243000  1
  H  H193  1  0.37210000  0.74660000  0.37090000  1
  H  H194  1  0.36910000  0.12270000  0.49100000  1
  H  H195  1  0.36910000  0.24640000  0.34233000  1
  H  H196  1  0.36180000  0.05740000  0.00727000  1
  H  H197  1  0.36180000  0.30440000  0.82607000  1
  H  H198  1  0.36070000  0.46370000  0.75587000  1
  H  H199  1  0.36070000  0.89700000  0.07747000  1
  H  H200  1  0.36010000  0.38490000  0.22757000  1
  H  H201  1  0.36010000  0.97520000  0.60577000  1
  H  H202  1  0.33790000  0.60850000  0.32153000  1
  H  H203  1  0.33790000  0.72940000  0.51180000  1
  H  H204  1  0.31720000  0.00820000  0.47580000  1
  H  H205  1  0.31720000  0.30900000  0.35753000  1
  H  H206  1  0.30900000  0.31720000  0.30913000  1
  H  H207  1  0.30900000  0.99180000  0.52420000  1
  H  H208  1  0.30700000  0.09260000  0.17417000  1
  H  H209  1  0.30700000  0.21440000  0.65917000  1
  H  H210  1  0.30440000  0.36180000  0.84060000  1
  H  H211  1  0.30440000  0.94260000  0.99273000  1
  H  H212  1  0.29980000  0.00240000  0.94473000  1
  H  H213  1  0.29980000  0.29740000  0.88860000  1
  H  H214  1  0.29740000  0.29980000  0.77807000  1
  H  H215  1  0.29740000  0.99760000  0.05527000  1
  H  H216  1  0.29350000  0.00360000  0.10067000  1
  H  H217  1  0.29350000  0.28990000  0.73267000  1
  H  H218  1  0.29040000  0.38680000  0.14647000  1
  H  H219  1  0.29040000  0.90360000  0.68687000  1
  H  H220  1  0.28990000  0.29350000  0.93400000  1
  H  H221  1  0.28990000  0.99640000  0.89933000  1
  H  H222  1  0.28130000  0.47220000  0.68053000  1
  H  H223  1  0.28130000  0.80910000  0.15280000  1
  H  H224  1  0.27590000  0.09700000  0.13797000  1
  H  H225  1  0.27590000  0.17890000  0.69537000  1
  H  H226  1  0.27060000  0.60850000  0.17847000  1
  H  H227  1  0.27060000  0.66210000  0.65487000  1
  H  H228  1  0.26970000  0.05860000  0.36173000  1
  H  H229  1  0.26970000  0.21110000  0.47160000  1
  H  H230  1  0.25340000  0.62550000  0.03757000  1
  H  H231  1  0.25340000  0.62790000  0.79577000  1
  H  H232  1  0.24640000  0.36910000  0.32433000  1
  H  H233  1  0.24640000  0.87730000  0.50900000  1
  H  H234  1  0.24320000  0.61630000  0.96400000  1
  H  H235  1  0.24320000  0.62690000  0.86933000  1
  H  H236  1  0.24020000  0.11360000  0.84250000  1
  H  H237  1  0.24020000  0.12660000  0.99083000  1
  H  H238  1  0.21440000  0.30700000  0.00750000  1
  H  H239  1  0.21440000  0.90740000  0.82583000  1
  H  H240  1  0.21110000  0.26970000  0.19507000  1
  H  H241  1  0.21110000  0.94140000  0.63827000  1
  H  H242  1  0.20770000  0.00020000  0.61637000  1
  H  H243  1  0.20770000  0.20750000  0.21697000  1
  H  H244  1  0.20750000  0.20770000  0.44970000  1
  H  H245  1  0.20750000  0.99980000  0.38363000  1
  H  H246  1  0.19960000  0.03640000  0.11097000  1
  H  H247  1  0.19960000  0.16320000  0.72237000  1
  H  H248  1  0.19090000  0.47220000  0.81947000  1
  H  H249  1  0.19090000  0.71870000  0.01387000  1
  H  H250  1  0.18260000  0.00970000  0.97603000  1
  H  H251  1  0.18260000  0.17290000  0.85730000  1
  H  H252  1  0.17890000  0.27590000  0.97130000  1
  H  H253  1  0.17890000  0.90300000  0.86203000  1
  H  H254  1  0.17290000  0.18260000  0.80937000  1
  H  H255  1  0.17290000  0.99030000  0.02397000  1
  H  H256  1  0.16320000  0.19960000  0.94430000  1
  H  H257  1  0.16320000  0.96360000  0.88903000  1
  H  H258  1  0.15700000  0.56590000  0.24847000  1
  H  H259  1  0.15700000  0.59110000  0.58487000  1
  H  H260  1  0.12660000  0.24020000  0.67583000  1
  H  H261  1  0.12660000  0.88640000  0.15750000  1
  H  H262  1  0.12270000  0.36910000  0.17567000  1
  H  H263  1  0.12270000  0.75360000  0.65767000  1
  H  H264  1  0.11360000  0.24020000  0.82417000  1
  H  H265  1  0.11360000  0.87340000  0.00917000  1
  H  H266  1  0.10890000  0.50320000  0.47260000  1
  H  H267  1  0.10890000  0.60570000  0.36073000  1
  H  H268  1  0.10300000  0.46370000  0.74413000  1
  H  H269  1  0.10300000  0.63930000  0.08920000  1
  H  H270  1  0.09700000  0.27590000  0.52870000  1
  H  H271  1  0.09700000  0.82110000  0.30463000  1
  H  H272  1  0.09640000  0.38680000  0.35353000  1
  H  H273  1  0.09640000  0.70960000  0.47980000  1
  H  H274  1  0.09260000  0.30700000  0.49250000  1
  H  H275  1  0.09260000  0.78560000  0.34083000  1
  H  H276  1  0.05860000  0.26970000  0.30493000  1
  H  H277  1  0.05860000  0.49810000  0.15937000  1
  H  H278  1  0.05860000  0.56050000  0.67397000  1
  H  H279  1  0.05860000  0.78890000  0.52840000  1
  H  H280  1  0.05740000  0.36180000  0.65940000  1
  H  H281  1  0.05740000  0.69560000  0.17393000  1
  H  H282  1  0.03830000  0.41210000  0.22497000  1
  H  H283  1  0.03830000  0.62620000  0.60837000  1
  H  H284  1  0.03640000  0.19960000  0.55570000  1
  H  H285  1  0.03640000  0.83680000  0.27763000  1
  H  H286  1  0.02480000  0.38490000  0.27243000  1
  H  H287  1  0.02480000  0.63990000  0.56090000  1
  H  H288  1  0.01520000  0.39270000  0.96690000  1
  H  H289  1  0.01520000  0.62250000  0.86643000  1
  H  H290  1  0.00970000  0.18260000  0.69063000  1
  H  H291  1  0.00970000  0.82710000  0.14270000  1
  H  H292  1  0.00820000  0.31720000  0.19087000  1
  H  H293  1  0.00820000  0.69100000  0.64247000  1
  H  H294  1  0.00360000  0.29350000  0.56600000  1
  H  H295  1  0.00360000  0.71010000  0.26733000  1
  H  H296  1  0.00240000  0.29980000  0.72193000  1
  H  H297  1  0.00240000  0.70260000  0.11140000  1
  H  H298  1  0.00020000  0.20770000  0.05030000  1
  H  H299  1  0.00020000  0.79250000  0.78303000  1
  C  C300  1  1.00000000  0.28800000  0.66666667  1
  C  C301  1  1.00000000  0.42330000  0.16667000  1
  C  C302  1  1.00000000  0.57670000  0.66666667  1
  C  C303  1  1.00000000  0.71200000  0.16667000  1
  C  C304  1  0.99580000  0.25690000  0.29459000  1
  C  C305  1  0.99580000  0.73890000  0.53874000  1
  C  C306  1  0.95860000  0.42800000  0.03454000  1
  C  C307  1  0.95860000  0.53060000  0.79879000  1
  C  C308  1  0.93280000  0.18890000  0.65039000  1
  C  C309  1  0.93280000  0.74390000  0.18294000  1
  C  C310  1  0.93240000  0.32210000  0.15027000  1
  C  C311  1  0.93240000  0.61030000  0.68307000  1
  C  C312  1  0.92960000  0.21360000  0.77291000  1
  C  C313  1  0.92960000  0.71600000  0.06042000  1
  C  C314  1  0.92860000  0.35910000  0.97004000  1
  C  C315  1  0.92860000  0.56950000  0.86329000  1
  C  C316  1  0.92430000  0.45150000  0.83192000  1
  C  C317  1  0.92430000  0.47280000  0.00141000  1
  C  C318  1  0.92390000  0.33810000  0.80236000  1
  C  C319  1  0.92390000  0.58580000  0.03097000  1
  C  C320  1  0.92120000  0.28620000  0.61530000  1
  C  C321  1  0.92120000  0.63500000  0.21803000  1
  C  C322  1  0.89130000  0.37280000  0.11326000  1
  C  C323  1  0.89130000  0.51850000  0.72008000  1
  C  C324  1  0.86920000  0.18620000  0.30532000  1
  C  C325  1  0.86920000  0.68300000  0.52801000  1
  C  C326  1  0.86690000  0.23040000  0.63478000  1
  C  C327  1  0.86690000  0.63650000  0.19855000  1
  C  C328  1  0.85980000  0.32390000  0.60208000  1
  C  C329  1  0.85980000  0.53590000  0.23125000  1
  C  C330  1  0.85960000  0.35040000  0.13456000  1
  C  C331  1  0.85960000  0.50920000  0.69878000  1
  C  C332  1  0.85550000  0.31390000  0.94957000  1
  C  C333  1  0.85550000  0.54160000  0.88376000  1
  C  C334  1  0.82780000  0.18200000  0.40734000  1
  C  C335  1  0.82780000  0.64580000  0.42599000  1
  C  C336  1  0.81900000  0.39390000  0.09912000  1
  C  C337  1  0.81900000  0.42510000  0.73422000  1
  C  C338  1  0.81800000  0.17220000  0.75932000  1
  C  C339  1  0.81800000  0.64580000  0.07401000  1
  C  C340  1  0.81380000  0.13080000  0.86134000  1
  C  C341  1  0.81380000  0.68300000  0.97199000  1
  C  C342  1  0.81110000  0.06720000  0.51628000  1
  C  C343  1  0.81110000  0.74390000  0.31706000  1
  C  C344  1  0.78640000  0.07040000  0.39375000  1
  C  C345  1  0.78640000  0.71600000  0.43958000  1
  C  C346  1  0.77720000  0.24400000  0.52696000  1
  C  C347  1  0.77720000  0.53320000  0.30638000  1
  C  C348  1  0.76960000  0.13310000  0.53189000  1
  C  C349  1  0.76960000  0.63650000  0.30145000  1
  C  C350  1  0.75600000  0.22280000  0.63971000  1
  C  C351  1  0.75600000  0.53320000  0.19362000  1
  C  C352  1  0.75430000  0.35160000  0.14066000  1
  C  C353  1  0.75430000  0.40270000  0.69268000  1
  C  C354  1  0.74390000  0.81110000  0.34961000  1
  C  C355  1  0.74390000  0.93280000  0.48372000  1
  C  C356  1  0.74310000  0.00420000  0.87207000  1
  C  C357  1  0.74310000  0.73890000  0.96126000  1
  C  C358  1  0.73890000  0.74310000  0.70541000  1
  C  C359  1  0.73890000  0.99580000  0.12793000  1
  C  C360  1  0.73820000  0.29890000  0.54128000  1
  C  C361  1  0.73820000  0.43930000  0.29206000  1
  C  C362  1  0.71600000  0.78640000  0.22709000  1
  C  C363  1  0.71600000  0.92960000  0.60625000  1
  C  C364  1  0.71380000  0.07880000  0.55137000  1
  C  C365  1  0.71380000  0.63500000  0.28197000  1
  C  C366  1  0.71200000  0.71200000  0.33333333  1
  C  C367  1  0.71200000  0.00000000  0.50000000  1
  C  C368  1  0.70110000  0.26180000  0.62539000  1
  C  C369  1  0.70110000  0.43930000  0.20794000  1
  C  C370  1  0.68650000  0.31360000  0.70736000  1
  C  C371  1  0.68650000  0.37290000  0.12598000  1
  C  C372  1  0.68640000  0.31350000  0.45931000  1
  C  C373  1  0.68640000  0.37290000  0.37402000  1
  C  C374  1  0.68610000  0.14450000  0.21710000  1
  C  C375  1  0.68610000  0.54160000  0.61624000  1
  C  C376  1  0.68300000  0.81380000  0.69468000  1
  C  C377  1  0.68300000  0.86920000  0.13866000  1
  C  C378  1  0.67790000  0.06760000  0.01640000  1
  C  C379  1  0.67790000  0.61030000  0.81693000  1
  C  C380  1  0.67610000  0.14020000  0.56459000  1
  C  C381  1  0.67610000  0.53590000  0.26875000  1
  C  C382  1  0.66190000  0.07610000  0.36430000  1
  C  C383  1  0.66190000  0.58580000  0.46903000  1
  C  C384  1  0.64960000  0.14040000  0.03211000  1
  C  C385  1  0.64960000  0.50920000  0.80122000  1
  C  C386  1  0.64840000  0.24570000  0.02601000  1
  C  C387  1  0.64840000  0.40270000  0.80732000  1
  C  C388  1  0.64580000  0.81800000  0.59266000  1
  C  C389  1  0.64580000  0.82780000  0.24068000  1
  C  C390  1  0.64090000  0.07140000  0.19663000  1
  C  C391  1  0.64090000  0.56950000  0.63671000  1
  C  C392  1  0.63650000  0.76960000  0.36522000  1
  C  C393  1  0.63650000  0.86690000  0.46811000  1
  C  C394  1  0.63500000  0.71380000  0.38470000  1
  C  C395  1  0.63500000  0.92120000  0.44863000  1
  C  C396  1  0.62720000  0.10870000  0.05341000  1
  C  C397  1  0.62720000  0.51850000  0.77992000  1
  C  C398  1  0.62710000  0.31350000  0.04069000  1
  C  C399  1  0.62710000  0.31360000  0.79264000  1
  C  C400  1  0.61030000  0.67790000  0.84973000  1
  C  C401  1  0.61030000  0.93240000  0.98360000  1
  C  C402  1  0.60610000  0.18100000  0.06755000  1
  C  C403  1  0.60610000  0.42510000  0.76578000  1
  C  C404  1  0.59730000  0.24570000  0.47399000  1
  C  C405  1  0.59730000  0.35160000  0.35934000  1
  C  C406  1  0.58580000  0.66190000  0.19764000  1
  C  C407  1  0.58580000  0.92390000  0.63570000  1
  C  C408  1  0.57670000  0.57670000  0.83333000  1
  C  C409  1  0.57670000  0.00000000  1.00000000  1
  C  C410  1  0.57490000  0.18100000  0.43245000  1
  C  C411  1  0.57490000  0.39390000  0.40088000  1
  C  C412  1  0.57200000  0.04140000  0.13213000  1
  C  C413  1  0.57200000  0.53060000  0.70121000  1
  C  C414  1  0.56950000  0.64090000  0.02996000  1
  C  C415  1  0.56950000  0.92860000  0.80337000  1
  C  C416  1  0.56070000  0.26180000  0.87461000  1
  C  C417  1  0.56070000  0.29890000  0.95872000  1
  C  C418  1  0.54850000  0.07570000  0.33474000  1
  C  C419  1  0.54850000  0.47280000  0.49859000  1
  C  C420  1  0.54160000  0.68610000  0.05043000  1
  C  C421  1  0.54160000  0.85550000  0.78290000  1
  C  C422  1  0.53590000  0.67610000  0.39792000  1
  C  C423  1  0.53590000  0.85980000  0.43541000  1
  C  C424  1  0.53320000  0.75600000  0.47304000  1
  C  C425  1  0.53320000  0.77720000  0.36029000  1
  C  C426  1  0.53060000  0.57200000  0.96546000  1
  C  C427  1  0.53060000  0.95860000  0.86787000  1
  C  C428  1  0.52720000  0.07570000  0.16526000  1
  C  C429  1  0.52720000  0.45150000  0.66808000  1
  C  C430  1  0.51850000  0.62720000  0.88674000  1
  C  C431  1  0.51850000  0.89130000  0.94659000  1
  C  C432  1  0.50920000  0.64960000  0.86544000  1
  C  C433  1  0.50920000  0.85960000  0.96789000  1
  C  C434  1  0.49080000  0.14040000  0.46789000  1
  C  C435  1  0.49080000  0.35040000  0.36544000  1
  C  C436  1  0.48150000  0.10870000  0.44659000  1
  C  C437  1  0.48150000  0.37280000  0.38674000  1
  C  C438  1  0.47280000  0.54850000  0.16808000  1
  C  C439  1  0.47280000  0.92430000  0.66526000  1
  C  C440  1  0.46940000  0.04140000  0.36787000  1
  C  C441  1  0.46940000  0.42800000  0.46546000  1
  C  C442  1  0.46680000  0.22280000  0.86029000  1
  C  C443  1  0.46680000  0.24400000  0.97304000  1
  C  C444  1  0.46410000  0.14020000  0.93541000  1
  C  C445  1  0.46410000  0.32390000  0.89792000  1
  C  C446  1  0.45840000  0.14450000  0.28290000  1
  C  C447  1  0.45840000  0.31390000  0.55043000  1
  C  C448  1  0.45150000  0.52720000  0.99859000  1
  C  C449  1  0.45150000  0.92430000  0.83474000  1
  C  C450  1  0.43930000  0.70110000  0.45872000  1
  C  C451  1  0.43930000  0.73820000  0.37461000  1
  C  C452  1  0.43050000  0.07140000  0.30337000  1
  C  C453  1  0.43050000  0.35910000  0.52996000  1
  C  C454  1  0.42800000  0.46940000  0.20121000  1
  C  C455  1  0.42800000  0.95860000  0.63213000  1
  C  C456  1  0.42510000  0.60610000  0.90088000  1
  C  C457  1  0.42510000  0.81900000  0.93245000  1
  C  C458  1  0.42330000  0.42330000  0.33333333  1
  C  C459  1  0.42330000  0.00000000  0.50000000  1
  C  C460  1  0.41420000  0.07610000  0.13570000  1
  C  C461  1  0.41420000  0.33810000  0.69764000  1
  C  C462  1  0.40270000  0.64840000  0.85934000  1
  C  C463  1  0.40270000  0.75430000  0.97399000  1
  C  C464  1  0.39390000  0.57490000  0.26578000  1
  C  C465  1  0.39390000  0.81900000  0.56755000  1
  C  C466  1  0.38970000  0.06760000  0.48360000  1
  C  C467  1  0.38970000  0.32210000  0.34973000  1
  C  C468  1  0.37290000  0.68640000  0.29264000  1
  C  C469  1  0.37290000  0.68650000  0.54069000  1
  C  C470  1  0.37280000  0.48150000  0.27992000  1
  C  C471  1  0.37280000  0.89130000  0.55341000  1
  C  C472  1  0.36500000  0.07880000  0.94863000  1
  C  C473  1  0.36500000  0.28620000  0.88470000  1
  C  C474  1  0.36350000  0.13310000  0.96811000  1
  C  C475  1  0.36350000  0.23040000  0.86522000  1
  C  C476  1  0.35910000  0.43050000  0.13671000  1
  C  C477  1  0.35910000  0.92860000  0.69663000  1
  C  C478  1  0.35420000  0.17220000  0.74068000  1
  C  C479  1  0.35420000  0.18200000  0.09266000  1
  C  C480  1  0.35160000  0.59730000  0.30732000  1
  C  C481  1  0.35160000  0.75430000  0.52601000  1
  C  C482  1  0.35040000  0.49080000  0.30122000  1
  C  C483  1  0.35040000  0.85960000  0.53211000  1
  C  C484  1  0.33810000  0.41420000  0.96903000  1
  C  C485  1  0.33810000  0.92390000  0.86430000  1
  C  C486  1  0.32390000  0.46410000  0.76875000  1
  C  C487  1  0.32390000  0.85980000  0.06459000  1
  C  C488  1  0.32210000  0.38970000  0.31693000  1
  C  C489  1  0.32210000  0.93240000  0.51640000  1
  C  C490  1  0.31700000  0.13080000  0.63866000  1
  C  C491  1  0.31700000  0.18620000  0.19468000  1
  C  C492  1  0.31390000  0.45840000  0.11624000  1
  C  C493  1  0.31390000  0.85550000  0.71710000  1
  C  C494  1  0.31360000  0.62710000  0.87402000  1
  C  C495  1  0.31360000  0.68650000  0.95931000  1
  C  C496  1  0.31350000  0.62710000  0.62598000  1
  C  C497  1  0.31350000  0.68640000  0.20736000  1
  C  C498  1  0.29890000  0.56070000  0.70794000  1
  C  C499  1  0.29890000  0.73820000  0.12539000  1
  C  C500  1  0.28800000  0.28800000  0.83333000  1
  C  C501  1  0.28800000  0.00000000  1.00000000  1
  C  C502  1  0.28620000  0.36500000  0.78197000  1
  C  C503  1  0.28620000  0.92120000  0.05137000  1
  C  C504  1  0.28400000  0.07040000  0.10625000  1
  C  C505  1  0.28400000  0.21360000  0.72709000  1
  C  C506  1  0.26180000  0.56070000  0.79206000  1
  C  C507  1  0.26180000  0.70110000  0.04128000  1
  C  C508  1  0.26110000  0.00420000  0.62793000  1
  C  C509  1  0.26110000  0.25690000  0.20541000  1
  C  C510  1  0.25690000  0.26110000  0.46126000  1
  C  C511  1  0.25690000  0.99580000  0.37207000  1
  C  C512  1  0.25610000  0.06720000  0.98372000  1
  C  C513  1  0.25610000  0.18890000  0.84961000  1
  C  C514  1  0.24570000  0.59730000  0.19268000  1
  C  C515  1  0.24570000  0.64840000  0.64066000  1
  C  C516  1  0.24400000  0.46680000  0.69362000  1
  C  C517  1  0.24400000  0.77720000  0.13971000  1
  C  C518  1  0.23040000  0.36350000  0.80145000  1
  C  C519  1  0.23040000  0.86690000  0.03189000  1
  C  C520  1  0.22280000  0.46680000  0.80638000  1
  C  C521  1  0.22280000  0.75600000  0.02696000  1
  C  C522  1  0.21360000  0.28400000  0.93958000  1
  C  C523  1  0.21360000  0.92960000  0.89375000  1
  C  C524  1  0.18890000  0.25610000  0.81706000  1
  C  C525  1  0.18890000  0.93280000  0.01628000  1
  C  C526  1  0.18620000  0.31700000  0.47199000  1
  C  C527  1  0.18620000  0.86920000  0.36134000  1
  C  C528  1  0.18200000  0.35420000  0.57401000  1
  C  C529  1  0.18200000  0.82780000  0.25932000  1
  C  C530  1  0.18100000  0.57490000  0.23422000  1
  C  C531  1  0.18100000  0.60610000  0.59912000  1
  C  C532  1  0.17220000  0.35420000  0.92599000  1
  C  C533  1  0.17220000  0.81800000  0.90734000  1
  C  C534  1  0.14450000  0.45840000  0.38376000  1
  C  C535  1  0.14450000  0.68610000  0.44957000  1
  C  C536  1  0.14040000  0.49080000  0.19878000  1
  C  C537  1  0.14040000  0.64960000  0.63456000  1
  C  C538  1  0.14020000  0.46410000  0.73125000  1
  C  C539  1  0.14020000  0.67610000  0.10208000  1
  C  C540  1  0.13310000  0.36350000  0.69855000  1
  C  C541  1  0.13310000  0.76960000  0.13478000  1
  C  C542  1  0.13080000  0.31700000  0.02801000  1
  C  C543  1  0.13080000  0.81380000  0.80532000  1
  C  C544  1  0.10870000  0.48150000  0.22008000  1
  C  C545  1  0.10870000  0.62720000  0.61326000  1
  C  C546  1  0.07880000  0.36500000  0.71803000  1
  C  C547  1  0.07880000  0.71380000  0.11530000  1
  C  C548  1  0.07610000  0.41420000  0.53097000  1
  C  C549  1  0.07610000  0.66190000  0.30236000  1
  C  C550  1  0.07570000  0.52720000  0.50141000  1
  C  C551  1  0.07570000  0.54850000  0.33192000  1
  C  C552  1  0.07140000  0.43050000  0.36329000  1
  C  C553  1  0.07140000  0.64090000  0.47004000  1
  C  C554  1  0.07040000  0.28400000  0.56042000  1
  C  C555  1  0.07040000  0.78640000  0.27291000  1
  C  C556  1  0.06760000  0.38970000  0.18307000  1
  C  C557  1  0.06760000  0.67790000  0.65027000  1
  C  C558  1  0.06720000  0.25610000  0.68294000  1
  C  C559  1  0.06720000  0.81110000  0.15039000  1
  C  C560  1  0.04140000  0.46940000  0.29879000  1
  C  C561  1  0.04140000  0.57200000  0.53454000  1
  C  C562  1  0.00420000  0.26110000  0.03874000  1
  C  C563  1  0.00420000  0.74310000  0.79459000  1
  N  N564  1  0.97820000  0.35320000  0.04721000  1
  N  N565  1  0.97820000  0.62500000  0.78612000  1
  N  N566  1  0.95190000  0.40300000  0.01329000  1
  N  N567  1  0.95190000  0.54890000  0.82004000  1
  N  N568  1  0.94700000  0.42960000  0.78921000  1
  N  N569  1  0.94700000  0.51740000  0.04412000  1
  N  N570  1  0.91630000  0.23540000  0.79551000  1
  N  N571  1  0.91630000  0.68090000  0.03782000  1
  N  N572  1  0.91090000  0.45270000  0.98036000  1
  N  N573  1  0.91090000  0.45820000  0.85297000  1
  N  N574  1  0.90880000  0.34340000  0.82423000  1
  N  N575  1  0.90880000  0.56540000  0.00910000  1
  N  N576  1  0.76460000  0.08370000  0.37115000  1
  N  N577  1  0.76460000  0.68090000  0.46218000  1
  N  N578  1  0.74910000  0.31140000  0.60641000  1
  N  N579  1  0.74910000  0.43770000  0.22692000  1
  N  N580  1  0.71640000  0.32260000  0.72843000  1
  N  N581  1  0.71640000  0.39380000  0.10491000  1
  N  N582  1  0.68860000  0.25090000  0.56026000  1
  N  N583  1  0.68860000  0.43770000  0.27308000  1
  N  N584  1  0.68090000  0.76460000  0.20449000  1
  N  N585  1  0.68090000  0.91630000  0.62885000  1
  N  N586  1  0.67740000  0.28360000  0.43824000  1
  N  N587  1  0.67740000  0.39380000  0.39509000  1
  N  N588  1  0.65660000  0.09120000  0.34243000  1
  N  N589  1  0.65660000  0.56540000  0.49090000  1
  N  N590  1  0.64680000  0.02180000  0.11946000  1
  N  N591  1  0.64680000  0.62500000  0.71388000  1
  N  N592  1  0.62500000  0.64680000  0.95279000  1
  N  N593  1  0.62500000  0.97820000  0.88054000  1
  N  N594  1  0.60620000  0.28360000  0.06176000  1
  N  N595  1  0.60620000  0.32260000  0.77157000  1
  N  N596  1  0.59700000  0.04810000  0.15338000  1
  N  N597  1  0.59700000  0.54890000  0.67996000  1
  N  N598  1  0.57040000  0.05300000  0.37745000  1
  N  N599  1  0.57040000  0.51740000  0.45588000  1
  N  N600  1  0.56540000  0.65660000  0.17577000  1
  N  N601  1  0.56540000  0.90880000  0.65757000  1
  N  N602  1  0.56230000  0.25090000  0.93974000  1
  N  N603  1  0.56230000  0.31140000  0.89359000  1
  N  N604  1  0.54890000  0.59700000  0.98671000  1
  N  N605  1  0.54890000  0.95190000  0.84662000  1
  N  N606  1  0.54730000  0.08910000  0.18631000  1
  N  N607  1  0.54730000  0.45820000  0.64703000  1
  N  N608  1  0.54180000  0.08910000  0.31369000  1
  N  N609  1  0.54180000  0.45270000  0.51964000  1
  N  N610  1  0.51740000  0.57040000  0.21079000  1
  N  N611  1  0.51740000  0.94700000  0.62255000  1
  N  N612  1  0.48260000  0.05300000  0.12255000  1
  N  N613  1  0.48260000  0.42960000  0.71079000  1
  N  N614  1  0.45820000  0.54730000  0.01964000  1
  N  N615  1  0.45820000  0.91090000  0.81369000  1
  N  N616  1  0.45270000  0.54180000  0.14703000  1
  N  N617  1  0.45270000  0.91090000  0.68631000  1
  N  N618  1  0.45110000  0.04810000  0.34662000  1
  N  N619  1  0.45110000  0.40300000  0.48671000  1
  N  N620  1  0.43770000  0.68860000  0.39359000  1
  N  N621  1  0.43770000  0.74910000  0.43974000  1
  N  N622  1  0.43460000  0.09120000  0.15757000  1
  N  N623  1  0.43460000  0.34340000  0.67577000  1
  N  N624  1  0.42960000  0.48260000  0.95588000  1
  N  N625  1  0.42960000  0.94700000  0.87745000  1
  N  N626  1  0.40300000  0.45110000  0.17996000  1
  N  N627  1  0.40300000  0.95190000  0.65338000  1
  N  N628  1  0.39380000  0.67740000  0.27157000  1
  N  N629  1  0.39380000  0.71640000  0.56176000  1
  N  N630  1  0.37500000  0.02180000  0.38054000  1
  N  N631  1  0.37500000  0.35320000  0.45279000  1
  N  N632  1  0.35320000  0.37500000  0.21388000  1
  N  N633  1  0.35320000  0.97820000  0.61946000  1
  N  N634  1  0.34340000  0.43460000  0.99090000  1
  N  N635  1  0.34340000  0.90880000  0.84243000  1
  N  N636  1  0.32260000  0.60620000  0.89509000  1
  N  N637  1  0.32260000  0.71640000  0.93824000  1
  N  N638  1  0.31910000  0.08370000  0.12885000  1
  N  N639  1  0.31910000  0.23540000  0.70449000  1
  N  N640  1  0.31140000  0.56230000  0.77308000  1
  N  N641  1  0.31140000  0.74910000  0.06026000  1
  N  N642  1  0.28360000  0.60620000  0.60491000  1
  N  N643  1  0.28360000  0.67740000  0.22843000  1
  N  N644  1  0.25090000  0.56230000  0.72692000  1
  N  N645  1  0.25090000  0.68860000  0.10641000  1
  N  N646  1  0.23540000  0.31910000  0.96218000  1
  N  N647  1  0.23540000  0.91630000  0.87115000  1
  N  N648  1  0.09120000  0.43460000  0.50910000  1
  N  N649  1  0.09120000  0.65660000  0.32423000  1
  N  N650  1  0.08910000  0.54180000  0.35297000  1
  N  N651  1  0.08910000  0.54730000  0.48036000  1
  N  N652  1  0.08370000  0.31910000  0.53782000  1
  N  N653  1  0.08370000  0.76460000  0.29551000  1
  N  N654  1  0.05300000  0.48260000  0.54412000  1
  N  N655  1  0.05300000  0.57040000  0.28921000  1
  N  N656  1  0.04810000  0.45110000  0.32004000  1
  N  N657  1  0.04810000  0.59700000  0.51329000  1
  N  N658  1  0.02180000  0.37500000  0.28612000  1
  N  N659  1  0.02180000  0.64680000  0.54721000  1
  O  O660  1  0.87430000  0.14280000  0.84484000  1
  O  O661  1  0.87430000  0.73150000  0.98849000  1
  O  O662  1  0.87010000  0.17970000  0.42529000  1
  O  O663  1  0.87010000  0.69040000  0.40804000  1
  O  O664  1  0.85720000  0.12570000  0.32182000  1
  O  O665  1  0.85720000  0.73150000  0.51151000  1
  O  O666  1  0.82880000  0.38560000  0.93993000  1
  O  O667  1  0.82880000  0.44320000  0.89340000  1
  O  O668  1  0.82790000  0.20760000  0.94328000  1
  O  O669  1  0.82790000  0.62030000  0.89005000  1
  O  O670  1  0.82030000  0.12990000  0.74137000  1
  O  O671  1  0.82030000  0.69040000  0.09196000  1
  O  O672  1  0.81500000  0.26700000  0.39989000  1
  O  O673  1  0.81500000  0.54800000  0.43344000  1
  O  O674  1  0.80570000  0.21690000  0.87020000  1
  O  O675  1  0.80570000  0.58880000  0.96313000  1
  O  O676  1  0.79240000  0.17210000  0.22339000  1
  O  O677  1  0.79240000  0.62030000  0.60995000  1
  O  O678  1  0.78310000  0.19430000  0.29646000  1
  O  O679  1  0.78310000  0.58880000  0.53687000  1
  O  O680  1  0.73300000  0.18500000  0.76677000  1
  O  O681  1  0.73300000  0.54800000  0.06656000  1
  O  O682  1  0.73150000  0.85720000  0.15516000  1
  O  O683  1  0.73150000  0.87430000  0.67818000  1
  O  O684  1  0.69040000  0.82030000  0.57471000  1
  O  O685  1  0.69040000  0.87010000  0.25863000  1
  O  O686  1  0.62030000  0.79240000  0.05672000  1
  O  O687  1  0.62030000  0.82790000  0.77661000  1
  O  O688  1  0.61440000  0.17120000  0.22674000  1
  O  O689  1  0.61440000  0.44320000  0.60660000  1
  O  O690  1  0.58880000  0.78310000  0.12980000  1
  O  O691  1  0.58880000  0.80570000  0.70354000  1
  O  O692  1  0.55680000  0.17120000  0.27326000  1
  O  O693  1  0.55680000  0.38560000  0.56007000  1
  O  O694  1  0.54800000  0.73300000  0.60011000  1
  O  O695  1  0.54800000  0.81500000  0.23323000  1
  O  O696  1  0.45200000  0.18500000  0.73323000  1
  O  O697  1  0.45200000  0.26700000  0.10011000  1
  O  O698  1  0.44320000  0.61440000  0.06007000  1
  O  O699  1  0.44320000  0.82880000  0.77326000  1
  O  O700  1  0.41120000  0.19430000  0.20354000  1
  O  O701  1  0.41120000  0.21690000  0.62980000  1
  O  O702  1  0.38560000  0.55680000  0.10660000  1
  O  O703  1  0.38560000  0.82880000  0.72674000  1
  O  O704  1  0.37970000  0.17210000  0.27661000  1
  O  O705  1  0.37970000  0.20760000  0.55672000  1
  O  O706  1  0.30960000  0.12990000  0.75863000  1
  O  O707  1  0.30960000  0.17970000  0.07471000  1
  O  O708  1  0.26850000  0.12570000  0.17818000  1
  O  O709  1  0.26850000  0.14280000  0.65516000  1
  O  O710  1  0.26700000  0.45200000  0.56656000  1
  O  O711  1  0.26700000  0.81500000  0.26677000  1
  O  O712  1  0.21690000  0.41120000  0.03687000  1
  O  O713  1  0.21690000  0.80570000  0.79646000  1
  O  O714  1  0.20760000  0.37970000  0.10995000  1
  O  O715  1  0.20760000  0.82790000  0.72339000  1
  O  O716  1  0.19430000  0.41120000  0.46313000  1
  O  O717  1  0.19430000  0.78310000  0.37020000  1
  O  O718  1  0.18500000  0.45200000  0.93344000  1
  O  O719  1  0.18500000  0.73300000  0.89989000  1
  O  O720  1  0.17970000  0.30960000  0.59196000  1
  O  O721  1  0.17970000  0.87010000  0.24137000  1
  O  O722  1  0.17210000  0.37970000  0.39005000  1
  O  O723  1  0.17210000  0.79240000  0.44328000  1
  O  O724  1  0.17120000  0.55680000  0.39340000  1
  O  O725  1  0.17120000  0.61440000  0.43993000  1
  O  O726  1  0.14280000  0.26850000  0.01151000  1
  O  O727  1  0.14280000  0.87430000  0.82182000  1
  O  O728  1  0.12990000  0.30960000  0.90804000  1
  O  O729  1  0.12990000  0.82030000  0.92529000  1
  O  O730  1  0.12570000  0.26850000  0.48849000  1
  O  O731  1  0.12570000  0.85720000  0.34484000  1
