# generated using pymatgen
data_CoH18C26N4O5
_symmetry_space_group_name_H-M   'P 1'
_cell_length_a   18.49050000
_cell_length_b   18.49050000
_cell_length_c   33.54088411
_cell_angle_alpha   105.99995880
_cell_angle_beta   106.00050108
_cell_angle_gamma   90.00000000
_symmetry_Int_Tables_number   1
_chemical_formula_structural   CoH18C26N4O5
_chemical_formula_sum   'Co16 H288 C416 N64 O80'
_cell_volume   10560.41459908
_cell_formula_units_Z   16
loop_
 _symmetry_equiv_pos_site_id
 _symmetry_equiv_pos_as_xyz
  1  'x, y, z'
loop_
 _atom_site_type_symbol
 _atom_site_label
 _atom_site_symmetry_multiplicity
 _atom_site_fract_x
 _atom_site_fract_y
 _atom_site_fract_z
 _atom_site_occupancy
  Co  Co0  1  0.08832000  0.07635000  0.36650000  1
  Co  Co1  1  0.79015000  0.08832000  0.86650000  1
  Co  Co2  1  0.72182000  0.20985000  0.63350000  1
  Co  Co3  1  0.70985000  0.22182000  0.13350000  1
  Co  Co4  1  0.07635000  0.27818000  0.86650000  1
  Co  Co5  1  0.58832000  0.29015000  0.36650000  1
  Co  Co6  1  0.42365000  0.41168000  0.13350000  1
  Co  Co7  1  0.22182000  0.42365000  0.63350000  1
  Co  Co8  1  0.77818000  0.57635000  0.36650000  1
  Co  Co9  1  0.57635000  0.58832000  0.86650000  1
  Co  Co10  1  0.41168000  0.70985000  0.63350000  1
  Co  Co11  1  0.92365000  0.72182000  0.13350000  1
  Co  Co12  1  0.29015000  0.77818000  0.86650000  1
  Co  Co13  1  0.27818000  0.79015000  0.36650000  1
  Co  Co14  1  0.20985000  0.91168000  0.13350000  1
  Co  Co15  1  0.91168000  0.92365000  0.63350000  1
  H  H16  1  0.24490000  0.00180000  0.38580000  1
  H  H17  1  0.52330000  0.00260000  0.57620000  1
  H  H18  1  0.19570000  0.00580000  0.23780000  1
  H  H19  1  0.32820000  0.00920000  0.45840000  1
  H  H20  1  0.24740000  0.00970000  0.82900000  1
  H  H21  1  0.02550000  0.01380000  0.19160000  1
  H  H22  1  0.84090000  0.01380000  0.47120000  1
  H  H23  1  0.50260000  0.02330000  0.07620000  1
  H  H24  1  0.18200000  0.02440000  0.60300000  1
  H  H25  1  0.67780000  0.02550000  0.69160000  1
  H  H26  1  0.83060000  0.02950000  0.70220000  1
  H  H27  1  0.89480000  0.03100000  0.28360000  1
  H  H28  1  0.60630000  0.03180000  0.91800000  1
  H  H29  1  0.56700000  0.03230000  0.24140000  1
  H  H30  1  0.00580000  0.04210000  0.73780000  1
  H  H31  1  0.36970000  0.04260000  0.52880000  1
  H  H32  1  0.86980000  0.05080000  0.54160000  1
  H  H33  1  0.00260000  0.05290000  0.07620000  1
  H  H34  1  0.53230000  0.06700000  0.74140000  1
  H  H35  1  0.05290000  0.07360000  0.57620000  1
  H  H36  1  0.41270000  0.07510000  0.69740000  1
  H  H37  1  0.91840000  0.07640000  0.19700000  1
  H  H38  1  0.42100000  0.07860000  0.60300000  1
  H  H39  1  0.42140000  0.07900000  0.89700000  1
  H  H40  1  0.81930000  0.08160000  0.32900000  1
  H  H41  1  0.37940000  0.08160000  0.30300000  1
  H  H42  1  0.42490000  0.08730000  0.80260000  1
  H  H43  1  0.24740000  0.10520000  0.21640000  1
  H  H44  1  0.53180000  0.10630000  0.41800000  1
  H  H45  1  0.74740000  0.11120000  0.21640000  1
  H  H46  1  0.89370000  0.11380000  0.08200000  1
  H  H47  1  0.63000000  0.11450000  0.80800000  1
  H  H48  1  0.65280000  0.11500000  0.38720000  1
  H  H49  1  0.85910000  0.11600000  0.61420000  1
  H  H50  1  0.41840000  0.12060000  0.19700000  1
  H  H51  1  0.28470000  0.12230000  0.69740000  1
  H  H52  1  0.15630000  0.12630000  0.46920000  1
  H  H53  1  0.97050000  0.12840000  0.79780000  1
  H  H54  1  0.61450000  0.13000000  0.30800000  1
  H  H55  1  0.00920000  0.13020000  0.95840000  1
  H  H56  1  0.45740000  0.13030000  0.97120000  1
  H  H57  1  0.00180000  0.14090000  0.88580000  1
  H  H58  1  0.61500000  0.15280000  0.88720000  1
  H  H59  1  0.84290000  0.15630000  0.96920000  1
  H  H60  1  0.68710000  0.15710000  0.53080000  1
  H  H61  1  0.04260000  0.15910000  0.02880000  1
  H  H62  1  0.68340000  0.15970000  0.46240000  1
  H  H63  1  0.01380000  0.16610000  0.69160000  1
  H  H64  1  0.82730000  0.16940000  0.79780000  1
  H  H65  1  0.49080000  0.17180000  0.04160000  1
  H  H66  1  0.87160000  0.17270000  0.70220000  1
  H  H67  1  0.20910000  0.17440000  0.74140000  1
  H  H68  1  0.52550000  0.17780000  0.19160000  1
  H  H69  1  0.11450000  0.17800000  0.30800000  1
  H  H70  1  0.25260000  0.18070000  0.17100000  1
  H  H71  1  0.07860000  0.18200000  0.10300000  1
  H  H72  1  0.65970000  0.18340000  0.96240000  1
  H  H73  1  0.65710000  0.18710000  0.03080000  1
  H  H74  1  0.11380000  0.18830000  0.58200000  1
  H  H75  1  0.17800000  0.19350000  0.80800000  1
  H  H76  1  0.73200000  0.19570000  0.73780000  1
  H  H77  1  0.22100000  0.19730000  0.53760000  1
  H  H78  1  0.06700000  0.20910000  0.24140000  1
  H  H79  1  0.37770000  0.21530000  0.80260000  1
  H  H80  1  0.84030000  0.22100000  0.03760000  1
  H  H81  1  0.87940000  0.22140000  0.30300000  1
  H  H82  1  0.26560000  0.22780000  0.61280000  1
  H  H83  1  0.69570000  0.23200000  0.23780000  1
  H  H84  1  0.27220000  0.23440000  0.88720000  1
  H  H85  1  0.88400000  0.24490000  0.88580000  1
  H  H86  1  0.31930000  0.24740000  0.32900000  1
  H  H87  1  0.61120000  0.24740000  0.71640000  1
  H  H88  1  0.49030000  0.25260000  0.67100000  1
  H  H89  1  0.39480000  0.25260000  0.28360000  1
  H  H90  1  0.49820000  0.25510000  0.11420000  1
  H  H91  1  0.88500000  0.26560000  0.11280000  1
  H  H92  1  0.95790000  0.26800000  0.76220000  1
  H  H93  1  0.15280000  0.27220000  0.38720000  1
  H  H94  1  0.07640000  0.27860000  0.69700000  1
  H  H95  1  0.30270000  0.27900000  0.96240000  1
  H  H96  1  0.07510000  0.28470000  0.19740000  1
  H  H97  1  0.32560000  0.29090000  0.75860000  1
  H  H98  1  0.18340000  0.30270000  0.46240000  1
  H  H99  1  0.49420000  0.30430000  0.26220000  1
  H  H100  1  0.87000000  0.30650000  0.19200000  1
  H  H101  1  0.03180000  0.31170000  0.41800000  1
  H  H102  1  0.12630000  0.31290000  0.96920000  1
  H  H103  1  0.19730000  0.31660000  0.03760000  1
  H  H104  1  0.47560000  0.31800000  0.89700000  1
  H  H105  1  0.58160000  0.31930000  0.82900000  1
  H  H106  1  0.30650000  0.32200000  0.69200000  1
  H  H107  1  0.83390000  0.32220000  0.80840000  1
  H  H108  1  0.96770000  0.32560000  0.25860000  1
  H  H109  1  0.66940000  0.32730000  0.29780000  1
  H  H110  1  0.94920000  0.32820000  0.95840000  1
  H  H111  1  0.52950000  0.33060000  0.20220000  1
  H  H112  1  0.82220000  0.33390000  0.30840000  1
  H  H113  1  0.72100000  0.34030000  0.53760000  1
  H  H114  1  0.51380000  0.34090000  0.97120000  1
  H  H115  1  0.65630000  0.34290000  0.46920000  1
  H  H116  1  0.37370000  0.34370000  0.03080000  1
  H  H117  1  0.22780000  0.34720000  0.11280000  1
  H  H118  1  0.61600000  0.35910000  0.11420000  1
  H  H119  1  0.98620000  0.36970000  0.02880000  1
  H  H120  1  0.55080000  0.36980000  0.04160000  1
  H  H121  1  0.80650000  0.37000000  0.69200000  1
  H  H122  1  0.67270000  0.37160000  0.20220000  1
  H  H123  1  0.18710000  0.37370000  0.53080000  1
  H  H124  1  0.08730000  0.37770000  0.30260000  1
  H  H125  1  0.72140000  0.37940000  0.80300000  1
  H  H126  1  0.74490000  0.38400000  0.38580000  1
  H  H127  1  0.76560000  0.38500000  0.61280000  1
  H  H128  1  0.32200000  0.38550000  0.19200000  1
  H  H129  1  0.31170000  0.38620000  0.91800000  1
  H  H130  1  0.03100000  0.38880000  0.78360000  1
  H  H131  1  0.61380000  0.39370000  0.58200000  1
  H  H132  1  0.53100000  0.39480000  0.78360000  1
  H  H133  1  0.12230000  0.41270000  0.19740000  1
  H  H134  1  0.57640000  0.41840000  0.69700000  1
  H  H135  1  0.99030000  0.41840000  0.67100000  1
  H  H136  1  0.02440000  0.42100000  0.10300000  1
  H  H137  1  0.31800000  0.42140000  0.39700000  1
  H  H138  1  0.22140000  0.42360000  0.80300000  1
  H  H139  1  0.21530000  0.42490000  0.30260000  1
  H  H140  1  0.97670000  0.42640000  0.42380000  1
  H  H141  1  0.29090000  0.43300000  0.25860000  1
  H  H142  1  0.42640000  0.44710000  0.92380000  1
  H  H143  1  0.82820000  0.44920000  0.45840000  1
  H  H144  1  0.34090000  0.45740000  0.47120000  1
  H  H145  1  0.76800000  0.45790000  0.26220000  1
  H  H146  1  0.82560000  0.46770000  0.75860000  1
  H  H147  1  0.18830000  0.46820000  0.08200000  1
  H  H148  1  0.11120000  0.46900000  0.71640000  1
  H  H149  1  0.62840000  0.47050000  0.29780000  1
  H  H150  1  0.48620000  0.47450000  0.30840000  1
  H  H151  1  0.07900000  0.47560000  0.39700000  1
  H  H152  1  0.92640000  0.47670000  0.92380000  1
  H  H153  1  0.33390000  0.48620000  0.80840000  1
  H  H154  1  0.86970000  0.48620000  0.52880000  1
  H  H155  1  0.91840000  0.49030000  0.17100000  1
  H  H156  1  0.36980000  0.49080000  0.54160000  1
  H  H157  1  0.45790000  0.49420000  0.76220000  1
  H  H158  1  0.44710000  0.49740000  0.42380000  1
  H  H159  1  0.35910000  0.49820000  0.61420000  1
  H  H160  1  0.64090000  0.50180000  0.38580000  1
  H  H161  1  0.55290000  0.50260000  0.57620000  1
  H  H162  1  0.54210000  0.50580000  0.23780000  1
  H  H163  1  0.63020000  0.50920000  0.45840000  1
  H  H164  1  0.08160000  0.50970000  0.82900000  1
  H  H165  1  0.13030000  0.51380000  0.47120000  1
  H  H166  1  0.66610000  0.51380000  0.19160000  1
  H  H167  1  0.07360000  0.52330000  0.07620000  1
  H  H168  1  0.92100000  0.52440000  0.60300000  1
  H  H169  1  0.51380000  0.52550000  0.69160000  1
  H  H170  1  0.37160000  0.52950000  0.70220000  1
  H  H171  1  0.88880000  0.53100000  0.28360000  1
  H  H172  1  0.81170000  0.53180000  0.91800000  1
  H  H173  1  0.17440000  0.53230000  0.24140000  1
  H  H174  1  0.23200000  0.54210000  0.73780000  1
  H  H175  1  0.65910000  0.54260000  0.52880000  1
  H  H176  1  0.17180000  0.55080000  0.54160000  1
  H  H177  1  0.57360000  0.55290000  0.07620000  1
  H  H178  1  0.70910000  0.56700000  0.74140000  1
  H  H179  1  0.02330000  0.57360000  0.57620000  1
  H  H180  1  0.78470000  0.57510000  0.69740000  1
  H  H181  1  0.77860000  0.57640000  0.19700000  1
  H  H182  1  0.68200000  0.57860000  0.60300000  1
  H  H183  1  0.97560000  0.57900000  0.89700000  1
  H  H184  1  0.00970000  0.58160000  0.32900000  1
  H  H185  1  0.42360000  0.58160000  0.30300000  1
  H  H186  1  0.87770000  0.58730000  0.80260000  1
  H  H187  1  0.46900000  0.60520000  0.21640000  1
  H  H188  1  0.38620000  0.60630000  0.41800000  1
  H  H189  1  0.96900000  0.61120000  0.21640000  1
  H  H190  1  0.68830000  0.61380000  0.08200000  1
  H  H191  1  0.67800000  0.61450000  0.80800000  1
  H  H192  1  0.23440000  0.61500000  0.38720000  1
  H  H193  1  0.25510000  0.61600000  0.61420000  1
  H  H194  1  0.27860000  0.62060000  0.19700000  1
  H  H195  1  0.91270000  0.62230000  0.69740000  1
  H  H196  1  0.81290000  0.62630000  0.46920000  1
  H  H197  1  0.32730000  0.62840000  0.79780000  1
  H  H198  1  0.19350000  0.63000000  0.30800000  1
  H  H199  1  0.44920000  0.63020000  0.95840000  1
  H  H200  1  0.01380000  0.63030000  0.97120000  1
  H  H201  1  0.38400000  0.64090000  0.88580000  1
  H  H202  1  0.77220000  0.65280000  0.88720000  1
  H  H203  1  0.62630000  0.65630000  0.96920000  1
  H  H204  1  0.34370000  0.65710000  0.53080000  1
  H  H205  1  0.48620000  0.65910000  0.02880000  1
  H  H206  1  0.27900000  0.65970000  0.46240000  1
  H  H207  1  0.17780000  0.66610000  0.69160000  1
  H  H208  1  0.47050000  0.66940000  0.79780000  1
  H  H209  1  0.05080000  0.67180000  0.04160000  1
  H  H210  1  0.33060000  0.67270000  0.70220000  1
  H  H211  1  0.03230000  0.67440000  0.74140000  1
  H  H212  1  0.16610000  0.67780000  0.19160000  1
  H  H213  1  0.69350000  0.67800000  0.30800000  1
  H  H214  1  0.41840000  0.68070000  0.17100000  1
  H  H215  1  0.52440000  0.68200000  0.10300000  1
  H  H216  1  0.80270000  0.68340000  0.96240000  1
  H  H217  1  0.87370000  0.68710000  0.03080000  1
  H  H218  1  0.96820000  0.68830000  0.58200000  1
  H  H219  1  0.13000000  0.69350000  0.80800000  1
  H  H220  1  0.50580000  0.69570000  0.73780000  1
  H  H221  1  0.81660000  0.69730000  0.53760000  1
  H  H222  1  0.67440000  0.70910000  0.24140000  1
  H  H223  1  0.92490000  0.71530000  0.80260000  1
  H  H224  1  0.69730000  0.72100000  0.03760000  1
  H  H225  1  0.92360000  0.72140000  0.30300000  1
  H  H226  1  0.84720000  0.72780000  0.61280000  1
  H  H227  1  0.04210000  0.73200000  0.23780000  1
  H  H228  1  0.11500000  0.73440000  0.88720000  1
  H  H229  1  0.50180000  0.74490000  0.88580000  1
  H  H230  1  0.60520000  0.74740000  0.71640000  1
  H  H231  1  0.50970000  0.74740000  0.32900000  1
  H  H232  1  0.38880000  0.75260000  0.28360000  1
  H  H233  1  0.68070000  0.75260000  0.67100000  1
  H  H234  1  0.11600000  0.75510000  0.11420000  1
  H  H235  1  0.72780000  0.76560000  0.11280000  1
  H  H236  1  0.30430000  0.76800000  0.76220000  1
  H  H237  1  0.73440000  0.77220000  0.38720000  1
  H  H238  1  0.12060000  0.77860000  0.69700000  1
  H  H239  1  0.15970000  0.77900000  0.96240000  1
  H  H240  1  0.62230000  0.78470000  0.19740000  1
  H  H241  1  0.93300000  0.79090000  0.75860000  1
  H  H242  1  0.77900000  0.80270000  0.46240000  1
  H  H243  1  0.26800000  0.80430000  0.26220000  1
  H  H244  1  0.82200000  0.80650000  0.19200000  1
  H  H245  1  0.88620000  0.81170000  0.41800000  1
  H  H246  1  0.34290000  0.81290000  0.96920000  1
  H  H247  1  0.34030000  0.81660000  0.03760000  1
  H  H248  1  0.92140000  0.81800000  0.89700000  1
  H  H249  1  0.74740000  0.81930000  0.82900000  1
  H  H250  1  0.88550000  0.82200000  0.69200000  1
  H  H251  1  0.47450000  0.82220000  0.80840000  1
  H  H252  1  0.79090000  0.82560000  0.25860000  1
  H  H253  1  0.12840000  0.82730000  0.29780000  1
  H  H254  1  0.50920000  0.82820000  0.95840000  1
  H  H255  1  0.17270000  0.83060000  0.20220000  1
  H  H256  1  0.98620000  0.83390000  0.30840000  1
  H  H257  1  0.31660000  0.84030000  0.53760000  1
  H  H258  1  0.95740000  0.84090000  0.97120000  1
  H  H259  1  0.31290000  0.84290000  0.46920000  1
  H  H260  1  0.15710000  0.84370000  0.03080000  1
  H  H261  1  0.38500000  0.84720000  0.11280000  1
  H  H262  1  0.99820000  0.85910000  0.11420000  1
  H  H263  1  0.54260000  0.86970000  0.02880000  1
  H  H264  1  0.99080000  0.86980000  0.04160000  1
  H  H265  1  0.38550000  0.87000000  0.69200000  1
  H  H266  1  0.02950000  0.87160000  0.20220000  1
  H  H267  1  0.84370000  0.87370000  0.53080000  1
  H  H268  1  0.71530000  0.87770000  0.30260000  1
  H  H269  1  0.58160000  0.87940000  0.80300000  1
  H  H270  1  0.14090000  0.88400000  0.38580000  1
  H  H271  1  0.34720000  0.88500000  0.61280000  1
  H  H272  1  0.37000000  0.88550000  0.19200000  1
  H  H273  1  0.10630000  0.88620000  0.91800000  1
  H  H274  1  0.25260000  0.88880000  0.78360000  1
  H  H275  1  0.46820000  0.89370000  0.58200000  1
  H  H276  1  0.75260000  0.89480000  0.78360000  1
  H  H277  1  0.57510000  0.91270000  0.19740000  1
  H  H278  1  0.62060000  0.91840000  0.69700000  1
  H  H279  1  0.18070000  0.91840000  0.67100000  1
  H  H280  1  0.57860000  0.92100000  0.10300000  1
  H  H281  1  0.57900000  0.92140000  0.39700000  1
  H  H282  1  0.08160000  0.92360000  0.80300000  1
  H  H283  1  0.58730000  0.92490000  0.30260000  1
  H  H284  1  0.94710000  0.92640000  0.42380000  1
  H  H285  1  0.46770000  0.93300000  0.25860000  1
  H  H286  1  0.99740000  0.94710000  0.92380000  1
  H  H287  1  0.13020000  0.94920000  0.45840000  1
  H  H288  1  0.63030000  0.95740000  0.47120000  1
  H  H289  1  0.99420000  0.95790000  0.26220000  1
  H  H290  1  0.43300000  0.96770000  0.75860000  1
  H  H291  1  0.39370000  0.96820000  0.08200000  1
  H  H292  1  0.10520000  0.96900000  0.71640000  1
  H  H293  1  0.16940000  0.97050000  0.29780000  1
  H  H294  1  0.32220000  0.97450000  0.30840000  1
  H  H295  1  0.81800000  0.97560000  0.39700000  1
  H  H296  1  0.49740000  0.97670000  0.92380000  1
  H  H297  1  0.15910000  0.98620000  0.52880000  1
  H  H298  1  0.97450000  0.98620000  0.80840000  1
  H  H299  1  0.75260000  0.99030000  0.17100000  1
  H  H300  1  0.67180000  0.99080000  0.54160000  1
  H  H301  1  0.80430000  0.99420000  0.76220000  1
  H  H302  1  0.47670000  0.99740000  0.42380000  1
  H  H303  1  0.75510000  0.99820000  0.61420000  1
  C  C304  1  0.14245000  0.00025000  0.71290000  1
  C  C305  1  0.32859000  0.00069000  0.14478000  1
  C  C306  1  0.36515000  0.00085000  0.33090000  1
  C  C307  1  0.28441000  0.00121000  0.81382000  1
  C  C308  1  0.42090000  0.01070000  0.10460000  1
  C  C309  1  0.78879000  0.01189000  0.40998000  1
  C  C310  1  0.90647000  0.01367000  0.87074000  1
  C  C311  1  0.45618000  0.01458000  0.39916000  1
  C  C312  1  0.24079000  0.01569000  0.68178000  1
  C  C313  1  0.16113000  0.01793000  0.29226000  1
  C  C314  1  0.60618000  0.02358000  0.22776000  1
  C  C315  1  0.60655000  0.02465000  0.63310000  1
  C  C316  1  0.02465000  0.02655000  0.13310000  1
  C  C317  1  0.81261000  0.02941000  0.31382000  1
  C  C318  1  0.23940000  0.03330000  0.41220000  1
  C  C319  1  0.99915000  0.03425000  0.16910000  1
  C  C320  1  0.98633000  0.03573000  0.62926000  1
  C  C321  1  0.80286000  0.03596000  0.45392000  1
  C  C322  1  0.17552000  0.03642000  0.25924000  1
  C  C323  1  0.39626000  0.03796000  0.13972000  1
  C  C324  1  0.28650000  0.03820000  0.45160000  1
  C  C325  1  0.73240000  0.04110000  0.38560000  1
  C  C326  1  0.48542000  0.04382000  0.10084000  1
  C  C327  1  0.38921000  0.04701000  0.79842000  1
  C  C328  1  0.98542000  0.05702000  0.10084000  1
  C  C329  1  0.33391000  0.05901000  0.81822000  1
  C  C330  1  0.39904000  0.06434000  0.32768000  1
  C  C331  1  0.71265000  0.07045000  0.21290000  1
  C  C332  1  0.93566000  0.07136000  0.17232000  1
  C  C333  1  0.15339000  0.07599000  0.73418000  1
  C  C334  1  0.48930000  0.07910000  0.39540000  1
  C  C335  1  0.65819000  0.08079000  0.23418000  1
  C  C336  1  0.34894000  0.08204000  0.54608000  1
  C  C337  1  0.03642000  0.08372000  0.75924000  1
  C  C338  1  0.83490000  0.08660000  0.54840000  1
  C  C339  1  0.76530000  0.08960000  0.47380000  1
  C  C340  1  0.24859000  0.09079000  0.70158000  1
  C  C341  1  0.64293000  0.09353000  0.62926000  1
  C  C342  1  0.92090000  0.09390000  0.10460000  1
  C  C343  1  0.69262000  0.09502000  0.40464000  1
  C  C344  1  0.43566000  0.10096000  0.17232000  1
  C  C345  1  0.89626000  0.10176000  0.13972000  1
  C  C346  1  0.37881000  0.10191000  0.59002000  1
  C  C347  1  0.19411000  0.10361000  0.45682000  1
  C  C348  1  0.46204000  0.10374000  0.36028000  1
  C  C349  1  0.52358000  0.10618000  0.72776000  1
  C  C350  1  0.52465000  0.10655000  0.13310000  1
  C  C351  1  0.02655000  0.10845000  0.63310000  1
  C  C352  1  0.45299000  0.11079000  0.70158000  1
  C  C353  1  0.05702000  0.11542000  0.60084000  1
  C  C354  1  0.29150000  0.11580000  0.52620000  1
  C  C355  1  0.70986000  0.12066000  0.44912000  1
  C  C356  1  0.82720000  0.12110000  0.58780000  1
  C  C357  1  0.39809000  0.12119000  0.90998000  1
  C  C358  1  0.20418000  0.12158000  0.72776000  1
  C  C359  1  0.13122000  0.12962000  0.29784000  1
  C  C360  1  0.01793000  0.13113000  0.79226000  1
  C  C361  1  0.66822000  0.13122000  0.79784000  1
  C  C362  1  0.49915000  0.13485000  0.16910000  1
  C  C363  1  0.21265000  0.14245000  0.21290000  1
  C  C364  1  0.59353000  0.14293000  0.12926000  1
  C  C365  1  0.82859000  0.14409000  0.14478000  1
  C  C366  1  0.73729000  0.14679000  0.54318000  1
  C  C367  1  0.41796000  0.15106000  0.95392000  1
  C  C368  1  0.34450000  0.15320000  0.88560000  1
  C  C369  1  0.15819000  0.15339000  0.23418000  1
  C  C370  1  0.34680000  0.15550000  0.61440000  1
  C  C371  1  0.58079000  0.15819000  0.73418000  1
  C  C372  1  0.77433000  0.16113000  0.79226000  1
  C  C373  1  0.03820000  0.16510000  0.95160000  1
  C  C374  1  0.44099000  0.16609000  0.68178000  1
  C  C375  1  0.12962000  0.16662000  0.79784000  1
  C  C376  1  0.63117333  0.16822000  0.29784000  1
  C  C377  1  0.03425000  0.16995000  0.66910000  1
  C  C378  1  0.49931000  0.17141000  0.35522000  1
  C  C379  1  0.26074000  0.17154000  0.55088000  1
  C  C380  1  0.03330000  0.17280000  0.91220000  1
  C  C381  1  0.72282000  0.17552000  0.75924000  1
  C  C382  1  0.09390000  0.18370000  0.60460000  1
  C  C383  1  0.99931000  0.18381000  0.35522000  1
  C  C384  1  0.21559000  0.18739000  0.18618000  1
  C  C385  1  0.28798000  0.19038000  0.59536000  1
  C  C386  1  0.59502000  0.19262000  0.90464000  1
  C  C387  1  0.85321000  0.19411000  0.95682000  1
  C  C388  1  0.08204000  0.19714000  0.04608000  1
  C  C389  1  0.10618000  0.20418000  0.22776000  1
  C  C390  1  0.38420000  0.20850000  0.97380000  1
  C  C391  1  0.62066000  0.20986000  0.94912000  1
  C  C392  1  0.10191000  0.21121000  0.09002000  1
  C  C393  1  0.30962000  0.21202000  0.90464000  1
  C  C394  1  0.57045000  0.21265000  0.71290000  1
  C  C395  1  0.46180000  0.21350000  0.04840000  1
  C  C396  1  0.49879000  0.21559000  0.68618000  1
  C  C397  1  0.67552000  0.22282000  0.25924000  1
  C  C398  1  0.86887000  0.22567000  0.70774000  1
  C  C399  1  0.54110000  0.23240000  0.88560000  1
  C  C400  1  0.11580000  0.23470000  0.02620000  1
  C  C401  1  0.07136000  0.23666000  0.67232000  1
  C  C402  1  0.64679000  0.23729000  0.04318000  1
  C  C403  1  0.32846000  0.23926000  0.94912000  1
  C  C404  1  0.87890000  0.23940000  0.91220000  1
  C  C405  1  0.16609000  0.24079000  0.18178000  1
  C  C406  1  0.10176000  0.24346000  0.63972000  1
  C  C407  1  0.11079000  0.24859000  0.20158000  1
  C  C408  1  0.40921000  0.25141000  0.79842000  1
  C  C409  1  0.96204000  0.25654000  0.36028000  1
  C  C410  1  0.48431000  0.25921000  0.81822000  1
  C  C411  1  0.46670000  0.26060000  0.08780000  1
  C  C412  1  0.87934000  0.26074000  0.05088000  1
  C  C413  1  0.10361000  0.26271000  0.95682000  1
  C  C414  1  0.89904000  0.26334000  0.32768000  1
  C  C415  1  0.58960000  0.26530000  0.97380000  1
  C  C416  1  0.15550000  0.26760000  0.11440000  1
  C  C417  1  0.66113000  0.27433000  0.29226000  1
  C  C418  1  0.91628000  0.27718000  0.74076000  1
  C  C419  1  0.31261000  0.28441000  0.31382000  1
  C  C420  1  0.91340000  0.28650000  0.95160000  1
  C  C421  1  0.35755000  0.28735000  0.28710000  1
  C  C422  1  0.90498000  0.28798000  0.09536000  1
  C  C423  1  0.51189000  0.28879000  0.90998000  1
  C  C424  1  0.17154000  0.29014000  0.05088000  1
  C  C425  1  0.91040000  0.29150000  0.02620000  1
  C  C426  1  0.37842000  0.29582000  0.77224000  1
  C  C427  1  0.53596000  0.30286000  0.95392000  1
  C  C428  1  0.39639000  0.30589000  0.04318000  1
  C  C429  1  0.19038000  0.30738000  0.09536000  1
  C  C430  1  0.19262000  0.30962000  0.40464000  1
  C  C431  1  0.52941000  0.31261000  0.81382000  1
  C  C432  1  0.14409000  0.31619000  0.64478000  1
  C  C433  1  0.98930000  0.31630000  0.39540000  1
  C  C434  1  0.46358000  0.32448000  0.24076000  1
  C  C435  1  0.62110000  0.32720000  0.08780000  1
  C  C436  1  0.20986000  0.32846000  0.44912000  1
  C  C437  1  0.64409000  0.32859000  0.64478000  1
  C  C438  1  0.86515000  0.33005000  0.33090000  1
  C  C439  1  0.83338000  0.33178000  0.70216000  1
  C  C440  1  0.83178000  0.33338000  0.20216000  1
  C  C441  1  0.25921000  0.33391000  0.31822000  1
  C  C442  1  0.58660000  0.33490000  0.04840000  1
  C  C443  1  0.48207000  0.33887000  0.20774000  1
  C  C444  1  0.34661000  0.34181000  0.26582000  1
  C  C445  1  0.23240000  0.34450000  0.38560000  1
  C  C446  1  0.42401000  0.34661000  0.76582000  1
  C  C447  1  0.95890000  0.34680000  0.11440000  1
  C  C448  1  0.96404000  0.34894000  0.04608000  1
  C  C449  1  0.69411000  0.35321000  0.45682000  1
  C  C450  1  0.18381000  0.35591000  0.85522000  1
  C  C451  1  0.96427000  0.35707000  0.87074000  1
  C  C452  1  0.49975000  0.35755000  0.78710000  1
  C  C453  1  0.83005000  0.36515000  0.83090000  1
  C  C454  1  0.37038000  0.36878000  0.20216000  1
  C  C455  1  0.72567000  0.36887000  0.20774000  1
  C  C456  1  0.33338000  0.37038000  0.70216000  1
  C  C457  1  0.97642000  0.37842000  0.27224000  1
  C  C458  1  0.98811000  0.37881000  0.09002000  1
  C  C459  1  0.73940000  0.37890000  0.41220000  1
  C  C460  1  0.76074000  0.37934000  0.55088000  1
  C  C461  1  0.26530000  0.38420000  0.47380000  1
  C  C462  1  0.95618000  0.38458000  0.39916000  1
  C  C463  1  0.25141000  0.38921000  0.29842000  1
  C  C464  1  0.89345000  0.39155000  0.36690000  1
  C  C465  1  0.89155000  0.39345000  0.86690000  1
  C  C466  1  0.29582000  0.39382000  0.27224000  1
  C  C467  1  0.60176000  0.39626000  0.63972000  1
  C  C468  1  0.23729000  0.39639000  0.54318000  1
  C  C469  1  0.28879000  0.39809000  0.40998000  1
  C  C470  1  0.25654000  0.39824000  0.86028000  1
  C  C471  1  0.76334000  0.39904000  0.82768000  1
  C  C472  1  0.78798000  0.40498000  0.59536000  1
  C  C473  1  0.31630000  0.40610000  0.89540000  1
  C  C474  1  0.51367000  0.40647000  0.37074000  1
  C  C475  1  0.04701000  0.40921000  0.29842000  1
  C  C476  1  0.79150000  0.41040000  0.52620000  1
  C  C477  1  0.78650000  0.41340000  0.45160000  1
  C  C478  1  0.77718000  0.41628000  0.24076000  1
  C  C479  1  0.30286000  0.41796000  0.45392000  1
  C  C480  1  0.92401000  0.41921000  0.76582000  1
  C  C481  1  0.59390000  0.42090000  0.60460000  1
  C  C482  1  0.91921000  0.42401000  0.26582000  1
  C  C483  1  0.26334000  0.42864000  0.82768000  1
  C  C484  1  0.99975000  0.42955000  0.78710000  1
  C  C485  1  0.57136000  0.43566000  0.67232000  1
  C  C486  1  0.01569000  0.44099000  0.18178000  1
  C  C487  1  0.38458000  0.44298000  0.89916000  1
  C  C488  1  0.09079000  0.45299000  0.20158000  1
  C  C489  1  0.88458000  0.45618000  0.89916000  1
  C  C490  1  0.84680000  0.45890000  0.61440000  1
  C  C491  1  0.33490000  0.46180000  0.54840000  1
  C  C492  1  0.75654000  0.46204000  0.86028000  1
  C  C493  1  0.41628000  0.46358000  0.74076000  1
  C  C494  1  0.84894000  0.46404000  0.54608000  1
  C  C495  1  0.85707000  0.46427000  0.37074000  1
  C  C496  1  0.33005000  0.46575000  0.83090000  1
  C  C497  1  0.32720000  0.46670000  0.58780000  1
  C  C498  1  0.99879000  0.47059000  0.68618000  1
  C  C499  1  0.39155000  0.47345000  0.86690000  1
  C  C500  1  0.47345000  0.47535000  0.36690000  1
  C  C501  1  0.87842000  0.47642000  0.77224000  1
  C  C502  1  0.36887000  0.48207000  0.70774000  1
  C  C503  1  0.05901000  0.48431000  0.31822000  1
  C  C504  1  0.55702000  0.48542000  0.60084000  1
  C  C505  1  0.53573000  0.48633000  0.12926000  1
  C  C506  1  0.87881000  0.48811000  0.59002000  1
  C  C507  1  0.81630000  0.48930000  0.89540000  1
  C  C508  1  0.97059000  0.49879000  0.18618000  1
  C  C509  1  0.53425000  0.49915000  0.66910000  1
  C  C510  1  0.68381000  0.49931000  0.85522000  1
  C  C511  1  0.92955000  0.49975000  0.28710000  1
  C  C512  1  0.07045000  0.50025000  0.71290000  1
  C  C513  1  0.31619000  0.50069000  0.14478000  1
  C  C514  1  0.46575000  0.50085000  0.33090000  1
  C  C515  1  0.02941000  0.50121000  0.81382000  1
  C  C516  1  0.18370000  0.51070000  0.10460000  1
  C  C517  1  0.12119000  0.51189000  0.40998000  1
  C  C518  1  0.46427000  0.51367000  0.87074000  1
  C  C519  1  0.44298000  0.51458000  0.39916000  1
  C  C520  1  0.94099000  0.51569000  0.68178000  1
  C  C521  1  0.63113000  0.51793000  0.29226000  1
  C  C522  1  0.12158000  0.52358000  0.22776000  1
  C  C523  1  0.52655000  0.52465000  0.63310000  1
  C  C524  1  0.60845000  0.52655000  0.13310000  1
  C  C525  1  0.00121000  0.52941000  0.31382000  1
  C  C526  1  0.67280000  0.53330000  0.41220000  1
  C  C527  1  0.66995000  0.53425000  0.16910000  1
  C  C528  1  0.14293000  0.53573000  0.62926000  1
  C  C529  1  0.15106000  0.53596000  0.45392000  1
  C  C530  1  0.58372000  0.53642000  0.25924000  1
  C  C531  1  0.24346000  0.53796000  0.13972000  1
  C  C532  1  0.66510000  0.53820000  0.45160000  1
  C  C533  1  0.15320000  0.54110000  0.38560000  1
  C  C534  1  0.11542000  0.54382000  0.10084000  1
  C  C535  1  0.90921000  0.54701000  0.79842000  1
  C  C536  1  0.61542000  0.55702000  0.10084000  1
  C  C537  1  0.98431000  0.55901000  0.81822000  1
  C  C538  1  0.42864000  0.56434000  0.32768000  1
  C  C539  1  0.00025000  0.57045000  0.21290000  1
  C  C540  1  0.73666000  0.57136000  0.17232000  1
  C  C541  1  0.08079000  0.57599000  0.73418000  1
  C  C542  1  0.40610000  0.57910000  0.39540000  1
  C  C543  1  0.07599000  0.58079000  0.23418000  1
  C  C544  1  0.69714000  0.58204000  0.54608000  1
  C  C545  1  0.22282000  0.58372000  0.75924000  1
  C  C546  1  0.21350000  0.58660000  0.54840000  1
  C  C547  1  0.20850000  0.58960000  0.47380000  1
  C  C548  1  0.95299000  0.59079000  0.70158000  1
  C  C549  1  0.48633000  0.59353000  0.62926000  1
  C  C550  1  0.68370000  0.59390000  0.10460000  1
  C  C551  1  0.21202000  0.59502000  0.40464000  1
  C  C552  1  0.23666000  0.60096000  0.17232000  1
  C  C553  1  0.74346000  0.60176000  0.13972000  1
  C  C554  1  0.71121000  0.60191000  0.59002000  1
  C  C555  1  0.76271000  0.60361000  0.45682000  1
  C  C556  1  0.39824000  0.60374000  0.36028000  1
  C  C557  1  0.70418000  0.60618000  0.72776000  1
  C  C558  1  0.10845000  0.60655000  0.13310000  1
  C  C559  1  0.10655000  0.60845000  0.63310000  1
  C  C560  1  0.74859000  0.61079000  0.70158000  1
  C  C561  1  0.04382000  0.61542000  0.60084000  1
  C  C562  1  0.73470000  0.61580000  0.52620000  1
  C  C563  1  0.23926000  0.62066000  0.44912000  1
  C  C564  1  0.26060000  0.62110000  0.58780000  1
  C  C565  1  0.01189000  0.62119000  0.90998000  1
  C  C566  1  0.02358000  0.62158000  0.72776000  1
  C  C567  1  0.66662000  0.62962000  0.29784000  1
  C  C568  1  0.27433000  0.63113000  0.79226000  1
  C  C569  1  0.62962000  0.63122000  0.79784000  1
  C  C570  1  0.16995000  0.63485000  0.16910000  1
  C  C571  1  0.50025000  0.64245000  0.21290000  1
  C  C572  1  0.03573000  0.64293000  0.12926000  1
  C  C573  1  0.81619000  0.64409000  0.14478000  1
  C  C574  1  0.30589000  0.64679000  0.54318000  1
  C  C575  1  0.03596000  0.65106000  0.95392000  1
  C  C576  1  0.04110000  0.65320000  0.88560000  1
  C  C577  1  0.57599000  0.65339000  0.23418000  1
  C  C578  1  0.76760000  0.65550000  0.61440000  1
  C  C579  1  0.65339000  0.65819000  0.73418000  1
  C  C580  1  0.51793000  0.66113000  0.79226000  1
  C  C581  1  0.41340000  0.66510000  0.95160000  1
  C  C582  1  0.74079000  0.66609000  0.68178000  1
  C  C583  1  0.16822000  0.66666667  0.79784000  1
  C  C584  1  0.16662000  0.66822000  0.29784000  1
  C  C585  1  0.13485000  0.66995000  0.66910000  1
  C  C586  1  0.35591000  0.67141000  0.35522000  1
  C  C587  1  0.79014000  0.67154000  0.55088000  1
  C  C588  1  0.37890000  0.67280000  0.91220000  1
  C  C589  1  0.53642000  0.67552000  0.75924000  1
  C  C590  1  0.01070000  0.68370000  0.60460000  1
  C  C591  1  0.85591000  0.68381000  0.35522000  1
  C  C592  1  0.47059000  0.68739000  0.18618000  1
  C  C593  1  0.80738000  0.69038000  0.59536000  1
  C  C594  1  0.80962000  0.69262000  0.90464000  1
  C  C595  1  0.60361000  0.69411000  0.95682000  1
  C  C596  1  0.46404000  0.69714000  0.04608000  1
  C  C597  1  0.62158000  0.70418000  0.22776000  1
  C  C598  1  0.08960000  0.70850000  0.97380000  1
  C  C599  1  0.82846000  0.70986000  0.94912000  1
  C  C600  1  0.48811000  0.71121000  0.09002000  1
  C  C601  1  0.09502000  0.71202000  0.90464000  1
  C  C602  1  0.64245000  0.71265000  0.71290000  1
  C  C603  1  0.08660000  0.71350000  0.04840000  1
  C  C604  1  0.68739000  0.71559000  0.68618000  1
  C  C605  1  0.08372000  0.72282000  0.25924000  1
  C  C606  1  0.33887000  0.72567000  0.70774000  1
  C  C607  1  0.84450000  0.73240000  0.88560000  1
  C  C608  1  0.41040000  0.73470000  0.02620000  1
  C  C609  1  0.10096000  0.73666000  0.67232000  1
  C  C610  1  0.89639000  0.73729000  0.04318000  1
  C  C611  1  0.12066000  0.73926000  0.94912000  1
  C  C612  1  0.53330000  0.73940000  0.91220000  1
  C  C613  1  0.51569000  0.74079000  0.18178000  1
  C  C614  1  0.03796000  0.74346000  0.63972000  1
  C  C615  1  0.59079000  0.74859000  0.20158000  1
  C  C616  1  0.88921000  0.75141000  0.79842000  1
  C  C617  1  0.89824000  0.75654000  0.36028000  1
  C  C618  1  0.83391000  0.75921000  0.81822000  1
  C  C619  1  0.12110000  0.76060000  0.08780000  1
  C  C620  1  0.67154000  0.76074000  0.05088000  1
  C  C621  1  0.35321000  0.76271000  0.95682000  1
  C  C622  1  0.92864000  0.76334000  0.32768000  1
  C  C623  1  0.88420000  0.76530000  0.97380000  1
  C  C624  1  0.45890000  0.76760000  0.11440000  1
  C  C625  1  0.13113000  0.77433000  0.29226000  1
  C  C626  1  0.32448000  0.77718000  0.74076000  1
  C  C627  1  0.50121000  0.78441000  0.31382000  1
  C  C628  1  0.53820000  0.78650000  0.95160000  1
  C  C629  1  0.42955000  0.78735000  0.28710000  1
  C  C630  1  0.69038000  0.78798000  0.09536000  1
  C  C631  1  0.89809000  0.78879000  0.90998000  1
  C  C632  1  0.37934000  0.79014000  0.05088000  1
  C  C633  1  0.61580000  0.79150000  0.02620000  1
  C  C634  1  0.89382000  0.79582000  0.77224000  1
  C  C635  1  0.91796000  0.80286000  0.95392000  1
  C  C636  1  0.14679000  0.80589000  0.04318000  1
  C  C637  1  0.40498000  0.80738000  0.09536000  1
  C  C638  1  0.71202000  0.80962000  0.40464000  1
  C  C639  1  0.78441000  0.81261000  0.81382000  1
  C  C640  1  0.00069000  0.81619000  0.64478000  1
  C  C641  1  0.90610000  0.81630000  0.39540000  1
  C  C642  1  0.27718000  0.82448000  0.24076000  1
  C  C643  1  0.96670000  0.82720000  0.08780000  1
  C  C644  1  0.73926000  0.82846000  0.44912000  1
  C  C645  1  0.50069000  0.82859000  0.64478000  1
  C  C646  1  0.96575000  0.83005000  0.33090000  1
  C  C647  1  0.36878000  0.83178000  0.70216000  1
  C  C648  1  0.87038000  0.83338000  0.20216000  1
  C  C649  1  0.55901000  0.83391000  0.31822000  1
  C  C650  1  0.96180000  0.83490000  0.04840000  1
  C  C651  1  0.22567000  0.83887000  0.20774000  1
  C  C652  1  0.41921000  0.84181000  0.26582000  1
  C  C653  1  0.65320000  0.84450000  0.38560000  1
  C  C654  1  0.84181000  0.84661000  0.76582000  1
  C  C655  1  0.65550000  0.84680000  0.11440000  1
  C  C656  1  0.58204000  0.84894000  0.04608000  1
  C  C657  1  0.26271000  0.85321000  0.45682000  1
  C  C658  1  0.17141000  0.85591000  0.85522000  1
  C  C659  1  0.40647000  0.85707000  0.87074000  1
  C  C660  1  0.78735000  0.85755000  0.78710000  1
  C  C661  1  0.50085000  0.86515000  0.83090000  1
  C  C662  1  0.33178000  0.86878000  0.20216000  1
  C  C663  1  0.98207000  0.86887000  0.20774000  1
  C  C664  1  0.86878000  0.87038000  0.70216000  1
  C  C665  1  0.79582000  0.87842000  0.27224000  1
  C  C666  1  0.60191000  0.87881000  0.09002000  1
  C  C667  1  0.17280000  0.87890000  0.41220000  1
  C  C668  1  0.29014000  0.87934000  0.55088000  1
  C  C669  1  0.70850000  0.88420000  0.47380000  1
  C  C670  1  0.94298000  0.88458000  0.39916000  1
  C  C671  1  0.54701000  0.88921000  0.29842000  1
  C  C672  1  0.97345000  0.89155000  0.36690000  1
  C  C673  1  0.47535000  0.89345000  0.86690000  1
  C  C674  1  0.47642000  0.89382000  0.27224000  1
  C  C675  1  0.53796000  0.89626000  0.63972000  1
  C  C676  1  0.80589000  0.89639000  0.54318000  1
  C  C677  1  0.62119000  0.89809000  0.40998000  1
  C  C678  1  0.10374000  0.89824000  0.86028000  1
  C  C679  1  0.56434000  0.89904000  0.82768000  1
  C  C680  1  0.30738000  0.90498000  0.59536000  1
  C  C681  1  0.07910000  0.90610000  0.89540000  1
  C  C682  1  0.35707000  0.90647000  0.37074000  1
  C  C683  1  0.75141000  0.90921000  0.29842000  1
  C  C684  1  0.23470000  0.91040000  0.52620000  1
  C  C685  1  0.16510000  0.91340000  0.45160000  1
  C  C686  1  0.96358000  0.91628000  0.24076000  1
  C  C687  1  0.65106000  0.91796000  0.45392000  1
  C  C688  1  0.34181000  0.91921000  0.76582000  1
  C  C689  1  0.51070000  0.92090000  0.60460000  1
  C  C690  1  0.84661000  0.92401000  0.26582000  1
  C  C691  1  0.06434000  0.92864000  0.82768000  1
  C  C692  1  0.28735000  0.92955000  0.78710000  1
  C  C693  1  0.60096000  0.93566000  0.67232000  1
  C  C694  1  0.66609000  0.94099000  0.18178000  1
  C  C695  1  0.01458000  0.94298000  0.89916000  1
  C  C696  1  0.61079000  0.95299000  0.20158000  1
  C  C697  1  0.51458000  0.95618000  0.89916000  1
  C  C698  1  0.26760000  0.95890000  0.61440000  1
  C  C699  1  0.71350000  0.96180000  0.54840000  1
  C  C700  1  0.60374000  0.96204000  0.86028000  1
  C  C701  1  0.82448000  0.96358000  0.74076000  1
  C  C702  1  0.19714000  0.96404000  0.54608000  1
  C  C703  1  0.01367000  0.96427000  0.37074000  1
  C  C704  1  0.00085000  0.96575000  0.83090000  1
  C  C705  1  0.76060000  0.96670000  0.58780000  1
  C  C706  1  0.18739000  0.97059000  0.68618000  1
  C  C707  1  0.97535000  0.97345000  0.86690000  1
  C  C708  1  0.39345000  0.97535000  0.36690000  1
  C  C709  1  0.39382000  0.97642000  0.77224000  1
  C  C710  1  0.83887000  0.98207000  0.70774000  1
  C  C711  1  0.75921000  0.98431000  0.31822000  1
  C  C712  1  0.54382000  0.98542000  0.60084000  1
  C  C713  1  0.09353000  0.98633000  0.12926000  1
  C  C714  1  0.21121000  0.98811000  0.59002000  1
  C  C715  1  0.57910000  0.98930000  0.89540000  1
  C  C716  1  0.71559000  0.99879000  0.18618000  1
  C  C717  1  0.63485000  0.99915000  0.66910000  1
  C  C718  1  0.67141000  0.99931000  0.85522000  1
  C  C719  1  0.85755000  0.99975000  0.28710000  1
  N  N720  1  0.13295000  0.07595000  0.31670000  1
  N  N721  1  0.18346000  0.07906000  0.41532000  1
  N  N722  1  0.26115000  0.09445000  0.48010000  1
  N  N723  1  0.10856000  0.10726000  0.76272000  1
  N  N724  1  0.15546000  0.10856000  0.26272000  1
  N  N725  1  0.78105000  0.11435000  0.51990000  1
  N  N726  1  0.74075000  0.13295000  0.81670000  1
  N  N727  1  0.65546000  0.15416000  0.26272000  1
  N  N728  1  0.65416000  0.15546000  0.76272000  1
  N  N729  1  0.76814000  0.16374000  0.58468000  1
  N  N730  1  0.83626000  0.18346000  0.91532000  1
  N  N731  1  0.07595000  0.18375000  0.81670000  1
  N  N732  1  0.09445000  0.21895000  0.98010000  1
  N  N733  1  0.07906000  0.23186000  0.91532000  1
  N  N734  1  0.40555000  0.23885000  0.01990000  1
  N  N735  1  0.63295000  0.24075000  0.31670000  1
  N  N736  1  0.81625000  0.25925000  0.68330000  1
  N  N737  1  0.88565000  0.26115000  0.98010000  1
  N  N738  1  0.66374000  0.26814000  0.08468000  1
  N  N739  1  0.61435000  0.28105000  0.01990000  1
  N  N740  1  0.75925000  0.31625000  0.18330000  1
  N  N741  1  0.42094000  0.31654000  0.08468000  1
  N  N742  1  0.68346000  0.33626000  0.41532000  1
  N  N743  1  0.39144000  0.34454000  0.23728000  1
  N  N744  1  0.89274000  0.34584000  0.73728000  1
  N  N745  1  0.42405000  0.36705000  0.18330000  1
  N  N746  1  0.76115000  0.38565000  0.48010000  1
  N  N747  1  0.39274000  0.39144000  0.73728000  1
  N  N748  1  0.84584000  0.39274000  0.23728000  1
  N  N749  1  0.28105000  0.40555000  0.51990000  1
  N  N750  1  0.26814000  0.42094000  0.58468000  1
  N  N751  1  0.31625000  0.42405000  0.68330000  1
  N  N752  1  0.68375000  0.57595000  0.31670000  1
  N  N753  1  0.73186000  0.57906000  0.41532000  1
  N  N754  1  0.71895000  0.59445000  0.48010000  1
  N  N755  1  0.15416000  0.60726000  0.76272000  1
  N  N756  1  0.60726000  0.60856000  0.26272000  1
  N  N757  1  0.23885000  0.61435000  0.51990000  1
  N  N758  1  0.57595000  0.63295000  0.81670000  1
  N  N759  1  0.10726000  0.65416000  0.26272000  1
  N  N760  1  0.60856000  0.65546000  0.76272000  1
  N  N761  1  0.31654000  0.66374000  0.58468000  1
  N  N762  1  0.57906000  0.68346000  0.91532000  1
  N  N763  1  0.24075000  0.68375000  0.81670000  1
  N  N764  1  0.38565000  0.71895000  0.98010000  1
  N  N765  1  0.33626000  0.73186000  0.91532000  1
  N  N766  1  0.11435000  0.73885000  0.01990000  1
  N  N767  1  0.18375000  0.74075000  0.31670000  1
  N  N768  1  0.36705000  0.75925000  0.68330000  1
  N  N769  1  0.59445000  0.76115000  0.98010000  1
  N  N770  1  0.92094000  0.76814000  0.08468000  1
  N  N771  1  0.90555000  0.78105000  0.01990000  1
  N  N772  1  0.92405000  0.81625000  0.18330000  1
  N  N773  1  0.16374000  0.81654000  0.08468000  1
  N  N774  1  0.23186000  0.83626000  0.41532000  1
  N  N775  1  0.34584000  0.84454000  0.23728000  1
  N  N776  1  0.34454000  0.84584000  0.73728000  1
  N  N777  1  0.25925000  0.86705000  0.18330000  1
  N  N778  1  0.21895000  0.88565000  0.48010000  1
  N  N779  1  0.84454000  0.89144000  0.73728000  1
  N  N780  1  0.89144000  0.89274000  0.23728000  1
  N  N781  1  0.73885000  0.90555000  0.51990000  1
  N  N782  1  0.81654000  0.92094000  0.58468000  1
  N  N783  1  0.86705000  0.92405000  0.68330000  1
  O  O784  1  0.87951000  0.01521000  0.90102000  1
  O  O785  1  0.70845000  0.01715000  0.34050000  1
  O  O786  1  0.01521000  0.02151000  0.40102000  1
  O  O787  1  0.30961000  0.02311000  0.17822000  1
  O  O788  1  0.95372000  0.03352000  0.65724000  1
  O  O789  1  0.87628000  0.04628000  0.84276000  1
  O  O790  1  0.70696000  0.05516000  0.88612000  1
  O  O791  1  0.62049000  0.11419000  0.09898000  1
  O  O792  1  0.61419000  0.12049000  0.59898000  1
  O  O793  1  0.70352000  0.12372000  0.65724000  1
  O  O794  1  0.97689000  0.13139000  0.32178000  1
  O  O795  1  0.32335000  0.13205000  0.84050000  1
  O  O796  1  0.80961000  0.15511000  0.17822000  1
  O  O797  1  0.79304000  0.16904000  0.11388000  1
  O  O798  1  0.36795000  0.17665000  0.65950000  1
  O  O799  1  0.05516000  0.17916000  0.38612000  1
  O  O800  1  0.47689000  0.19039000  0.32178000  1
  O  O801  1  0.62372000  0.20352000  0.15724000  1
  O  O802  1  0.55516000  0.20696000  0.38612000  1
  O  O803  1  0.51715000  0.20845000  0.84050000  1
  O  O804  1  0.17665000  0.29155000  0.15950000  1
  O  O805  1  0.66904000  0.29304000  0.61388000  1
  O  O806  1  0.96648000  0.29648000  0.84276000  1
  O  O807  1  0.65511000  0.30961000  0.67822000  1
  O  O808  1  0.16904000  0.32084000  0.61388000  1
  O  O809  1  0.20845000  0.32335000  0.34050000  1
  O  O810  1  0.17916000  0.33096000  0.88612000  1
  O  O811  1  0.13139000  0.34489000  0.82178000  1
  O  O812  1  0.98285000  0.36795000  0.15950000  1
  O  O813  1  0.15511000  0.36861000  0.67822000  1
  O  O814  1  0.54628000  0.37628000  0.34276000  1
  O  O815  1  0.51521000  0.37951000  0.40102000  1
  O  O816  1  0.02151000  0.38581000  0.90102000  1
  O  O817  1  0.32084000  0.44484000  0.11388000  1
  O  O818  1  0.53352000  0.45372000  0.15724000  1
  O  O819  1  0.79648000  0.46648000  0.34276000  1
  O  O820  1  0.63139000  0.47689000  0.82178000  1
  O  O821  1  0.11419000  0.47849000  0.59898000  1
  O  O822  1  0.86795000  0.48285000  0.65950000  1
  O  O823  1  0.47849000  0.48479000  0.09898000  1
  O  O824  1  0.52151000  0.51521000  0.90102000  1
  O  O825  1  0.13205000  0.51715000  0.34050000  1
  O  O826  1  0.88581000  0.52151000  0.40102000  1
  O  O827  1  0.36861000  0.52311000  0.17822000  1
  O  O828  1  0.20352000  0.53352000  0.65724000  1
  O  O829  1  0.46648000  0.54628000  0.84276000  1
  O  O830  1  0.67916000  0.55516000  0.88612000  1
  O  O831  1  0.97849000  0.61419000  0.09898000  1
  O  O832  1  0.48479000  0.62049000  0.59898000  1
  O  O833  1  0.45372000  0.62372000  0.65724000  1
  O  O834  1  0.84489000  0.63139000  0.32178000  1
  O  O835  1  0.01715000  0.63205000  0.84050000  1
  O  O836  1  0.86861000  0.65511000  0.17822000  1
  O  O837  1  0.82084000  0.66904000  0.11388000  1
  O  O838  1  0.79155000  0.67665000  0.65950000  1
  O  O839  1  0.83096000  0.67916000  0.38612000  1
  O  O840  1  0.34489000  0.69039000  0.32178000  1
  O  O841  1  0.03352000  0.70352000  0.15724000  1
  O  O842  1  0.33096000  0.70696000  0.38612000  1
  O  O843  1  0.82335000  0.70845000  0.84050000  1
  O  O844  1  0.48285000  0.79155000  0.15950000  1
  O  O845  1  0.44484000  0.79304000  0.61388000  1
  O  O846  1  0.37628000  0.79648000  0.84276000  1
  O  O847  1  0.52311000  0.80961000  0.67822000  1
  O  O848  1  0.94484000  0.82084000  0.61388000  1
  O  O849  1  0.63205000  0.82335000  0.34050000  1
  O  O850  1  0.20696000  0.83096000  0.88612000  1
  O  O851  1  0.19039000  0.84489000  0.82178000  1
  O  O852  1  0.67665000  0.86795000  0.15950000  1
  O  O853  1  0.02311000  0.86861000  0.67822000  1
  O  O854  1  0.29648000  0.87628000  0.34276000  1
  O  O855  1  0.38581000  0.87951000  0.40102000  1
  O  O856  1  0.37951000  0.88581000  0.90102000  1
  O  O857  1  0.29304000  0.94484000  0.11388000  1
  O  O858  1  0.12372000  0.95372000  0.15724000  1
  O  O859  1  0.04628000  0.96648000  0.34276000  1
  O  O860  1  0.69039000  0.97689000  0.82178000  1
  O  O861  1  0.98479000  0.97849000  0.59898000  1
  O  O862  1  0.29155000  0.98285000  0.65950000  1
  O  O863  1  0.12049000  0.98479000  0.09898000  1
