# generated using pymatgen
data_Zn5Co2H44C84(N6O13)2
_symmetry_space_group_name_H-M   'P 1'
_cell_length_a   16.08200000
_cell_length_b   17.07400000
_cell_length_c   27.87800000
_cell_angle_alpha   92.58600000
_cell_angle_beta   105.96900000
_cell_angle_gamma   117.00000000
_symmetry_Int_Tables_number   1
_chemical_formula_structural   Zn5Co2H44C84(N6O13)2
_chemical_formula_sum   'Zn10 Co4 H88 C168 N24 O52'
_cell_volume   6426.87241602
_cell_formula_units_Z   2
loop_
 _symmetry_equiv_pos_site_id
 _symmetry_equiv_pos_as_xyz
  1  'x, y, z'
loop_
 _atom_site_type_symbol
 _atom_site_label
 _atom_site_symmetry_multiplicity
 _atom_site_fract_x
 _atom_site_fract_y
 _atom_site_fract_z
 _atom_site_occupancy
  Zn  Zn0  1  0.28991000  0.23499000  0.80717000  1
  Zn  Zn1  1  0.35300000  0.77531000  0.24348000  1
  Zn  Zn2  1  0.41551000  0.36207000  0.73604000  1
  Zn  Zn3  1  0.42563000  0.06922000  0.68908000  1
  Zn  Zn4  1  0.47203000  0.21738000  0.79810000  1
  Zn  Zn5  1  0.52797000  0.78262000  0.20190000  1
  Zn  Zn6  1  0.57437000  0.93078000  0.31092000  1
  Zn  Zn7  1  0.58449000  0.63793000  0.26396000  1
  Zn  Zn8  1  0.64700000  0.22469000  0.75652000  1
  Zn  Zn9  1  0.71009000  0.76501000  0.19283000  1
  Co  Co10  1  0.12351000  0.66048000  0.87833000  1
  Co  Co11  1  0.25804000  0.25439000  0.38569000  1
  Co  Co12  1  0.74196000  0.74561000  0.61431000  1
  Co  Co13  1  0.87649000  0.33952000  0.12167000  1
  H  H14  1  0.01960000  0.25380000  0.32400000  1
  H  H15  1  0.03620000  0.80850000  0.81430000  1
  H  H16  1  0.03700000  0.66080000  0.15030000  1
  H  H17  1  0.04730000  0.02790000  0.31480000  1
  H  H18  1  0.05360000  0.12970000  0.51880000  1
  H  H19  1  0.05390000  0.61110000  0.00320000  1
  H  H20  1  0.07210000  0.55780000  0.27800000  1
  H  H21  1  0.07970000  0.26630000  0.49610000  1
  H  H22  1  0.08250000  0.46830000  0.08150000  1
  H  H23  1  0.10590000  0.04260000  0.48300000  1
  H  H24  1  0.10750000  0.67910000  0.23730000  1
  H  H25  1  0.11160000  0.05410000  0.68130000  1
  H  H26  1  0.11760000  0.31870000  0.18500000  1
  H  H27  1  0.11780000  0.95910000  0.81120000  1
  H  H28  1  0.13490000  0.67680000  0.08900000  1
  H  H29  1  0.13840000  0.83160000  0.67310000  1
  H  H30  1  0.16280000  0.00640000  0.30790000  1
  H  H31  1  0.18340000  0.92930000  0.97860000  1
  H  H32  1  0.18590000  0.37430000  0.30260000  1
  H  H33  1  0.22020000  0.50640000  0.27100000  1
  H  H34  1  0.22250000  0.92850000  0.27260000  1
  H  H35  1  0.25270000  0.57010000  0.11720000  1
  H  H36  1  0.25840000  0.64600000  0.78790000  1
  H  H37  1  0.26280000  0.78350000  0.79350000  1
  H  H38  1  0.27190000  0.55180000  0.91550000  1
  H  H39  1  0.28390000  0.41900000  0.21840000  1
  H  H40  1  0.29160000  0.54290000  0.75380000  1
  H  H41  1  0.30780000  0.27860000  0.22410000  1
  H  H42  1  0.31590000  0.67670000  0.98340000  1
  H  H43  1  0.32040000  0.45560000  0.88620000  1
  H  H44  1  0.34200000  0.93640000  0.78920000  1
  H  H45  1  0.35320000  0.52310000  0.44530000  1
  H  H46  1  0.35770000  0.00190000  0.99810000  1
  H  H47  1  0.37630000  0.65200000  0.41340000  1
  H  H48  1  0.39430000  0.74450000  0.06940000  1
  H  H49  1  0.40530000  0.20640000  0.49390000  1
  H  H50  1  0.40590000  0.44430000  0.50280000  1
  H  H51  1  0.41130000  0.44320000  0.58760000  1
  H  H52  1  0.41940000  0.21170000  0.57910000  1
  H  H53  1  0.42730000  0.92480000  0.96560000  1
  H  H54  1  0.44310000  0.18720000  0.39510000  1
  H  H55  1  0.44430000  0.58560000  0.65520000  1
  H  H56  1  0.47760000  0.36610000  0.25720000  1
  H  H57  1  0.49720000  0.88570000  0.64710000  1
  H  H58  1  0.50280000  0.11430000  0.35290000  1
  H  H59  1  0.52240000  0.63390000  0.74280000  1
  H  H60  1  0.55570000  0.41440000  0.34480000  1
  H  H61  1  0.55690000  0.81280000  0.60490000  1
  H  H62  1  0.57270000  0.07520000  0.03440000  1
  H  H63  1  0.58060000  0.78830000  0.42090000  1
  H  H64  1  0.58870000  0.55680000  0.41240000  1
  H  H65  1  0.59410000  0.55570000  0.49720000  1
  H  H66  1  0.59470000  0.79360000  0.50610000  1
  H  H67  1  0.60570000  0.25550000  0.93060000  1
  H  H68  1  0.62370000  0.34800000  0.58660000  1
  H  H69  1  0.64230000  0.99810000  0.00190000  1
  H  H70  1  0.64680000  0.47690000  0.55470000  1
  H  H71  1  0.65800000  0.06360000  0.21080000  1
  H  H72  1  0.67960000  0.54440000  0.11380000  1
  H  H73  1  0.68410000  0.32330000  0.01660000  1
  H  H74  1  0.69220000  0.72140000  0.77590000  1
  H  H75  1  0.70840000  0.45710000  0.24620000  1
  H  H76  1  0.71610000  0.58100000  0.78160000  1
  H  H77  1  0.72810000  0.44820000  0.08450000  1
  H  H78  1  0.73720000  0.21650000  0.20650000  1
  H  H79  1  0.74160000  0.35400000  0.21210000  1
  H  H80  1  0.74730000  0.42990000  0.88280000  1
  H  H81  1  0.77750000  0.07150000  0.72740000  1
  H  H82  1  0.77980000  0.49360000  0.72900000  1
  H  H83  1  0.81410000  0.62570000  0.69740000  1
  H  H84  1  0.81660000  0.07070000  0.02140000  1
  H  H85  1  0.83720000  0.99360000  0.69210000  1
  H  H86  1  0.86160000  0.16840000  0.32690000  1
  H  H87  1  0.86510000  0.32320000  0.91100000  1
  H  H88  1  0.88220000  0.04090000  0.18880000  1
  H  H89  1  0.88240000  0.68130000  0.81500000  1
  H  H90  1  0.88840000  0.94590000  0.31870000  1
  H  H91  1  0.89250000  0.32090000  0.76270000  1
  H  H92  1  0.89410000  0.95740000  0.51700000  1
  H  H93  1  0.91750000  0.53170000  0.91850000  1
  H  H94  1  0.92030000  0.73370000  0.50390000  1
  H  H95  1  0.92790000  0.44220000  0.72200000  1
  H  H96  1  0.94610000  0.38890000  0.99680000  1
  H  H97  1  0.94640000  0.87030000  0.48120000  1
  H  H98  1  0.95270000  0.97210000  0.68520000  1
  H  H99  1  0.96300000  0.33920000  0.84970000  1
  H  H100  1  0.96380000  0.19150000  0.18570000  1
  H  H101  1  0.98040000  0.74620000  0.67600000  1
  C  C102  1  0.00680000  0.80880000  0.67700000  1
  C  C103  1  0.01010000  0.05690000  0.31770000  1
  C  C104  1  0.01330000  0.53640000  0.78890000  1
  C  C105  1  0.02600000  0.61050000  0.16620000  1
  C  C106  1  0.03060000  0.47660000  0.86160000  1
  C  C107  1  0.04620000  0.54920000  0.24200000  1
  C  C108  1  0.04650000  0.62360000  0.77260000  1
  C  C109  1  0.04930000  0.75750000  0.91950000  1
  C  C110  1  0.04950000  0.14840000  0.31940000  1
  C  C111  1  0.06500000  0.62010000  0.21750000  1
  C  C112  1  0.08120000  0.50490000  0.91930000  1
  C  C113  1  0.08410000  0.99130000  0.67990000  1
  C  C114  1  0.08450000  0.38350000  0.13020000  1
  C  C115  1  0.08750000  0.15080000  0.49510000  1
  C  C116  1  0.09920000  0.83440000  0.80990000  1
  C  C117  1  0.09950000  0.85940000  0.67490000  1
  C  C118  1  0.10260000  0.23120000  0.48220000  1
  C  C119  1  0.11950000  0.09980000  0.47500000  1
  C  C120  1  0.12300000  0.45810000  0.10960000  1
  C  C121  1  0.12390000  0.63730000  0.01670000  1
  C  C122  1  0.13860000  0.95100000  0.67540000  1
  C  C123  1  0.14320000  0.78350000  0.80520000  1
  C  C124  1  0.14490000  0.37040000  0.17090000  1
  C  C125  1  0.14790000  0.92330000  0.80810000  1
  C  C126  1  0.15320000  0.25930000  0.44780000  1
  C  C127  1  0.15780000  0.81340000  0.93530000  1
  C  C128  1  0.17120000  0.13340000  0.44340000  1
  C  C129  1  0.17210000  0.67880000  0.06740000  1
  C  C130  1  0.17550000  0.63330000  0.98570000  1
  C  C131  1  0.17790000  0.21010000  0.28110000  1
  C  C132  1  0.17860000  0.34510000  0.42880000  1
  C  C133  1  0.21430000  0.90090000  0.96610000  1
  C  C134  1  0.21690000  0.09140000  0.41800000  1
  C  C135  1  0.22390000  0.43070000  0.32550000  1
  C  C136  1  0.22450000  0.51890000  0.13160000  1
  C  C137  1  0.23180000  0.02610000  0.31910000  1
  C  C138  1  0.23350000  0.81970000  0.79740000  1
  C  C139  1  0.23770000  0.96190000  0.80200000  1
  C  C140  1  0.24290000  0.43030000  0.19110000  1
  C  C141  1  0.24340000  0.00440000  0.67600000  1
  C  C142  1  0.24490000  0.50920000  0.30650000  1
  C  C143  1  0.25750000  0.43370000  0.37690000  1
  C  C144  1  0.26780000  0.98260000  0.29680000  1
  C  C145  1  0.27110000  0.61580000  0.85670000  1
  C  C146  1  0.27200000  0.60760000  0.80850000  1
  C  C147  1  0.27530000  0.72360000  0.08710000  1
  C  C148  1  0.27850000  0.67620000  0.00460000  1
  C  C149  1  0.28050000  0.91030000  0.79530000  1
  C  C150  1  0.28180000  0.55360000  0.88350000  1
  C  C151  1  0.28360000  0.50790000  0.17230000  1
  C  C152  1  0.28460000  0.26600000  0.29200000  1
  C  C153  1  0.28930000  0.06010000  0.80090000  1
  C  C154  1  0.29170000  0.54600000  0.78800000  1
  C  C155  1  0.29700000  0.81480000  0.92570000  1
  C  C156  1  0.29770000  0.10180000  0.35970000  1
  C  C157  1  0.30260000  0.59220000  0.34020000  1
  C  C158  1  0.30670000  0.49360000  0.86530000  1
  C  C159  1  0.31160000  0.48880000  0.81590000  1
  C  C160  1  0.31670000  0.94360000  0.97740000  1
  C  C161  1  0.32220000  0.51910000  0.41030000  1
  C  C162  1  0.32430000  0.71810000  0.05570000  1
  C  C163  1  0.32520000  0.67670000  0.32020000  1
  C  C164  1  0.32820000  0.75800000  0.90400000  1
  C  C165  1  0.32840000  0.76250000  0.14040000  1
  C  C166  1  0.33700000  0.42340000  0.79640000  1
  C  C167  1  0.33860000  0.59530000  0.39080000  1
  C  C168  1  0.33980000  0.29530000  0.25990000  1
  C  C169  1  0.35760000  0.89810000  0.95740000  1
  C  C170  1  0.36760000  0.01350000  0.30790000  1
  C  C171  1  0.38970000  0.57750000  0.19570000  1
  C  C172  1  0.39760000  0.13420000  0.37010000  1
  C  C173  1  0.40240000  0.95620000  0.28640000  1
  C  C174  1  0.40610000  0.32650000  0.48950000  1
  C  C175  1  0.40730000  0.39590000  0.51780000  1
  C  C176  1  0.40820000  0.25580000  0.51290000  1
  C  C177  1  0.41080000  0.39540000  0.56850000  1
  C  C178  1  0.41330000  0.32630000  0.59040000  1
  C  C179  1  0.41430000  0.25800000  0.56310000  1
  C  C180  1  0.42030000  0.32670000  0.64570000  1
  C  C181  1  0.43070000  0.34550000  0.36320000  1
  C  C182  1  0.43350000  0.09100000  0.34490000  1
  C  C183  1  0.43980000  0.34810000  0.27950000  1
  C  C184  1  0.46730000  0.36070000  0.41990000  1
  C  C185  1  0.48630000  0.37540000  0.33110000  1
  C  C186  1  0.51370000  0.62460000  0.66890000  1
  C  C187  1  0.53270000  0.63930000  0.58010000  1
  C  C188  1  0.56020000  0.65190000  0.72050000  1
  C  C189  1  0.56650000  0.90900000  0.65510000  1
  C  C190  1  0.56930000  0.65450000  0.63680000  1
  C  C191  1  0.57970000  0.67330000  0.35430000  1
  C  C192  1  0.58570000  0.74200000  0.43690000  1
  C  C193  1  0.58670000  0.67370000  0.40960000  1
  C  C194  1  0.58920000  0.60460000  0.43150000  1
  C  C195  1  0.59180000  0.74420000  0.48710000  1
  C  C196  1  0.59270000  0.60410000  0.48220000  1
  C  C197  1  0.59390000  0.67350000  0.51050000  1
  C  C198  1  0.59760000  0.04380000  0.71360000  1
  C  C199  1  0.60240000  0.86580000  0.62990000  1
  C  C200  1  0.61030000  0.42250000  0.80430000  1
  C  C201  1  0.63240000  0.98650000  0.69210000  1
  C  C202  1  0.64240000  0.10190000  0.04260000  1
  C  C203  1  0.66020000  0.70470000  0.74010000  1
  C  C204  1  0.66140000  0.40470000  0.60920000  1
  C  C205  1  0.66300000  0.57660000  0.20360000  1
  C  C206  1  0.67160000  0.23750000  0.85960000  1
  C  C207  1  0.67180000  0.24200000  0.09600000  1
  C  C208  1  0.67480000  0.32330000  0.67980000  1
  C  C209  1  0.67570000  0.28190000  0.94430000  1
  C  C210  1  0.67780000  0.48090000  0.58970000  1
  C  C211  1  0.68330000  0.05640000  0.02260000  1
  C  C212  1  0.68840000  0.51120000  0.18410000  1
  C  C213  1  0.69330000  0.50640000  0.13470000  1
  C  C214  1  0.69740000  0.40780000  0.65980000  1
  C  C215  1  0.70230000  0.89820000  0.64030000  1
  C  C216  1  0.70300000  0.18520000  0.07430000  1
  C  C217  1  0.70830000  0.45400000  0.21200000  1
  C  C218  1  0.71070000  0.93990000  0.19910000  1
  C  C219  1  0.71540000  0.73400000  0.70800000  1
  C  C220  1  0.71640000  0.49210000  0.82770000  1
  C  C221  1  0.71820000  0.44640000  0.11650000  1
  C  C222  1  0.71950000  0.08970000  0.20470000  1
  C  C223  1  0.72150000  0.32380000  0.99540000  1
  C  C224  1  0.72470000  0.27640000  0.91290000  1
  C  C225  1  0.72800000  0.39240000  0.19150000  1
  C  C226  1  0.72890000  0.38420000  0.14330000  1
  C  C227  1  0.73220000  0.01740000  0.70320000  1
  C  C228  1  0.74250000  0.56630000  0.62310000  1
  C  C229  1  0.75510000  0.49080000  0.69350000  1
  C  C230  1  0.75660000  0.99560000  0.32400000  1
  C  C231  1  0.75710000  0.56970000  0.80890000  1
  C  C232  1  0.76230000  0.03810000  0.19800000  1
  C  C233  1  0.76650000  0.18030000  0.20260000  1
  C  C234  1  0.76820000  0.97390000  0.68090000  1
  C  C235  1  0.77550000  0.48110000  0.86840000  1
  C  C236  1  0.77610000  0.56930000  0.67450000  1
  C  C237  1  0.78310000  0.90860000  0.58200000  1
  C  C238  1  0.78570000  0.09910000  0.03390000  1
  C  C239  1  0.82140000  0.65490000  0.57120000  1
  C  C240  1  0.82210000  0.78990000  0.71890000  1
  C  C241  1  0.82450000  0.36670000  0.01430000  1
  C  C242  1  0.82790000  0.32120000  0.93260000  1
  C  C243  1  0.82880000  0.86660000  0.55660000  1
  C  C244  1  0.84220000  0.18660000  0.06470000  1
  C  C245  1  0.84680000  0.74070000  0.55220000  1
  C  C246  1  0.85210000  0.07670000  0.19190000  1
  C  C247  1  0.85510000  0.62960000  0.82910000  1
  C  C248  1  0.85680000  0.21650000  0.19480000  1
  C  C249  1  0.86140000  0.04900000  0.32460000  1
  C  C250  1  0.87610000  0.36270000  0.98330000  1
  C  C251  1  0.87700000  0.54190000  0.89040000  1
  C  C252  1  0.88050000  0.90020000  0.52500000  1
  C  C253  1  0.89740000  0.76880000  0.51780000  1
  C  C254  1  0.90050000  0.14060000  0.32510000  1
  C  C255  1  0.90080000  0.16560000  0.19010000  1
  C  C256  1  0.91250000  0.84920000  0.50490000  1
  C  C257  1  0.91550000  0.61650000  0.86980000  1
  C  C258  1  0.91590000  0.00870000  0.32010000  1
  C  C259  1  0.91880000  0.49510000  0.08070000  1
  C  C260  1  0.93500000  0.37990000  0.78250000  1
  C  C261  1  0.95050000  0.85160000  0.68060000  1
  C  C262  1  0.95070000  0.24250000  0.08050000  1
  C  C263  1  0.95350000  0.37640000  0.22740000  1
  C  C264  1  0.95380000  0.45080000  0.75800000  1
  C  C265  1  0.96940000  0.52340000  0.13840000  1
  C  C266  1  0.97400000  0.38950000  0.83380000  1
  C  C267  1  0.98670000  0.46360000  0.21110000  1
  C  C268  1  0.98990000  0.94310000  0.68230000  1
  C  C269  1  0.99320000  0.19120000  0.32300000  1
  N  N270  1  0.01770000  0.67850000  0.89090000  1
  N  N271  1  0.04690000  0.54530000  0.83850000  1
  N  N272  1  0.09840000  0.69160000  0.81160000  1
  N  N273  1  0.12510000  0.59230000  0.93200000  1
  N  N274  1  0.15100000  0.20110000  0.32200000  1
  N  N275  1  0.18510000  0.21000000  0.42980000  1
  N  N276  1  0.20150000  0.77520000  0.91760000  1
  N  N277  1  0.22930000  0.35380000  0.39710000  1
  N  N278  1  0.25170000  0.67830000  0.87840000  1
  N  N279  1  0.26060000  0.14090000  0.38820000  1
  N  N280  1  0.33300000  0.29420000  0.34330000  1
  N  N281  1  0.39040000  0.32020000  0.43760000  1
  N  N282  1  0.60960000  0.67980000  0.56240000  1
  N  N283  1  0.66700000  0.70580000  0.65670000  1
  N  N284  1  0.73940000  0.85910000  0.61180000  1
  N  N285  1  0.74830000  0.32170000  0.12160000  1
  N  N286  1  0.77070000  0.64620000  0.60290000  1
  N  N287  1  0.79850000  0.22480000  0.08240000  1
  N  N288  1  0.81490000  0.79000000  0.57020000  1
  N  N289  1  0.84900000  0.79890000  0.67800000  1
  N  N290  1  0.87490000  0.40770000  0.06800000  1
  N  N291  1  0.90160000  0.30840000  0.18840000  1
  N  N292  1  0.95310000  0.45470000  0.16150000  1
  N  N293  1  0.98230000  0.32150000  0.10910000  1
  O  O294  1  0.00690000  0.21770000  0.06930000  1
  O  O295  1  0.02690000  0.62900000  0.72650000  1
  O  O296  1  0.07540000  0.44710000  0.94610000  1
  O  O297  1  0.12000000  0.17530000  0.23510000  1
  O  O298  1  0.14970000  0.39790000  0.44120000  1
  O  O299  1  0.21100000  0.01790000  0.42710000  1
  O  O300  1  0.24610000  0.10310000  0.80550000  1
  O  O301  1  0.27670000  0.08650000  0.67540000  1
  O  O302  1  0.27810000  0.74440000  0.17110000  1
  O  O303  1  0.29350000  0.96720000  0.67670000  1
  O  O304  1  0.29960000  0.66820000  0.27230000  1
  O  O305  1  0.33750000  0.87630000  0.26580000  1
  O  O306  1  0.34770000  0.42650000  0.75310000  1
  O  O307  1  0.35120000  0.37240000  0.82380000  1
  O  O308  1  0.36150000  0.24490000  0.75500000  1
  O  O309  1  0.36850000  0.74880000  0.35020000  1
  O  O310  1  0.37600000  0.09260000  0.79620000  1
  O  O311  1  0.38930000  0.37200000  0.66420000  1
  O  O312  1  0.41430000  0.65360000  0.18620000  1
  O  O313  1  0.41610000  0.78250000  0.90860000  1
  O  O314  1  0.42100000  0.81020000  0.15640000  1
  O  O315  1  0.44570000  0.59960000  0.55410000  1
  O  O316  1  0.44660000  0.55250000  0.22380000  1
  O  O317  1  0.45640000  0.28590000  0.66960000  1
  O  O318  1  0.49490000  0.99300000  0.29260000  1
  O  O319  1  0.49700000  0.81340000  0.26740000  1
  O  O320  1  0.50300000  0.18660000  0.73260000  1
  O  O321  1  0.50510000  0.00700000  0.70740000  1
  O  O322  1  0.54360000  0.71410000  0.33040000  1
  O  O323  1  0.55340000  0.44750000  0.77620000  1
  O  O324  1  0.55430000  0.40040000  0.44590000  1
  O  O325  1  0.57900000  0.18980000  0.84360000  1
  O  O326  1  0.58390000  0.21750000  0.09140000  1
  O  O327  1  0.58570000  0.34640000  0.81380000  1
  O  O328  1  0.61070000  0.62800000  0.33580000  1
  O  O329  1  0.62400000  0.90740000  0.20380000  1
  O  O330  1  0.63150000  0.25120000  0.64980000  1
  O  O331  1  0.63850000  0.75510000  0.24500000  1
  O  O332  1  0.64880000  0.62760000  0.17620000  1
  O  O333  1  0.65230000  0.57350000  0.24690000  1
  O  O334  1  0.66250000  0.12370000  0.73420000  1
  O  O335  1  0.70040000  0.33180000  0.72770000  1
  O  O336  1  0.70650000  0.03280000  0.32330000  1
  O  O337  1  0.72190000  0.25560000  0.82890000  1
  O  O338  1  0.72330000  0.91350000  0.32460000  1
  O  O339  1  0.75390000  0.89690000  0.19450000  1
  O  O340  1  0.78900000  0.98210000  0.57290000  1
  O  O341  1  0.85030000  0.60210000  0.55880000  1
  O  O342  1  0.88000000  0.82470000  0.76490000  1
  O  O343  1  0.92460000  0.55290000  0.05390000  1
  O  O344  1  0.97310000  0.37100000  0.27350000  1
  O  O345  1  0.99310000  0.78230000  0.93070000  1
