# generated using pymatgen
data_Zn3H8C14(NO)8
_symmetry_space_group_name_H-M   'P 1'
_cell_length_a   7.97700000
_cell_length_b   9.28210000
_cell_length_c   15.85190000
_cell_angle_alpha   85.38680000
_cell_angle_beta   79.21200000
_cell_angle_gamma   64.55160000
_symmetry_Int_Tables_number   1
_chemical_formula_structural   Zn3H8C14(NO)8
_chemical_formula_sum   'Zn6 H16 C28 N16 O16'
_cell_volume   1041.11234300
_cell_formula_units_Z   2
loop_
 _symmetry_equiv_pos_site_id
 _symmetry_equiv_pos_as_xyz
  1  'x, y, z'
loop_
 _atom_site_type_symbol
 _atom_site_label
 _atom_site_symmetry_multiplicity
 _atom_site_fract_x
 _atom_site_fract_y
 _atom_site_fract_z
 _atom_site_occupancy
  Zn  Zn0  1  0.06447000  0.87106000  0.75000000  1
  Zn  Zn1  1  0.25056000  0.35124000  0.50431000  1
  Zn  Zn2  1  0.39820000  0.35124000  0.99569000  1
  Zn  Zn3  1  0.60180000  0.64876000  0.00431000  1
  Zn  Zn4  1  0.74944000  0.64876000  0.49569000  1
  Zn  Zn5  1  0.93553000  0.12894000  0.25000000  1
  H  H6  1  0.03900000  0.79120000  0.09450000  1
  H  H7  1  0.15950000  0.55920000  0.85800000  1
  H  H8  1  0.16980000  0.79120000  0.40550000  1
  H  H9  1  0.28130000  0.55920000  0.64200000  1
  H  H10  1  0.31690000  0.04500000  0.30060000  1
  H  H11  1  0.36190000  0.95500000  0.80060000  1
  H  H12  1  0.39400000  0.09640000  0.36520000  1
  H  H13  1  0.49040000  0.90360000  0.86520000  1
  H  H14  1  0.50960000  0.09640000  0.13480000  1
  H  H15  1  0.60600000  0.90360000  0.63480000  1
  H  H16  1  0.63810000  0.04500000  0.19940000  1
  H  H17  1  0.68310000  0.95500000  0.69940000  1
  H  H18  1  0.71870000  0.44080000  0.35800000  1
  H  H19  1  0.83020000  0.20880000  0.59450000  1
  H  H20  1  0.84050000  0.44080000  0.14200000  1
  H  H21  1  0.96100000  0.20880000  0.90550000  1
  C  C22  1  0.02370000  0.87560000  0.05620000  1
  C  C23  1  0.08860000  0.03680000  0.55810000  1
  C  C24  1  0.10070000  0.87560000  0.44380000  1
  C  C25  1  0.10160000  0.09080000  0.00120000  1
  C  C26  1  0.12540000  0.96320000  0.05810000  1
  C  C27  1  0.13090000  0.23380000  0.36330000  1
  C  C28  1  0.15840000  0.60720000  0.63120000  1
  C  C29  1  0.16870000  0.08460000  0.62420000  1
  C  C30  1  0.19240000  0.90920000  0.50120000  1
  C  C31  1  0.20920000  0.19000000  0.99860000  1
  C  C32  1  0.23440000  0.60720000  0.86880000  1
  C  C33  1  0.25330000  0.91540000  0.12420000  1
  C  C34  1  0.36470000  0.76620000  0.86330000  1
  C  C35  1  0.39920000  0.81000000  0.49860000  1
  C  C36  1  0.60080000  0.19000000  0.50140000  1
  C  C37  1  0.63530000  0.23380000  0.13670000  1
  C  C38  1  0.74670000  0.08460000  0.87580000  1
  C  C39  1  0.76560000  0.39280000  0.13120000  1
  C  C40  1  0.79080000  0.81000000  0.00140000  1
  C  C41  1  0.80760000  0.09080000  0.49880000  1
  C  C42  1  0.83130000  0.91540000  0.37580000  1
  C  C43  1  0.84160000  0.39280000  0.36880000  1
  C  C44  1  0.86910000  0.76620000  0.63670000  1
  C  C45  1  0.87460000  0.03680000  0.94190000  1
  C  C46  1  0.89840000  0.90920000  0.99880000  1
  C  C47  1  0.89930000  0.12440000  0.55620000  1
  C  C48  1  0.91140000  0.96320000  0.44190000  1
  C  C49  1  0.97630000  0.12440000  0.94380000  1
  N  N50  1  0.02280000  0.73840000  0.67230000  1
  N  N51  1  0.09040000  0.34180000  0.42370000  1
  N  N52  1  0.09800000  0.55460000  0.57410000  1
  N  N53  1  0.23880000  0.73840000  0.82770000  1
  N  N54  1  0.30140000  0.11000000  0.34020000  1
  N  N55  1  0.34740000  0.55460000  0.92590000  1
  N  N56  1  0.41140000  0.89000000  0.84020000  1
  N  N57  1  0.43220000  0.65820000  0.92370000  1
  N  N58  1  0.56780000  0.34180000  0.07630000  1
  N  N59  1  0.58860000  0.11000000  0.15980000  1
  N  N60  1  0.65260000  0.44540000  0.07410000  1
  N  N61  1  0.69860000  0.89000000  0.65980000  1
  N  N62  1  0.76120000  0.26160000  0.17230000  1
  N  N63  1  0.90200000  0.44540000  0.42590000  1
  N  N64  1  0.90960000  0.65820000  0.57630000  1
  N  N65  1  0.97720000  0.26160000  0.32770000  1
  O  O66  1  0.17470000  0.01640000  0.69670000  1
  O  O67  1  0.17970000  0.30560000  0.94820000  1
  O  O68  1  0.19110000  0.98360000  0.19670000  1
  O  O69  1  0.21000000  0.20140000  0.60920000  1
  O  O70  1  0.32830000  0.15580000  0.04720000  1
  O  O71  1  0.41140000  0.79860000  0.10920000  1
  O  O72  1  0.48410000  0.84420000  0.54720000  1
  O  O73  1  0.48530000  0.69440000  0.44820000  1
  O  O74  1  0.51470000  0.30560000  0.55180000  1
  O  O75  1  0.51590000  0.15580000  0.45280000  1
  O  O76  1  0.58860000  0.20140000  0.89080000  1
  O  O77  1  0.67170000  0.84420000  0.95280000  1
  O  O78  1  0.79000000  0.79860000  0.39080000  1
  O  O79  1  0.80890000  0.01640000  0.80330000  1
  O  O80  1  0.82030000  0.69440000  0.05180000  1
  O  O81  1  0.82530000  0.98360000  0.30330000  1
