# generated using pymatgen
data_Cd3H22(C7O2)6
_symmetry_space_group_name_H-M   'P 1'
_cell_length_a   7.14220000
_cell_length_b   21.21100000
_cell_length_c   22.18100000
_cell_angle_alpha   62.41200000
_cell_angle_beta   81.39200000
_cell_angle_gamma   89.53800000
_symmetry_Int_Tables_number   1
_chemical_formula_structural   Cd3H22(C7O2)6
_chemical_formula_sum   'Cd6 H44 C84 O24'
_cell_volume   2937.45987086
_cell_formula_units_Z   2
loop_
 _symmetry_equiv_pos_site_id
 _symmetry_equiv_pos_as_xyz
  1  'x, y, z'
loop_
 _atom_site_type_symbol
 _atom_site_label
 _atom_site_symmetry_multiplicity
 _atom_site_fract_x
 _atom_site_fract_y
 _atom_site_fract_z
 _atom_site_occupancy
  Cd  Cd0  1  0.16505000  0.69050000  0.56925000  1
  Cd  Cd1  1  0.25874000  0.90729000  0.01583000  1
  Cd  Cd2  1  0.33641000  0.25340000  0.43035000  1
  Cd  Cd3  1  0.66359000  0.74660000  0.56965000  1
  Cd  Cd4  1  0.74126000  0.09271000  0.98417000  1
  Cd  Cd5  1  0.83495000  0.30950000  0.43075000  1
  H  H6  1  0.00100000  0.19450000  0.28430000  1
  H  H7  1  0.00150000  0.32700000  0.80500000  1
  H  H8  1  0.01250000  0.46080000  0.41210000  1
  H  H9  1  0.02730000  0.01910000  0.55220000  1
  H  H10  1  0.08560000  0.65960000  0.41340000  1
  H  H11  1  0.10640000  0.09110000  0.08890000  1
  H  H12  1  0.13310000  0.91560000  0.82540000  1
  H  H13  1  0.16220000  0.29780000  0.53970000  1
  H  H14  1  0.21280000  0.66610000  0.30500000  1
  H  H15  1  0.22160000  0.06590000  0.40590000  1
  H  H16  1  0.23990000  0.41160000  0.73570000  1
  H  H17  1  0.26160000  0.12830000  0.26600000  1
  H  H18  1  0.27840000  0.97180000  0.70510000  1
  H  H19  1  0.28410000  0.47590000  0.59620000  1
  H  H20  1  0.33230000  0.83760000  0.43930000  1
  H  H21  1  0.36600000  0.73040000  0.19020000  1
  H  H22  1  0.39120000  0.18260000  0.88420000  1
  H  H23  1  0.41990000  0.07600000  0.60540000  1
  H  H24  1  0.47030000  0.56560000  0.45250000  1
  H  H25  1  0.48600000  0.88690000  0.58460000  1
  H  H26  1  0.49340000  0.48750000  0.71680000  1
  H  H27  1  0.49770000  0.12530000  0.18020000  1
  H  H28  1  0.50230000  0.87470000  0.81980000  1
  H  H29  1  0.50660000  0.51250000  0.28320000  1
  H  H30  1  0.51400000  0.11310000  0.41540000  1
  H  H31  1  0.52970000  0.43440000  0.54750000  1
  H  H32  1  0.58010000  0.92400000  0.39460000  1
  H  H33  1  0.60880000  0.81740000  0.11580000  1
  H  H34  1  0.63400000  0.26960000  0.80980000  1
  H  H35  1  0.66770000  0.16240000  0.56070000  1
  H  H36  1  0.71590000  0.52410000  0.40380000  1
  H  H37  1  0.72160000  0.02820000  0.29490000  1
  H  H38  1  0.73840000  0.87170000  0.73400000  1
  H  H39  1  0.76010000  0.58840000  0.26430000  1
  H  H40  1  0.77840000  0.93410000  0.59410000  1
  H  H41  1  0.78720000  0.33390000  0.69500000  1
  H  H42  1  0.83780000  0.70220000  0.46030000  1
  H  H43  1  0.86690000  0.08440000  0.17460000  1
  H  H44  1  0.89360000  0.90890000  0.91110000  1
  H  H45  1  0.91440000  0.34040000  0.58660000  1
  H  H46  1  0.97270000  0.98090000  0.44780000  1
  H  H47  1  0.98750000  0.53920000  0.58790000  1
  H  H48  1  0.99850000  0.67300000  0.19500000  1
  H  H49  1  0.99900000  0.80550000  0.71570000  1
  C  C50  1  0.00730000  0.90640000  0.82380000  1
  C  C51  1  0.01390000  0.19410000  0.90310000  1
  C  C52  1  0.02500000  0.15860000  0.51750000  1
  C  C53  1  0.03810000  0.35840000  0.58020000  1
  C  C54  1  0.03900000  0.10610000  0.22940000  1
  C  C55  1  0.07220000  0.40980000  0.59940000  1
  C  C56  1  0.08770000  0.56660000  0.36600000  1
  C  C57  1  0.09570000  0.96920000  0.43860000  1
  C  C58  1  0.10340000  0.83860000  0.69700000  1
  C  C59  1  0.10640000  0.49480000  0.38010000  1
  C  C60  1  0.11460000  0.88900000  0.71890000  1
  C  C61  1  0.12720000  0.31560000  0.80710000  1
  C  C62  1  0.13110000  0.89980000  0.45140000  1
  C  C63  1  0.13610000  0.09510000  0.12650000  1
  C  C64  1  0.16880000  0.24540000  0.85510000  1
  C  C65  1  0.18610000  0.33340000  0.55140000  1
  C  C66  1  0.22270000  0.78100000  0.62500000  1
  C  C67  1  0.22620000  0.61830000  0.31720000  1
  C  C68  1  0.22860000  0.11880000  0.23190000  1
  C  C69  1  0.24330000  0.83510000  0.64760000  1
  C  C70  1  0.24470000  0.02020000  0.41230000  1
  C  C71  1  0.25680000  0.47160000  0.34900000  1
  C  C72  1  0.25970000  0.43960000  0.58550000  1
  C  C73  1  0.26830000  0.93790000  0.68990000  1
  C  C74  1  0.26900000  0.36560000  0.76450000  1
  C  C75  1  0.27710000  0.39840000  0.36790000  1
  C  C76  1  0.31060000  0.88330000  0.43320000  1
  C  C77  1  0.32090000  0.10250000  0.13180000  1
  C  C78  1  0.36120000  0.22820000  0.85460000  1
  C  C79  1  0.37020000  0.11670000  0.18010000  1
  C  C80  1  0.37200000  0.36170000  0.53970000  1
  C  C81  1  0.38620000  0.59800000  0.28650000  1
  C  C82  1  0.39340000  0.88720000  0.61870000  1
  C  C83  1  0.39950000  0.52550000  0.30310000  1
  C  C84  1  0.40640000  0.41490000  0.55620000  1
  C  C85  1  0.41030000  0.93920000  0.63860000  1
  C  C86  1  0.43240000  0.00500000  0.39460000  1
  C  C87  1  0.45870000  0.93570000  0.40590000  1
  C  C88  1  0.46190000  0.34800000  0.76360000  1
  C  C89  1  0.47140000  0.66720000  0.49020000  1
  C  C90  1  0.47360000  0.10240000  0.07640000  1
  C  C91  1  0.49230000  0.71950000  0.19090000  1
  C  C92  1  0.50770000  0.28050000  0.80910000  1
  C  C93  1  0.52640000  0.89760000  0.92360000  1
  C  C94  1  0.52860000  0.33280000  0.50980000  1
  C  C95  1  0.53810000  0.65200000  0.23640000  1
  C  C96  1  0.54130000  0.06430000  0.59410000  1
  C  C97  1  0.56760000  0.99500000  0.60540000  1
  C  C98  1  0.58970000  0.06080000  0.36140000  1
  C  C99  1  0.59360000  0.58510000  0.44380000  1
  C  C100  1  0.60050000  0.47450000  0.69690000  1
  C  C101  1  0.60660000  0.11280000  0.38130000  1
  C  C102  1  0.61380000  0.40200000  0.71350000  1
  C  C103  1  0.62800000  0.63830000  0.46030000  1
  C  C104  1  0.62980000  0.88330000  0.81990000  1
  C  C105  1  0.63880000  0.77180000  0.14540000  1
  C  C106  1  0.67910000  0.89750000  0.86820000  1
  C  C107  1  0.68940000  0.11670000  0.56680000  1
  C  C108  1  0.72290000  0.60160000  0.63210000  1
  C  C109  1  0.73100000  0.63440000  0.23550000  1
  C  C110  1  0.73170000  0.06210000  0.31010000  1
  C  C111  1  0.74030000  0.56040000  0.41450000  1
  C  C112  1  0.74320000  0.52840000  0.65100000  1
  C  C113  1  0.75530000  0.97980000  0.58770000  1
  C  C114  1  0.75670000  0.16490000  0.35240000  1
  C  C115  1  0.77140000  0.88120000  0.76810000  1
  C  C116  1  0.77380000  0.38170000  0.68280000  1
  C  C117  1  0.77730000  0.21900000  0.37500000  1
  C  C118  1  0.81390000  0.66666667  0.44860000  1
  C  C119  1  0.83120000  0.75460000  0.14490000  1
  C  C120  1  0.86390000  0.90490000  0.87350000  1
  C  C121  1  0.86890000  0.10020000  0.54860000  1
  C  C122  1  0.87280000  0.68440000  0.19290000  1
  C  C123  1  0.88540000  0.11100000  0.28110000  1
  C  C124  1  0.89360000  0.50520000  0.61990000  1
  C  C125  1  0.89660000  0.16140000  0.30300000  1
  C  C126  1  0.90430000  0.03080000  0.56140000  1
  C  C127  1  0.91230000  0.43340000  0.63400000  1
  C  C128  1  0.92780000  0.59020000  0.40060000  1
  C  C129  1  0.96100000  0.89390000  0.77060000  1
  C  C130  1  0.96190000  0.64160000  0.41980000  1
  C  C131  1  0.97500000  0.84140000  0.48250000  1
  C  C132  1  0.98610000  0.80590000  0.09690000  1
  C  C133  1  0.99270000  0.09360000  0.17620000  1
  O  O134  1  0.00390000  0.21250000  0.52270000  1
  O  O135  1  0.05300000  0.13370000  0.94880000  1
  O  O136  1  0.06720000  0.74560000  0.63990000  1
  O  O137  1  0.13640000  0.35790000  0.38530000  1
  O  O138  1  0.15370000  0.79730000  0.10470000  1
  O  O139  1  0.16910000  0.15440000  0.47980000  1
  O  O140  1  0.30640000  0.63650000  0.50670000  1
  O  O141  1  0.35520000  0.77160000  0.58850000  1
  O  O142  1  0.35790000  0.88130000  0.92420000  1
  O  O143  1  0.43280000  0.08080000  0.03380000  1
  O  O144  1  0.43870000  0.37370000  0.37060000  1
  O  O145  1  0.49230000  0.28230000  0.49820000  1
  O  O146  1  0.50770000  0.71770000  0.50180000  1
  O  O147  1  0.56130000  0.62630000  0.62940000  1
  O  O148  1  0.56720000  0.91920000  0.96620000  1
  O  O149  1  0.64210000  0.11870000  0.07580000  1
  O  O150  1  0.64480000  0.22840000  0.41150000  1
  O  O151  1  0.69360000  0.36350000  0.49330000  1
  O  O152  1  0.83090000  0.84560000  0.52020000  1
  O  O153  1  0.84630000  0.20270000  0.89530000  1
  O  O154  1  0.86360000  0.64210000  0.61470000  1
  O  O155  1  0.93280000  0.25440000  0.36010000  1
  O  O156  1  0.94700000  0.86630000  0.05120000  1
  O  O157  1  0.99610000  0.78750000  0.47730000  1
