# generated using pymatgen
data_Zn5H4C4(N9O2)2
_symmetry_space_group_name_H-M   'P 1'
_cell_length_a   8.44110000
_cell_length_b   9.10660000
_cell_length_c   14.23270000
_cell_angle_alpha   71.70900000
_cell_angle_beta   72.75010000
_cell_angle_gamma   62.38930000
_symmetry_Int_Tables_number   1
_chemical_formula_structural   Zn5H4C4(N9O2)2
_chemical_formula_sum   'Zn10 H8 C8 N36 O8'
_cell_volume   905.52253195
_cell_formula_units_Z   2
loop_
 _symmetry_equiv_pos_site_id
 _symmetry_equiv_pos_as_xyz
  1  'x, y, z'
loop_
 _atom_site_type_symbol
 _atom_site_label
 _atom_site_symmetry_multiplicity
 _atom_site_fract_x
 _atom_site_fract_y
 _atom_site_fract_z
 _atom_site_occupancy
  Zn  Zn0  1  0.12220000  0.25000000  0.75000000  1
  Zn  Zn1  1  0.15545000  0.42134000  0.13332000  1
  Zn  Zn2  1  0.22003000  0.21990000  0.97074000  1
  Zn  Zn3  1  0.28989000  0.92134000  0.63332000  1
  Zn  Zn4  1  0.41067000  0.28010000  0.52926000  1
  Zn  Zn5  1  0.58933000  0.71990000  0.47074000  1
  Zn  Zn6  1  0.71011000  0.07866000  0.36668000  1
  Zn  Zn7  1  0.77997000  0.78010000  0.02926000  1
  Zn  Zn8  1  0.84455000  0.57866000  0.86668000  1
  Zn  Zn9  1  0.87780000  0.75000000  0.25000000  1
  H  H10  1  0.04600000  0.73000000  0.07800000  1
  H  H11  1  0.14600000  0.23000000  0.57800000  1
  H  H12  1  0.18500000  0.49400000  0.95000000  1
  H  H13  1  0.37100000  0.99400000  0.45000000  1
  H  H14  1  0.62900000  0.00600000  0.55000000  1
  H  H15  1  0.81500000  0.50600000  0.05000000  1
  H  H16  1  0.85400000  0.77000000  0.42200000  1
  H  H17  1  0.95400000  0.27000000  0.92200000  1
  C  C18  1  0.02769000  0.81145000  0.81957000  1
  C  C19  1  0.18157000  0.59955000  0.72531000  1
  C  C20  1  0.34129000  0.31145000  0.31957000  1
  C  C21  1  0.49357000  0.09955000  0.22531000  1
  C  C22  1  0.50643000  0.90045000  0.77469000  1
  C  C23  1  0.65871000  0.68855000  0.68043000  1
  C  C24  1  0.81843000  0.40045000  0.27469000  1
  C  C25  1  0.97231000  0.18855000  0.18043000  1
  N  N26  1  0.01562000  0.05832000  0.80504000  1
  N  N27  1  0.05837000  0.65711000  0.80715000  1
  N  N28  1  0.08321000  0.12663000  0.09895000  1
  N  N29  1  0.08825000  0.97206000  0.11084000  1
  N  N30  1  0.09204000  0.92571000  0.75861000  1
  N  N31  1  0.12102000  0.55832000  0.30504000  1
  N  N32  1  0.17115000  0.52794000  0.38916000  1
  N  N33  1  0.21754000  0.45309000  0.70223000  1
  N  N34  1  0.22364000  0.42571000  0.25861000  1
  N  N35  1  0.28274000  0.67686000  0.65566000  1
  N  N36  1  0.30879000  0.37337000  0.40105000  1
  N  N37  1  0.34009000  0.44708000  0.61534000  1
  N  N38  1  0.37286000  0.04691000  0.79777000  1
  N  N39  1  0.37872000  0.57864000  0.58772000  1
  N  N40  1  0.38474000  0.17686000  0.15566000  1
  N  N41  1  0.40251000  0.05292000  0.88466000  1
  N  N42  1  0.45492000  0.07864000  0.08772000  1
  N  N43  1  0.47737000  0.15711000  0.30715000  1
  N  N44  1  0.52263000  0.84289000  0.69285000  1
  N  N45  1  0.54508000  0.92136000  0.91228000  1
  N  N46  1  0.59749000  0.94708000  0.11534000  1
  N  N47  1  0.61526000  0.82314000  0.84434000  1
  N  N48  1  0.62128000  0.42136000  0.41228000  1
  N  N49  1  0.62714000  0.95309000  0.20223000  1
  N  N50  1  0.65991000  0.55292000  0.38466000  1
  N  N51  1  0.69121000  0.62663000  0.59895000  1
  N  N52  1  0.71726000  0.32314000  0.34434000  1
  N  N53  1  0.77636000  0.57429000  0.74139000  1
  N  N54  1  0.78246000  0.54691000  0.29777000  1
  N  N55  1  0.82885000  0.47206000  0.61084000  1
  N  N56  1  0.87898000  0.44168000  0.69496000  1
  N  N57  1  0.90796000  0.07429000  0.24139000  1
  N  N58  1  0.91175000  0.02794000  0.88916000  1
  N  N59  1  0.91679000  0.87337000  0.90105000  1
  N  N60  1  0.94163000  0.34289000  0.19285000  1
  N  N61  1  0.98438000  0.94168000  0.19496000  1
  O  O62  1  0.01755000  0.32021000  0.88769000  1
  O  O63  1  0.22545000  0.17979000  0.61231000  1
  O  O64  1  0.23822000  0.41091000  0.98885000  1
  O  O65  1  0.36202000  0.91091000  0.48885000  1
  O  O66  1  0.63798000  0.08909000  0.51115000  1
  O  O67  1  0.76178000  0.58909000  0.01115000  1
  O  O68  1  0.77455000  0.82021000  0.38769000  1
  O  O69  1  0.98245000  0.67979000  0.11231000  1
