# generated using pymatgen
data_Zn2H43C55N3O8
_symmetry_space_group_name_H-M   'P 1'
_cell_length_a   15.18200000
_cell_length_b   15.18200000
_cell_length_c   48.42000000
_cell_angle_alpha   94.33310000
_cell_angle_beta   94.33310000
_cell_angle_gamma   98.25300000
_symmetry_Int_Tables_number   1
_chemical_formula_structural   Zn2H43C55N3O8
_chemical_formula_sum   'Zn8 H172 C220 N12 O32'
_cell_volume   10971.03327605
_cell_formula_units_Z   4
loop_
 _symmetry_equiv_pos_site_id
 _symmetry_equiv_pos_as_xyz
  1  'x, y, z'
loop_
 _atom_site_type_symbol
 _atom_site_label
 _atom_site_symmetry_multiplicity
 _atom_site_fract_x
 _atom_site_fract_y
 _atom_site_fract_z
 _atom_site_occupancy
  Zn  Zn0  1  0.62505000  0.85409000  0.38309000  1
  Zn  Zn1  1  0.60803000  0.83751000  0.32267000  1
  Zn  Zn2  1  0.76839000  0.73517000  0.88379000  1
  Zn  Zn3  1  0.75184000  0.71934000  0.82323000  1
  Zn  Zn4  1  0.16249000  0.39197000  0.67733000  1
  Zn  Zn5  1  0.14591000  0.37495000  0.61691000  1
  Zn  Zn6  1  0.28066000  0.24816000  0.17677000  1
  Zn  Zn7  1  0.26483000  0.23161000  0.11621000  1
  H  H8  1  0.63080000  0.98860000  0.70930000  1
  H  H9  1  0.72250000  0.98470000  0.48080000  1
  H  H10  1  0.54710000  0.97950000  0.49890000  1
  H  H11  1  0.71370000  0.97870000  0.43260000  1
  H  H12  1  0.30460000  0.97140000  0.18750000  1
  H  H13  1  0.14140000  0.96240000  0.68740000  1
  H  H14  1  0.47260000  0.95500000  0.51890000  1
  H  H15  1  0.70000000  0.94980000  0.72890000  1
  H  H16  1  0.62390000  0.94830000  0.66540000  1
  H  H17  1  0.65670000  0.94250000  0.27350000  1
  H  H18  1  0.23990000  0.94230000  0.10490000  1
  H  H19  1  0.13360000  0.93800000  0.60400000  1
  H  H20  1  0.65500000  0.92440000  0.60970000  1
  H  H21  1  0.54990000  0.91710000  0.56800000  1
  H  H22  1  0.59780000  0.91360000  0.72830000  1
  H  H23  1  0.68620000  0.91280000  0.22770000  1
  H  H24  1  0.64240000  0.90380000  0.02050000  1
  H  H25  1  0.70210000  0.89110000  0.99590000  1
  H  H26  1  0.19450000  0.86930000  0.39360000  1
  H  H27  1  0.90950000  0.86790000  0.39660000  1
  H  H28  1  0.06200000  0.86640000  0.39600000  1
  H  H29  1  0.88510000  0.85990000  0.31320000  1
  H  H30  1  0.34530000  0.85870000  0.39340000  1
  H  H31  1  0.03760000  0.85860000  0.31260000  1
  H  H32  1  0.68740000  0.85800000  0.06320000  1
  H  H33  1  0.85490000  0.85230000  0.98230000  1
  H  H34  1  0.85840000  0.84820000  0.93450000  1
  H  H35  1  0.82330000  0.84670000  0.50130000  1
  H  H36  1  0.81180000  0.83440000  0.73230000  1
  H  H37  1  0.16730000  0.83410000  0.31020000  1
  H  H38  1  0.16590000  0.83270000  0.68980000  1
  H  H39  1  0.31820000  0.82340000  0.30990000  1
  H  H40  1  0.84380000  0.82220000  0.22410000  1
  H  H41  1  0.51750000  0.82070000  0.18830000  1
  H  H42  1  0.61780000  0.82060000  0.99860000  1
  H  H43  1  0.30940000  0.81940000  0.18720000  1
  H  H44  1  0.71720000  0.81460000  0.10530000  1
  H  H45  1  0.55260000  0.80920000  0.60770000  1
  H  H46  1  0.84560000  0.80720000  0.77810000  1
  H  H47  1  0.13070000  0.80550000  0.60640000  1
  H  H48  1  0.77290000  0.80490000  0.56280000  1
  H  H49  1  0.24470000  0.79010000  0.10470000  1
  H  H50  1  0.82700000  0.76980000  0.52100000  1
  H  H51  1  0.64030000  0.76750000  0.60650000  1
  H  H52  1  0.05770000  0.76010000  0.89510000  1
  H  H53  1  0.89510000  0.75690000  0.20720000  1
  H  H54  1  0.75950000  0.75570000  0.49430000  1
  H  H55  1  0.55090000  0.75550000  0.47630000  1
  H  H56  1  0.20990000  0.75530000  0.89530000  1
  H  H57  1  0.48040000  0.75100000  0.16310000  1
  H  H58  1  0.54210000  0.74950000  0.42810000  1
  H  H59  1  0.31880000  0.74300000  0.81310000  1
  H  H60  1  0.47100000  0.73840000  0.81310000  1
  H  H61  1  0.84130000  0.72410000  0.16090000  1
  H  H62  1  0.82880000  0.72000000  0.22830000  1
  H  H63  1  0.49120000  0.71980000  0.19310000  1
  H  H64  1  0.58310000  0.71890000  0.13440000  1
  H  H65  1  0.33100000  0.70400000  0.89430000  1
  H  H66  1  0.82370000  0.70030000  0.12000000  1
  H  H67  1  0.63950000  0.69950000  0.63350000  1
  H  H68  1  0.48310000  0.69950000  0.89430000  1
  H  H69  1  0.02860000  0.69540000  0.81250000  1
  H  H70  1  0.18060000  0.69060000  0.81280000  1
  H  H71  1  0.17660000  0.68180000  0.69010000  1
  H  H72  1  0.25700000  0.68120000  0.18690000  1
  H  H73  1  0.59020000  0.67940000  0.28010000  1
  H  H74  1  0.57560000  0.67560000  0.73110000  1
  H  H75  1  0.29600000  0.66900000  0.10570000  1
  H  H76  1  0.14130000  0.65470000  0.60660000  1
  H  H77  1  0.61970000  0.64970000  0.23430000  1
  H  H78  1  0.60930000  0.64830000  0.77690000  1
  H  H79  1  0.81710000  0.64650000  0.06940000  1
  H  H80  1  0.73470000  0.63810000  0.10760000  1
  H  H81  1  0.88020000  0.62880000  0.00330000  1
  H  H82  1  0.68100000  0.62400000  0.97350000  1
  H  H83  1  0.68450000  0.61990000  0.92560000  1
  H  H84  1  0.73230000  0.61310000  0.66666667  1
  H  H85  1  0.69630000  0.61190000  0.69620000  1
  H  H86  1  0.63090000  0.58050000  0.66960000  1
  H  H87  1  0.78500000  0.57220000  0.00220000  1
  H  H88  1  0.62870000  0.57210000  0.39410000  1
  H  H89  1  0.85590000  0.56730000  0.02700000  1
  H  H90  1  0.59790000  0.54590000  0.31050000  1
  H  H91  1  0.26160000  0.52900000  0.18690000  1
  H  H92  1  0.04500000  0.52740000  0.48110000  1
  H  H93  1  0.24900000  0.51960000  0.83690000  1
  H  H94  1  0.30050000  0.51690000  0.10570000  1
  H  H95  1  0.28020000  0.50880000  0.80690000  1
  H  H96  1  0.17930000  0.48250000  0.81170000  1
  H  H97  1  0.78950000  0.46390000  0.89230000  1
  H  H98  1  0.25050000  0.45790000  0.57190000  1
  H  H99  1  0.02050000  0.45290000  0.50110000  1
  H  H100  1  0.08290000  0.45010000  0.43200000  1
  H  H101  1  0.24450000  0.44910000  0.52370000  1
  H  H102  1  0.19080000  0.44740000  0.39230000  1
  H  H103  1  0.97200000  0.44500000  0.47110000  1
  H  H104  1  0.32440000  0.42440000  0.26890000  1
  H  H105  1  0.72630000  0.42190000  0.80980000  1
  H  H106  1  0.63440000  0.42020000  0.39430000  1
  H  H107  1  0.28110000  0.41690000  0.86560000  1
  H  H108  1  0.32060000  0.40980000  0.71990000  1
  H  H109  1  0.08640000  0.40220000  0.27170000  1
  H  H110  1  0.45410000  0.40210000  0.68950000  1
  H  H111  1  0.60600000  0.39640000  0.68920000  1
  H  H112  1  0.60360000  0.39400000  0.31080000  1
  H  H113  1  0.35170000  0.39070000  0.22310000  1
  H  H114  1  0.17940000  0.38220000  0.00140000  1
  H  H115  1  0.35030000  0.38030000  0.76570000  1
  H  H116  1  0.71000000  0.37880000  0.60680000  1
  H  H117  1  0.73090000  0.37690000  0.69000000  1
  H  H118  1  0.05170000  0.37610000  0.33460000  1
  H  H119  1  0.86220000  0.37480000  0.60650000  1
  H  H120  1  0.88300000  0.37300000  0.68970000  1
  H  H121  1  0.42790000  0.37130000  0.60590000  1
  H  H122  1  0.01140000  0.36920000  0.29070000  1
  H  H123  1  0.41950000  0.36910000  0.33040000  1
  H  H124  1  0.57980000  0.36560000  0.60570000  1
  H  H125  1  0.30050000  0.36050000  0.36650000  1
  H  H126  1  0.23250000  0.35970000  0.39350000  1
  H  H127  1  0.09620000  0.35760000  0.97950000  1
  H  H128  1  0.07560000  0.34500000  0.39030000  1
  H  H129  1  0.05750000  0.34330000  0.72650000  1
  H  H130  1  0.37600000  0.31900000  0.02650000  1
  H  H131  1  0.38010000  0.31550000  0.07440000  1
  H  H132  1  0.08720000  0.31380000  0.77230000  1
  H  H133  1  0.79970000  0.31350000  0.89420000  1
  H  H134  1  0.14200000  0.31260000  0.93680000  1
  H  H135  1  0.38810000  0.30370000  0.30380000  1
  H  H136  1  0.05020000  0.30000000  0.27110000  1
  H  H137  1  0.10890000  0.29790000  0.00410000  1
  H  H138  1  0.62120000  0.29000000  0.39320000  1
  H  H139  1  0.02130000  0.28630000  0.56740000  1
  H  H140  1  0.18540000  0.28280000  0.89470000  1
  H  H141  1  0.01530000  0.27750000  0.51920000  1
  H  H142  1  0.57810000  0.27370000  0.19020000  1
  H  H143  1  0.73660000  0.27140000  0.81170000  1
  H  H144  1  0.62310000  0.26910000  0.31000000  1
  H  H145  1  0.38690000  0.26770000  0.33333333  1
  H  H146  1  0.36190000  0.26530000  0.89240000  1
  H  H147  1  0.72860000  0.26340000  0.18830000  1
  H  H148  1  0.82790000  0.26170000  0.10670000  1
  H  H149  1  0.98040000  0.26140000  0.10560000  1
  H  H150  1  0.24430000  0.24050000  0.50570000  1
  H  H151  1  0.19510000  0.22710000  0.43720000  1
  H  H152  1  0.42780000  0.21500000  0.99780000  1
  H  H153  1  0.53610000  0.21050000  0.10770000  1
  H  H154  1  0.68650000  0.20030000  0.10580000  1
  H  H155  1  0.84320000  0.19460000  0.18550000  1
  H  H156  1  0.99550000  0.19430000  0.18430000  1
  H  H157  1  0.16560000  0.18820000  0.26770000  1
  H  H158  1  0.35350000  0.18290000  0.93060000  1
  H  H159  1  0.15330000  0.17670000  0.49870000  1
  H  H160  1  0.29970000  0.17630000  0.88000000  1
  H  H161  1  0.23020000  0.17300000  0.47900000  1
  H  H162  1  0.73830000  0.17210000  0.89330000  1
  H  H163  1  0.28000000  0.17120000  0.77170000  1
  H  H164  1  0.27590000  0.15870000  0.83910000  1
  H  H165  1  0.80540000  0.15680000  0.81450000  1
  H  H166  1  0.17780000  0.15620000  0.77590000  1
  H  H167  1  0.19280000  0.15440000  0.22190000  1
  H  H168  1  0.14770000  0.14510000  0.01770000  1
  H  H169  1  0.43270000  0.14410000  0.97300000  1
  H  H170  1  0.15180000  0.14160000  0.06550000  1
  H  H171  1  0.62520000  0.13780000  0.39350000  1
  H  H172  1  0.37120000  0.11980000  0.99670000  1
  H  H173  1  0.62700000  0.11700000  0.31030000  1
  H  H174  1  0.14010000  0.11490000  0.68680000  1
  H  H175  1  0.24310000  0.10490000  0.79280000  1
  H  H176  1  0.13210000  0.09050000  0.60340000  1
  H  H177  1  0.55500000  0.02800000  0.52890000  1
  H  H178  1  0.73860000  0.01960000  0.89440000  1
  H  H179  1  0.80570000  0.00450000  0.81570000  1
  C  C180  1  0.77226000  0.99694000  0.85515000  1
  C  C181  1  0.13950000  0.98810000  0.67060000  1
  C  C182  1  0.13490000  0.97350000  0.62064000  1
  C  C183  1  0.53550000  0.97250000  0.51780000  1
  C  C184  1  0.27184000  0.97196000  0.14621000  1
  C  C185  1  0.68640000  0.93760000  0.47022000  1
  C  C186  1  0.64480000  0.93580000  0.71730000  1
  C  C187  1  0.29270000  0.93510000  0.17087000  1
  C  C188  1  0.13770000  0.93510000  0.64580000  1
  C  C189  1  0.68110000  0.93390000  0.44136000  1
  C  C190  1  0.25380000  0.91760000  0.12141000  1
  C  C191  1  0.58570000  0.90090000  0.52880000  1
  C  C192  1  0.77070000  0.89990000  0.85628000  1
  C  C193  1  0.59240000  0.89620000  0.55740000  1
  C  C194  1  0.63370000  0.89030000  0.66793000  1
  C  C195  1  0.64930000  0.88390000  0.26565000  1
  C  C196  1  0.63760000  0.87080000  0.48330000  1
  C  C197  1  0.64920000  0.86980000  0.51288000  1
  C  C198  1  0.93520000  0.86600000  0.37972000  1
  C  C199  1  0.66700000  0.86600000  0.23820000  1
  C  C200  1  0.65390000  0.86590000  0.69451000  1
  C  C201  1  0.02650000  0.86510000  0.37936000  1
  C  C202  1  0.88220000  0.86400000  0.35492000  1
  C  C203  1  0.06490000  0.86230000  0.35420000  1
  C  C204  1  0.92060000  0.86120000  0.32975000  1
  C  C205  1  0.66600000  0.86080000  0.00870000  1
  C  C206  1  0.01190000  0.86050000  0.32940000  1
  C  C207  1  0.66260000  0.86020000  0.57010000  1
  C  C208  1  0.21930000  0.86010000  0.37685000  1
  C  C209  1  0.78390000  0.85810000  0.35713000  1
  C  C210  1  0.30970000  0.85370000  0.37672000  1
  C  C211  1  0.16590000  0.85270000  0.35192000  1
  C  C212  1  0.29540000  0.84400000  0.17073000  1
  C  C213  1  0.34680000  0.84000000  0.35165000  1
  C  C214  1  0.20300000  0.83900000  0.32685000  1
  C  C215  1  0.44510000  0.83890000  0.35153000  1
  C  C216  1  0.14730000  0.83410000  0.64808000  1
  C  C217  1  0.71940000  0.83380000  0.52560000  1
  C  C218  1  0.29340000  0.83260000  0.32671000  1
  C  C219  1  0.72600000  0.82900000  0.55420000  1
  C  C220  1  0.62840000  0.82800000  0.64509000  1
  C  C221  1  0.25670000  0.82650000  0.12128000  1
  C  C222  1  0.61640000  0.82060000  0.61290000  1
  C  C223  1  0.71570000  0.81390000  0.05492000  1
  C  C224  1  0.72270000  0.80850000  0.02640000  1
  C  C225  1  0.82074000  0.80574000  0.97097000  1
  C  C226  1  0.82288000  0.80328000  0.94228000  1
  C  C227  1  0.58350000  0.80030000  0.46751000  1
  C  C228  1  0.78850000  0.79830000  0.50900000  1
  C  C229  1  0.77130000  0.79710000  0.74127000  1
  C  C230  1  0.16100000  0.79700000  0.67315000  1
  C  C231  1  0.57820000  0.79660000  0.43866000  1
  C  C232  1  0.27753000  0.78967000  0.14593000  1
  C  C233  1  0.79141000  0.78081000  0.76872000  1
  C  C234  1  0.13990000  0.78070000  0.62315000  1
  C  C235  1  0.66850000  0.77910000  0.69825000  1
  C  C236  1  0.65590000  0.77830000  0.22644000  1
  C  C237  1  0.84000000  0.76320000  0.21500000  1
  C  C238  1  0.51630000  0.76050000  0.18055000  1
  C  C239  1  0.69030000  0.75770000  0.72719000  1
  C  C240  1  0.67650000  0.75550000  0.19762000  1
  C  C241  1  0.75100000  0.75320000  0.07102000  1
  C  C242  1  0.76360000  0.74780000  0.19191000  1
  C  C243  1  0.08240000  0.74620000  0.87859000  1
  C  C244  1  0.60890000  0.74470000  0.17608000  1
  C  C245  1  0.17350000  0.74330000  0.87872000  1
  C  C246  1  0.76510000  0.74250000  0.01398000  1
  C  C247  1  0.64310000  0.74110000  0.64883000  1
  C  C248  1  0.76760000  0.73860000  0.98266000  1
  C  C249  1  0.35180000  0.73420000  0.82935000  1
  C  C250  1  0.93040000  0.73180000  0.85188000  1
  C  C251  1  0.44290000  0.73150000  0.82935000  1
  C  C252  1  0.78310000  0.72930000  0.16467000  1
  C  C253  1  0.02804000  0.72816000  0.85379000  1
  C  C254  1  0.62840000  0.72620000  0.14885000  1
  C  C255  1  0.60940000  0.72620000  0.26958000  1
  C  C256  1  0.30985000  0.72395000  0.85370000  1
  C  C257  1  0.21033000  0.72247000  0.85407000  1
  C  C258  1  0.58960000  0.72060000  0.85440000  1
  C  C259  1  0.49211000  0.71849000  0.85370000  1
  C  C260  1  0.71540000  0.71840000  0.14314000  1
  C  C261  1  0.66320000  0.71680000  0.67541000  1
  C  C262  1  0.35910000  0.71090000  0.87805000  1
  C  C263  1  0.62720000  0.70840000  0.24213000  1
  C  C264  1  0.45020000  0.70820000  0.87805000  1
  C  C265  1  0.06490000  0.70730000  0.82913000  1
  C  C266  1  0.16740000  0.70660000  0.67329000  1
  C  C267  1  0.15600000  0.70460000  0.82927000  1
  C  C268  1  0.62970000  0.70190000  0.74055000  1
  C  C269  1  0.75960000  0.69700000  0.11629000  1
  C  C270  1  0.14630000  0.69030000  0.62328000  1
  C  C271  1  0.27605000  0.69015000  0.14630000  1
  C  C272  1  0.79340000  0.68720000  0.05860000  1
  C  C273  1  0.64985000  0.68565000  0.76800000  1
  C  C274  1  0.80040000  0.68180000  0.03008000  1
  C  C275  1  0.60900000  0.67540000  0.35284000  1
  C  C276  1  0.71654000  0.66894000  0.96566000  1
  C  C277  1  0.71868000  0.66648000  0.93697000  1
  C  C278  1  0.16000000  0.65320000  0.64835000  1
  C  C279  1  0.26580000  0.64820000  0.17065000  1
  C  C280  1  0.28910000  0.64090000  0.12195000  1
  C  C281  1  0.68250000  0.62190000  0.67710000  1
  C  C282  1  0.83340000  0.60560000  0.01420000  1
  C  C283  1  0.61280000  0.57400000  0.35227000  1
  C  C284  1  0.75120000  0.56040000  0.85096000  1
  C  C285  1  0.26850000  0.55710000  0.17065000  1
  C  C286  1  0.16110000  0.55490000  0.64847000  1
  C  C287  1  0.29180000  0.54980000  0.12195000  1
  C  C288  1  0.62370000  0.53630000  0.37737000  1
  C  C289  1  0.60530000  0.52070000  0.32733000  1
  C  C290  1  0.28151000  0.50789000  0.14630000  1
  C  C291  1  0.23950000  0.48370000  0.81945000  1
  C  C292  1  0.02750000  0.46450000  0.48220000  1
  C  C293  1  0.75689000  0.45777000  0.85082000  1
  C  C294  1  0.62710000  0.44550000  0.37752000  1
  C  C295  1  0.60870000  0.42970000  0.32748000  1
  C  C296  1  0.77886000  0.42528000  0.87612000  1
  C  C297  1  0.20340000  0.42180000  0.56134000  1
  C  C298  1  0.19970000  0.41650000  0.53249000  1
  C  C299  1  0.09910000  0.41430000  0.47120000  1
  C  C300  1  0.27940000  0.41040000  0.14560000  1
  C  C301  1  0.10380000  0.40760000  0.44260000  1
  C  C302  1  0.74106000  0.40014000  0.82668000  1
  C  C303  1  0.47930000  0.39470000  0.67267000  1
  C  C304  1  0.61960000  0.39200000  0.35257000  1
  C  C305  1  0.57030000  0.39130000  0.67252000  1
  C  C306  1  0.25530000  0.39110000  0.82392000  1
  C  C307  1  0.32460000  0.39100000  0.64716000  1
  C  C308  1  0.27380000  0.39060000  0.73042000  1
  C  C309  1  0.42600000  0.38720000  0.64773000  1
  C  C310  1  0.17940000  0.38360000  0.38710000  1
  C  C311  1  0.60800000  0.38040000  0.64743000  1
  C  C312  1  0.70540000  0.37820000  0.64843000  1
  C  C313  1  0.74470000  0.37770000  0.62342000  1
  C  C314  1  0.75720000  0.37660000  0.67325000  1
  C  C315  1  0.46370000  0.37630000  0.62263000  1
  C  C316  1  0.83580000  0.37520000  0.62323000  1
  C  C317  1  0.84830000  0.37410000  0.67306000  1
  C  C318  1  0.88770000  0.37350000  0.64805000  1
  C  C319  1  0.55450000  0.37290000  0.62248000  1
  C  C320  1  0.29160000  0.37280000  0.75787000  1
  C  C321  1  0.27380000  0.37160000  0.85115000  1
  C  C322  1  0.17200000  0.37160000  0.35491000  1
  C  C323  1  0.98360000  0.37040000  0.64739000  1
  C  C324  1  0.29810000  0.37030000  0.25945000  1
  C  C325  1  0.10970000  0.36630000  0.33207000  1
  C  C326  1  0.12920000  0.36240000  0.51670000  1
  C  C327  1  0.25890000  0.35690000  0.35117000  1
  C  C328  1  0.06420000  0.35520000  0.28270000  1
  C  C329  1  0.13020000  0.35080000  0.48712000  1
  C  C330  1  0.11610000  0.35070000  0.73435000  1
  C  C331  1  0.31435000  0.35015000  0.23200000  1
  C  C332  1  0.13410000  0.34610000  0.30549000  1
  C  C333  1  0.22170000  0.34410000  0.77356000  1
  C  C334  1  0.13980000  0.33740000  0.42990000  1
  C  C335  1  0.28320000  0.33680000  0.32459000  1
  C  C336  1  0.78502000  0.33518000  0.87728000  1
  C  C337  1  0.13920000  0.33400000  0.99130000  1
  C  C338  1  0.13400000  0.33300000  0.76180000  1
  C  C339  1  0.22090000  0.33150000  0.30175000  1
  C  C340  1  0.24450000  0.32350000  0.80238000  1
  C  C341  1  0.06610000  0.31890000  0.55864000  1
  C  C342  1  0.37810000  0.31750000  0.32290000  1
  C  C343  1  0.06240000  0.31360000  0.52978000  1
  C  C344  1  0.74720000  0.31000000  0.82785000  1
  C  C345  1  0.24230000  0.30970000  0.27281000  1
  C  C346  1  0.62180000  0.29460000  0.35157000  1
  C  C347  1  0.28160000  0.28460000  0.85686000  1
  C  C348  1  0.18610000  0.28430000  0.94508000  1
  C  C349  1  0.33106000  0.28346000  0.03434000  1
  C  C350  1  0.33352000  0.28132000  0.06303000  1
  C  C351  1  0.16620000  0.28060000  0.47440000  1
  C  C352  1  0.76913000  0.27747000  0.85315000  1
  C  C353  1  0.19150000  0.27730000  0.97360000  1
  C  C354  1  0.17100000  0.27400000  0.44580000  1
  C  C355  1  0.59986000  0.25894000  0.17332000  1
  C  C356  1  0.62230000  0.25530000  0.37658000  1
  C  C357  1  0.69000000  0.25280000  0.17215000  1
  C  C358  1  0.24680000  0.24900000  0.92898000  1
  C  C359  1  0.43960000  0.24880000  0.14904000  1
  C  C360  1  0.86150000  0.24810000  0.12229000  1
  C  C361  1  0.95280000  0.24800000  0.12160000  1
  C  C362  1  0.54223000  0.24311000  0.14918000  1
  C  C363  1  0.62340000  0.24280000  0.32675000  1
  C  C364  1  0.30300000  0.24040000  0.88371000  1
  C  C365  1  0.25220000  0.23640000  0.80809000  1
  C  C366  1  0.25750000  0.23490000  0.98602000  1
  C  C367  1  0.26140000  0.23240000  0.01734000  1
  C  C368  1  0.72253000  0.23087000  0.14685000  1
  C  C369  1  0.10010000  0.22930000  0.14372000  1
  C  C370  1  0.20290000  0.22870000  0.25873000  1
  C  C371  1  0.82042000  0.22818000  0.14621000  1
  C  C372  1  0.00306000  0.22774000  0.14485000  1
  C  C373  1  0.57472000  0.22114000  0.12388000  1
  C  C374  1  0.27070000  0.21690000  0.83533000  1
  C  C375  1  0.14190000  0.21610000  0.64287000  1
  C  C376  1  0.66482000  0.21498000  0.12272000  1
  C  C377  1  0.20170000  0.21150000  0.49100000  1
  C  C378  1  0.21919000  0.20859000  0.23128000  1
  C  C379  1  0.87060000  0.20800000  0.16946000  1
  C  C380  1  0.96200000  0.20780000  0.16878000  1
  C  C381  1  0.31280000  0.20660000  0.94140000  1
  C  C382  1  0.31820000  0.19960000  0.96992000  1
  C  C383  1  0.77182000  0.17958000  0.85379000  1
  C  C384  1  0.19426000  0.17926000  0.02903000  1
  C  C385  1  0.19672000  0.17712000  0.05772000  1
  C  C386  1  0.39440000  0.16660000  0.98580000  1
  C  C387  1  0.62480000  0.16420000  0.37677000  1
  C  C388  1  0.23680000  0.16000000  0.78500000  1
  C  C389  1  0.62590000  0.15170000  0.32694000  1
  C  C390  1  0.75190000  0.13850000  0.87771000  1
  C  C391  1  0.79200000  0.12940000  0.83054000  1
  C  C392  1  0.13600000  0.11780000  0.64508000  1
  C  C393  1  0.62650000  0.11230000  0.35195000  1
  C  C394  1  0.13880000  0.07940000  0.67025000  1
  C  C395  1  0.26820000  0.06960000  0.14812000  1
  C  C396  1  0.13400000  0.06480000  0.62028000  1
  C  C397  1  0.75200000  0.04720000  0.87840000  1
  C  C398  1  0.79220000  0.03800000  0.83122000  1
  C  C399  1  0.62960000  0.01640000  0.35261000  1
  N  N400  1  0.64290000  0.87150000  0.60140000  1
  N  N401  1  0.62710000  0.86350000  0.42558000  1
  N  N402  1  0.62050000  0.81390000  0.28134000  1
  N  N403  1  0.73720000  0.76780000  0.09876000  1
  N  N404  1  0.77183000  0.73367000  0.92527000  1
  N  N405  1  0.73076000  0.72504000  0.78209000  1
  N  N406  1  0.18610000  0.37950000  0.71866000  1
  N  N407  1  0.13650000  0.37290000  0.57442000  1
  N  N408  1  0.12850000  0.35710000  0.39860000  1
  N  N409  1  0.27496000  0.26924000  0.21791000  1
  N  N410  1  0.23220000  0.26280000  0.90124000  1
  N  N411  1  0.26633000  0.22817000  0.07473000  1
  O  O412  1  0.63620000  0.98240000  0.37407000  1
  O  O413  1  0.60920000  0.96860000  0.32932000  1
  O  O414  1  0.76420000  0.86400000  0.87876000  1
  O  O415  1  0.75770000  0.86190000  0.37924000  1
  O  O416  1  0.77710000  0.85330000  0.83372000  1
  O  O417  1  0.74090000  0.85210000  0.33409000  1
  O  O418  1  0.49200000  0.84560000  0.37371000  1
  O  O419  1  0.47560000  0.82700000  0.32712000  1
  O  O420  1  0.89940000  0.74940000  0.87691000  1
  O  O421  1  0.62494000  0.72146000  0.83127000  1
  O  O422  1  0.88530000  0.72130000  0.82998000  1
  O  O423  1  0.60820000  0.72020000  0.37598000  1
  O  O424  1  0.63200000  0.71740000  0.87770000  1
  O  O425  1  0.59940000  0.70640000  0.32901000  1
  O  O426  1  0.76400000  0.60040000  0.87400000  1
  O  O427  1  0.73430000  0.58690000  0.82771000  1
  O  O428  1  0.17300000  0.52440000  0.67288000  1
  O  O429  1  0.15440000  0.50800000  0.62629000  1
  O  O430  1  0.29360000  0.40060000  0.67099000  1
  O  O431  1  0.27980000  0.39180000  0.62402000  1
  O  O432  1  0.03140000  0.39080000  0.67068000  1
  O  O433  1  0.27854000  0.37506000  0.16873000  1
  O  O434  1  0.28260000  0.36800000  0.12230000  1
  O  O435  1  0.01760000  0.36380000  0.62593000  1
  O  O436  1  0.41310000  0.26570000  0.17229000  1
  O  O437  1  0.14790000  0.25910000  0.66591000  1
  O  O438  1  0.13810000  0.24230000  0.62076000  1
  O  O439  1  0.39960000  0.23600000  0.12600000  1
  O  O440  1  0.13600000  0.23580000  0.12124000  1
  O  O441  1  0.14670000  0.22290000  0.16628000  1
  O  O442  1  0.27870000  0.11470000  0.17002000  1
  O  O443  1  0.25060000  0.10060000  0.12309000  1
