# generated using pymatgen
data_Pr2Co3H16C40(NO3)8
_symmetry_space_group_name_H-M   'P 1'
_cell_length_a   7.65750000
_cell_length_b   10.47700000
_cell_length_c   30.45600000
_cell_angle_alpha   99.06000000
_cell_angle_beta   90.00000000
_cell_angle_gamma   90.00000000
_symmetry_Int_Tables_number   1
_chemical_formula_structural   Pr2Co3H16C40(NO3)8
_chemical_formula_sum   'Pr4 Co6 H32 C80 N16 O48'
_cell_volume   2412.92856150
_cell_formula_units_Z   2
loop_
 _symmetry_equiv_pos_site_id
 _symmetry_equiv_pos_as_xyz
  1  'x, y, z'
loop_
 _atom_site_type_symbol
 _atom_site_label
 _atom_site_symmetry_multiplicity
 _atom_site_fract_x
 _atom_site_fract_y
 _atom_site_fract_z
 _atom_site_occupancy
  Pr  Pr0  1  0.12847000  0.55207000  0.26821000  1
  Pr  Pr1  1  0.37153000  0.55207000  0.76821000  1
  Pr  Pr2  1  0.62847000  0.44793000  0.23179000  1
  Pr  Pr3  1  0.87153000  0.44793000  0.73179000  1
  Co  Co4  1  0.00000000  0.00000000  0.50000000  1
  Co  Co5  1  0.05419000  0.71354000  0.63005000  1
  Co  Co6  1  0.44581000  0.71354000  0.13005000  1
  Co  Co7  1  0.50000000  0.00000000  0.00000000  1
  Co  Co8  1  0.55419000  0.28646000  0.86995000  1
  Co  Co9  1  0.94581000  0.28646000  0.36995000  1
  H  H10  1  0.02860000  0.68880000  0.12430000  1
  H  H11  1  0.05620000  0.24360000  0.58170000  1
  H  H12  1  0.07510000  0.02300000  0.68610000  1
  H  H13  1  0.10590000  0.03560000  0.93800000  1
  H  H14  1  0.12230000  0.87260000  0.01440000  1
  H  H15  1  0.15020000  0.79830000  0.87800000  1
  H  H16  1  0.18150000  0.92290000  0.78310000  1
  H  H17  1  0.18710000  0.16620000  0.83970000  1
  H  H18  1  0.31290000  0.16620000  0.33970000  1
  H  H19  1  0.31850000  0.92290000  0.28310000  1
  H  H20  1  0.34980000  0.79830000  0.37800000  1
  H  H21  1  0.37770000  0.87260000  0.51440000  1
  H  H22  1  0.39410000  0.03560000  0.43800000  1
  H  H23  1  0.42490000  0.02300000  0.18610000  1
  H  H24  1  0.44380000  0.24360000  0.08170000  1
  H  H25  1  0.47140000  0.68880000  0.62430000  1
  H  H26  1  0.52860000  0.31120000  0.37570000  1
  H  H27  1  0.55620000  0.75640000  0.91830000  1
  H  H28  1  0.57510000  0.97700000  0.81390000  1
  H  H29  1  0.60590000  0.96440000  0.56200000  1
  H  H30  1  0.62230000  0.12740000  0.48560000  1
  H  H31  1  0.65020000  0.20170000  0.62200000  1
  H  H32  1  0.68150000  0.07710000  0.71690000  1
  H  H33  1  0.68710000  0.83380000  0.66030000  1
  H  H34  1  0.81290000  0.83380000  0.16030000  1
  H  H35  1  0.81850000  0.07710000  0.21690000  1
  H  H36  1  0.84980000  0.20170000  0.12200000  1
  H  H37  1  0.87770000  0.12740000  0.98560000  1
  H  H38  1  0.89410000  0.96440000  0.06200000  1
  H  H39  1  0.92490000  0.97700000  0.31390000  1
  H  H40  1  0.94380000  0.75640000  0.41830000  1
  H  H41  1  0.97140000  0.31120000  0.87570000  1
  C  C42  1  0.00120000  0.73840000  0.73306000  1
  C  C43  1  0.00530000  0.95800000  0.18393000  1
  C  C44  1  0.01370000  0.58410000  0.83363000  1
  C  C45  1  0.02970000  0.79020000  0.54455000  1
  C  C46  1  0.03150000  0.78960000  0.88606000  1
  C  C47  1  0.05080000  0.11800000  0.08340000  1
  C  C48  1  0.05170000  0.77070000  0.14162000  1
  C  C49  1  0.05990000  0.93390000  0.78858000  1
  C  C50  1  0.06040000  0.15670000  0.23044000  1
  C  C51  1  0.06730000  0.31590000  0.13221000  1
  C  C52  1  0.06770000  0.10510000  0.42292000  1
  C  C53  1  0.12870000  0.95240000  0.03405000  1
  C  C54  1  0.13110000  0.24730000  0.73495000  1
  C  C55  1  0.15160000  0.44470000  0.63847000  1
  C  C56  1  0.17530000  0.23540000  0.58953000  1
  C  C57  1  0.18450000  0.93880000  0.17533000  1
  C  C58  1  0.19610000  0.03310000  0.69267000  1
  C  C59  1  0.22500000  0.13080000  0.07005000  1
  C  C60  1  0.24190000  0.14230000  0.21984000  1
  C  C61  1  0.24500000  0.32680000  0.12055000  1
  C  C62  1  0.25500000  0.32680000  0.62055000  1
  C  C63  1  0.25810000  0.14230000  0.71984000  1
  C  C64  1  0.27500000  0.13080000  0.57005000  1
  C  C65  1  0.30390000  0.03310000  0.19267000  1
  C  C66  1  0.31550000  0.93880000  0.67533000  1
  C  C67  1  0.32470000  0.23540000  0.08953000  1
  C  C68  1  0.34840000  0.44470000  0.13847000  1
  C  C69  1  0.36890000  0.24730000  0.23495000  1
  C  C70  1  0.37130000  0.95240000  0.53405000  1
  C  C71  1  0.43230000  0.10510000  0.92292000  1
  C  C72  1  0.43270000  0.31590000  0.63221000  1
  C  C73  1  0.43960000  0.15670000  0.73044000  1
  C  C74  1  0.44010000  0.93390000  0.28858000  1
  C  C75  1  0.44830000  0.77070000  0.64162000  1
  C  C76  1  0.44920000  0.11800000  0.58340000  1
  C  C77  1  0.46850000  0.78960000  0.38606000  1
  C  C78  1  0.47030000  0.79020000  0.04455000  1
  C  C79  1  0.48630000  0.58410000  0.33363000  1
  C  C80  1  0.49470000  0.95800000  0.68393000  1
  C  C81  1  0.49880000  0.73840000  0.23306000  1
  C  C82  1  0.50120000  0.26160000  0.76694000  1
  C  C83  1  0.50530000  0.04200000  0.31607000  1
  C  C84  1  0.51370000  0.41590000  0.66637000  1
  C  C85  1  0.52970000  0.20980000  0.95545000  1
  C  C86  1  0.53150000  0.21040000  0.61394000  1
  C  C87  1  0.55080000  0.88200000  0.41660000  1
  C  C88  1  0.55170000  0.22930000  0.35838000  1
  C  C89  1  0.55990000  0.06610000  0.71142000  1
  C  C90  1  0.56040000  0.84330000  0.26956000  1
  C  C91  1  0.56730000  0.68410000  0.36779000  1
  C  C92  1  0.56770000  0.89490000  0.07708000  1
  C  C93  1  0.62870000  0.04760000  0.46595000  1
  C  C94  1  0.63110000  0.75270000  0.76505000  1
  C  C95  1  0.65160000  0.55530000  0.86153000  1
  C  C96  1  0.67530000  0.76460000  0.91047000  1
  C  C97  1  0.68450000  0.06120000  0.32467000  1
  C  C98  1  0.69610000  0.96690000  0.80733000  1
  C  C99  1  0.72500000  0.86920000  0.42995000  1
  C  C100  1  0.74190000  0.85770000  0.28016000  1
  C  C101  1  0.74500000  0.67320000  0.37945000  1
  C  C102  1  0.75500000  0.67320000  0.87945000  1
  C  C103  1  0.75810000  0.85770000  0.78016000  1
  C  C104  1  0.77500000  0.86920000  0.92995000  1
  C  C105  1  0.80390000  0.96690000  0.30733000  1
  C  C106  1  0.81550000  0.06120000  0.82467000  1
  C  C107  1  0.82470000  0.76460000  0.41047000  1
  C  C108  1  0.84840000  0.55530000  0.36153000  1
  C  C109  1  0.86890000  0.75270000  0.26505000  1
  C  C110  1  0.87130000  0.04760000  0.96595000  1
  C  C111  1  0.93230000  0.89490000  0.57708000  1
  C  C112  1  0.93270000  0.68410000  0.86779000  1
  C  C113  1  0.93960000  0.84330000  0.76956000  1
  C  C114  1  0.94010000  0.06610000  0.21142000  1
  C  C115  1  0.94830000  0.22930000  0.85838000  1
  C  C116  1  0.94920000  0.88200000  0.91660000  1
  C  C117  1  0.96850000  0.21040000  0.11394000  1
  C  C118  1  0.97030000  0.20980000  0.45545000  1
  C  C119  1  0.98630000  0.41590000  0.16637000  1
  C  C120  1  0.99470000  0.04200000  0.81607000  1
  C  C121  1  0.99880000  0.26160000  0.26694000  1
  N  N122  1  0.00310000  0.99930000  0.93995000  1
  N  N123  1  0.07410000  0.15070000  0.83851000  1
  N  N124  1  0.21030000  0.81900000  0.14863000  1
  N  N125  1  0.23170000  0.02610000  0.53830000  1
  N  N126  1  0.26830000  0.02610000  0.03830000  1
  N  N127  1  0.28970000  0.81900000  0.64863000  1
  N  N128  1  0.42590000  0.15070000  0.33851000  1
  N  N129  1  0.49690000  0.99930000  0.43995000  1
  N  N130  1  0.50310000  0.00070000  0.56005000  1
  N  N131  1  0.57410000  0.84930000  0.66149000  1
  N  N132  1  0.71030000  0.18100000  0.35137000  1
  N  N133  1  0.73170000  0.97390000  0.96170000  1
  N  N134  1  0.76830000  0.97390000  0.46170000  1
  N  N135  1  0.78970000  0.18100000  0.85137000  1
  N  N136  1  0.92590000  0.84930000  0.16149000  1
  N  N137  1  0.99690000  0.00070000  0.06005000  1
  O  O138  1  0.02900000  0.43370000  0.66508000  1
  O  O139  1  0.03060000  0.77440000  0.26897000  1
  O  O140  1  0.03560000  0.80340000  0.50415000  1
  O  O141  1  0.03960000  0.24700000  0.30515000  1
  O  O142  1  0.08030000  0.12250000  0.38358000  1
  O  O143  1  0.08570000  0.49150000  0.19081000  1
  O  O144  1  0.08930000  0.64320000  0.74298000  1
  O  O145  1  0.09480000  0.69960000  0.56108000  1
  O  O146  1  0.12980000  0.01040000  0.43901000  1
  O  O147  1  0.17800000  0.58240000  0.83088000  1
  O  O148  1  0.18560000  0.36170000  0.74943000  1
  O  O149  1  0.18650000  0.54490000  0.62256000  1
  O  O150  1  0.31350000  0.54490000  0.12256000  1
  O  O151  1  0.31440000  0.36170000  0.24943000  1
  O  O152  1  0.32200000  0.58240000  0.33088000  1
  O  O153  1  0.37020000  0.01040000  0.93901000  1
  O  O154  1  0.40520000  0.69960000  0.06108000  1
  O  O155  1  0.41070000  0.64320000  0.24298000  1
  O  O156  1  0.41430000  0.49150000  0.69081000  1
  O  O157  1  0.41970000  0.12250000  0.88358000  1
  O  O158  1  0.46040000  0.24700000  0.80515000  1
  O  O159  1  0.46440000  0.80340000  0.00415000  1
  O  O160  1  0.46940000  0.77440000  0.76897000  1
  O  O161  1  0.47100000  0.43370000  0.16508000  1
  O  O162  1  0.52900000  0.56630000  0.83492000  1
  O  O163  1  0.53060000  0.22560000  0.23103000  1
  O  O164  1  0.53560000  0.19660000  0.99585000  1
  O  O165  1  0.53960000  0.75300000  0.19485000  1
  O  O166  1  0.58030000  0.87750000  0.11642000  1
  O  O167  1  0.58570000  0.50850000  0.30919000  1
  O  O168  1  0.58930000  0.35680000  0.75702000  1
  O  O169  1  0.59480000  0.30040000  0.93892000  1
  O  O170  1  0.62980000  0.98960000  0.06099000  1
  O  O171  1  0.67800000  0.41760000  0.66912000  1
  O  O172  1  0.68560000  0.63830000  0.75057000  1
  O  O173  1  0.68650000  0.45510000  0.87744000  1
  O  O174  1  0.81350000  0.45510000  0.37744000  1
  O  O175  1  0.81440000  0.63830000  0.25057000  1
  O  O176  1  0.82200000  0.41760000  0.16912000  1
  O  O177  1  0.87020000  0.98960000  0.56099000  1
  O  O178  1  0.90520000  0.30040000  0.43892000  1
  O  O179  1  0.91070000  0.35680000  0.25702000  1
  O  O180  1  0.91430000  0.50850000  0.80919000  1
  O  O181  1  0.91970000  0.87750000  0.61642000  1
  O  O182  1  0.96040000  0.75300000  0.69485000  1
  O  O183  1  0.96440000  0.19660000  0.49585000  1
  O  O184  1  0.96940000  0.22560000  0.73103000  1
  O  O185  1  0.97100000  0.56630000  0.33492000  1
