# generated using pymatgen
data_ZnH18C26N4O5
_symmetry_space_group_name_H-M   'P 1'
_cell_length_a   18.38630000
_cell_length_b   18.38630000
_cell_length_c   33.58583210
_cell_angle_alpha   105.88608989
_cell_angle_beta   105.88559296
_cell_angle_gamma   89.99990000
_symmetry_Int_Tables_number   1
_chemical_formula_structural   ZnH18C26N4O5
_chemical_formula_sum   'Zn16 H288 C416 N64 O80'
_cell_volume   10468.71593687
_cell_formula_units_Z   16
loop_
 _symmetry_equiv_pos_site_id
 _symmetry_equiv_pos_as_xyz
  1  'x, y, z'
loop_
 _atom_site_type_symbol
 _atom_site_label
 _atom_site_symmetry_multiplicity
 _atom_site_fract_x
 _atom_site_fract_y
 _atom_site_fract_z
 _atom_site_occupancy
  Zn  Zn0  1  0.09459000  0.07756000  0.36540000  1
  Zn  Zn1  1  0.78784000  0.09459000  0.86540000  1
  Zn  Zn2  1  0.72919000  0.21216000  0.63460000  1
  Zn  Zn3  1  0.71216000  0.22919000  0.13460000  1
  Zn  Zn4  1  0.07756000  0.27081000  0.86540000  1
  Zn  Zn5  1  0.59459000  0.28784000  0.36540000  1
  Zn  Zn6  1  0.42244000  0.40541000  0.13460000  1
  Zn  Zn7  1  0.22919000  0.42244000  0.63460000  1
  Zn  Zn8  1  0.77081000  0.57756000  0.36540000  1
  Zn  Zn9  1  0.57756000  0.59459000  0.86540000  1
  Zn  Zn10  1  0.40541000  0.71216000  0.63460000  1
  Zn  Zn11  1  0.92244000  0.72919000  0.13460000  1
  Zn  Zn12  1  0.28784000  0.77081000  0.86540000  1
  Zn  Zn13  1  0.27081000  0.78784000  0.36540000  1
  Zn  Zn14  1  0.21216000  0.90541000  0.13460000  1
  Zn  Zn15  1  0.90541000  0.92244000  0.63460000  1
  H  H16  1  0.47800000  0.00110000  0.42380000  1
  H  H17  1  0.19670000  0.00400000  0.23520000  1
  H  H18  1  0.24480000  0.01270000  0.83060000  1
  H  H19  1  0.03190000  0.01400000  0.19140000  1
  H  H20  1  0.84490000  0.01460000  0.47140000  1
  H  H21  1  0.49890000  0.02200000  0.07620000  1
  H  H22  1  0.18200000  0.02360000  0.60260000  1
  H  H23  1  0.60800000  0.03080000  0.91420000  1
  H  H24  1  0.57030000  0.03140000  0.24040000  1
  H  H25  1  0.82400000  0.03150000  0.70360000  1
  H  H26  1  0.67740000  0.03190000  0.69140000  1
  H  H27  1  0.89250000  0.03700000  0.28480000  1
  H  H28  1  0.00400000  0.03850000  0.73520000  1
  H  H29  1  0.26650000  0.04280000  0.38600000  1
  H  H30  1  0.37350000  0.04320000  0.52860000  1
  H  H31  1  0.34860000  0.04610000  0.45880000  1
  H  H32  1  0.99890000  0.05420000  0.07620000  1
  H  H33  1  0.53140000  0.07030000  0.74040000  1
  H  H34  1  0.37830000  0.07110000  0.29800000  1
  H  H35  1  0.05420000  0.07730000  0.57620000  1
  H  H36  1  0.41050000  0.07760000  0.69800000  1
  H  H37  1  0.42060000  0.07900000  0.60260000  1
  H  H38  1  0.42100000  0.07940000  0.89740000  1
  H  H39  1  0.92890000  0.08030000  0.20200000  1
  H  H40  1  0.81790000  0.08580000  0.33060000  1
  H  H41  1  0.88980000  0.08730000  0.54120000  1
  H  H42  1  0.42240000  0.08950000  0.80200000  1
  H  H43  1  0.25220000  0.10750000  0.21520000  1
  H  H44  1  0.75220000  0.10770000  0.21520000  1
  H  H45  1  0.53080000  0.10800000  0.41420000  1
  H  H46  1  0.04610000  0.11020000  0.95880000  1
  H  H47  1  0.89200000  0.11660000  0.08580000  1
  H  H48  1  0.65150000  0.11850000  0.38880000  1
  H  H49  1  0.04280000  0.11950000  0.88600000  1
  H  H50  1  0.28750000  0.12040000  0.69800000  1
  H  H51  1  0.96850000  0.12040000  0.79640000  1
  H  H52  1  0.63060000  0.12130000  0.80780000  1
  H  H53  1  0.42890000  0.12170000  0.20200000  1
  H  H54  1  0.45680000  0.12650000  0.97140000  1
  H  H55  1  0.62130000  0.13060000  0.30780000  1
  H  H56  1  0.15840000  0.13080000  0.46860000  1
  H  H57  1  0.45390000  0.15140000  0.04120000  1
  H  H58  1  0.61850000  0.15150000  0.88880000  1
  H  H59  1  0.04320000  0.15510000  0.02860000  1
  H  H60  1  0.88050000  0.15680000  0.61400000  1
  H  H61  1  0.83780000  0.15840000  0.96860000  1
  H  H62  1  0.01400000  0.15950000  0.69140000  1
  H  H63  1  0.68270000  0.16200000  0.46320000  1
  H  H64  1  0.68980000  0.16220000  0.53140000  1
  H  H65  1  0.20900000  0.17010000  0.74040000  1
  H  H66  1  0.87960000  0.17210000  0.70360000  1
  H  H67  1  0.82790000  0.17600000  0.79640000  1
  H  H68  1  0.12130000  0.17720000  0.30780000  1
  H  H69  1  0.53190000  0.17740000  0.19140000  1
  H  H70  1  0.07900000  0.18200000  0.10260000  1
  H  H71  1  0.25520000  0.18210000  0.16940000  1
  H  H72  1  0.66200000  0.18270000  0.96320000  1
  H  H73  1  0.17720000  0.18650000  0.80780000  1
  H  H74  1  0.66220000  0.18980000  0.03140000  1
  H  H75  1  0.11660000  0.19380000  0.58580000  1
  H  H76  1  0.73120000  0.19670000  0.73520000  1
  H  H77  1  0.21950000  0.19880000  0.53680000  1
  H  H78  1  0.07030000  0.20900000  0.24040000  1
  H  H79  1  0.37960000  0.21250000  0.80200000  1
  H  H80  1  0.83800000  0.21950000  0.03680000  1
  H  H81  1  0.87830000  0.22690000  0.29800000  1
  H  H82  1  0.26270000  0.22970000  0.61120000  1
  H  H83  1  0.69670000  0.23120000  0.23520000  1
  H  H84  1  0.45720000  0.23350000  0.11400000  1
  H  H85  1  0.27030000  0.23730000  0.88880000  1
  H  H86  1  0.31790000  0.24480000  0.33060000  1
  H  H87  1  0.39250000  0.24780000  0.28480000  1
  H  H88  1  0.60770000  0.25220000  0.71520000  1
  H  H89  1  0.48730000  0.25520000  0.66940000  1
  H  H90  1  0.88150000  0.26270000  0.11120000  1
  H  H91  1  0.84320000  0.26650000  0.88600000  1
  H  H92  1  0.96150000  0.26880000  0.76480000  1
  H  H93  1  0.15150000  0.27030000  0.38880000  1
  H  H94  1  0.08030000  0.27310000  0.70200000  1
  H  H95  1  0.30120000  0.28050000  0.96320000  1
  H  H96  1  0.07760000  0.28750000  0.19800000  1
  H  H97  1  0.32990000  0.29100000  0.75960000  1
  H  H98  1  0.18270000  0.30120000  0.46320000  1
  H  H99  1  0.49600000  0.30330000  0.26480000  1
  H  H100  1  0.03080000  0.30620000  0.41420000  1
  H  H101  1  0.13080000  0.31020000  0.96860000  1
  H  H102  1  0.86940000  0.31350000  0.19220000  1
  H  H103  1  0.19880000  0.31730000  0.03680000  1
  H  H104  1  0.58580000  0.31790000  0.83060000  1
  H  H105  1  0.47640000  0.31800000  0.89740000  1
  H  H106  1  0.84050000  0.32260000  0.80860000  1
  H  H107  1  0.31350000  0.32280000  0.69220000  1
  H  H108  1  0.53150000  0.32400000  0.20360000  1
  H  H109  1  0.67600000  0.32790000  0.29640000  1
  H  H110  1  0.96860000  0.32990000  0.25960000  1
  H  H111  1  0.65840000  0.33780000  0.46860000  1
  H  H112  1  0.71950000  0.33800000  0.53680000  1
  H  H113  1  0.82260000  0.34050000  0.30860000  1
  H  H114  1  0.36920000  0.34160000  0.03140000  1
  H  H115  1  0.76650000  0.34320000  0.38600000  1
  H  H116  1  0.51460000  0.34490000  0.97140000  1
  H  H117  1  0.22970000  0.34850000  0.11120000  1
  H  H118  1  0.91270000  0.34860000  0.95880000  1
  H  H119  1  0.18980000  0.36920000  0.53140000  1
  H  H120  1  0.81350000  0.36940000  0.69220000  1
  H  H121  1  0.98540000  0.37350000  0.02860000  1
  H  H122  1  0.72690000  0.37830000  0.79800000  1
  H  H123  1  0.32280000  0.37870000  0.19220000  1
  H  H124  1  0.08950000  0.37960000  0.30200000  1
  H  H125  1  0.67210000  0.37960000  0.20360000  1
  H  H126  1  0.65680000  0.38050000  0.11400000  1
  H  H127  1  0.76270000  0.38150000  0.61120000  1
  H  H128  1  0.30620000  0.38340000  0.91420000  1
  H  H129  1  0.58730000  0.38980000  0.04120000  1
  H  H130  1  0.61660000  0.39200000  0.58580000  1
  H  H131  1  0.03700000  0.39230000  0.78480000  1
  H  H132  1  0.53700000  0.39250000  0.78480000  1
  H  H133  1  0.12040000  0.41050000  0.19800000  1
  H  H134  1  0.84860000  0.41270000  0.45880000  1
  H  H135  1  0.98730000  0.41420000  0.66940000  1
  H  H136  1  0.22690000  0.41970000  0.79800000  1
  H  H137  1  0.02360000  0.42060000  0.10260000  1
  H  H138  1  0.31800000  0.42100000  0.39740000  1
  H  H139  1  0.21250000  0.42240000  0.30200000  1
  H  H140  1  0.97800000  0.42270000  0.42380000  1
  H  H141  1  0.58030000  0.42890000  0.70200000  1
  H  H142  1  0.29100000  0.42970000  0.25960000  1
  H  H143  1  0.42270000  0.44580000  0.92380000  1
  H  H144  1  0.38980000  0.45390000  0.54120000  1
  H  H145  1  0.34490000  0.45680000  0.47140000  1
  H  H146  1  0.38050000  0.45720000  0.61400000  1
  H  H147  1  0.76880000  0.46150000  0.26480000  1
  H  H148  1  0.10770000  0.46300000  0.71520000  1
  H  H149  1  0.48600000  0.46810000  0.30860000  1
  H  H150  1  0.62040000  0.46850000  0.29640000  1
  H  H151  1  0.82990000  0.46860000  0.75960000  1
  H  H152  1  0.19380000  0.46920000  0.08580000  1
  H  H153  1  0.07940000  0.47640000  0.39740000  1
  H  H154  1  0.92270000  0.47800000  0.92380000  1
  H  H155  1  0.87350000  0.48540000  0.52860000  1
  H  H156  1  0.34050000  0.48600000  0.80860000  1
  H  H157  1  0.91420000  0.48730000  0.16940000  1
  H  H158  1  0.46150000  0.49600000  0.76480000  1
  H  H159  1  0.55420000  0.49890000  0.57620000  1
  H  H160  1  0.44580000  0.50110000  0.42380000  1
  H  H161  1  0.53850000  0.50400000  0.23520000  1
  H  H162  1  0.08580000  0.51270000  0.83060000  1
  H  H163  1  0.65950000  0.51400000  0.19140000  1
  H  H164  1  0.12650000  0.51460000  0.47140000  1
  H  H165  1  0.07730000  0.52200000  0.07620000  1
  H  H166  1  0.92060000  0.52360000  0.60260000  1
  H  H167  1  0.80620000  0.53080000  0.91420000  1
  H  H168  1  0.17010000  0.53140000  0.24040000  1
  H  H169  1  0.37960000  0.53150000  0.70360000  1
  H  H170  1  0.51400000  0.53190000  0.69140000  1
  H  H171  1  0.89230000  0.53700000  0.28480000  1
  H  H172  1  0.23120000  0.53850000  0.73520000  1
  H  H173  1  0.61950000  0.54280000  0.38600000  1
  H  H174  1  0.65510000  0.54320000  0.52860000  1
  H  H175  1  0.61020000  0.54610000  0.45880000  1
  H  H176  1  0.57730000  0.55420000  0.07620000  1
  H  H177  1  0.70900000  0.57030000  0.74040000  1
  H  H178  1  0.41970000  0.57110000  0.29800000  1
  H  H179  1  0.02200000  0.57730000  0.57620000  1
  H  H180  1  0.78750000  0.57760000  0.69800000  1
  H  H181  1  0.68200000  0.57900000  0.60260000  1
  H  H182  1  0.97640000  0.57940000  0.89740000  1
  H  H183  1  0.77310000  0.58030000  0.20200000  1
  H  H184  1  0.01270000  0.58580000  0.33060000  1
  H  H185  1  0.15140000  0.58730000  0.54120000  1
  H  H186  1  0.87960000  0.58950000  0.80200000  1
  H  H187  1  0.46300000  0.60750000  0.21520000  1
  H  H188  1  0.96300000  0.60770000  0.21520000  1
  H  H189  1  0.38340000  0.60800000  0.41420000  1
  H  H190  1  0.41270000  0.61020000  0.95880000  1
  H  H191  1  0.69380000  0.61660000  0.08580000  1
  H  H192  1  0.23730000  0.61850000  0.38880000  1
  H  H193  1  0.34320000  0.61950000  0.88600000  1
  H  H194  1  0.32790000  0.62040000  0.79640000  1
  H  H195  1  0.91050000  0.62040000  0.69800000  1
  H  H196  1  0.67720000  0.62130000  0.80780000  1
  H  H197  1  0.27310000  0.62170000  0.20200000  1
  H  H198  1  0.01460000  0.62650000  0.97140000  1
  H  H199  1  0.18650000  0.63060000  0.30780000  1
  H  H200  1  0.81020000  0.63080000  0.46860000  1
  H  H201  1  0.08730000  0.65140000  0.04120000  1
  H  H202  1  0.77030000  0.65150000  0.88880000  1
  H  H203  1  0.48540000  0.65510000  0.02860000  1
  H  H204  1  0.23350000  0.65680000  0.61400000  1
  H  H205  1  0.63080000  0.65840000  0.96860000  1
  H  H206  1  0.17740000  0.65950000  0.69140000  1
  H  H207  1  0.28050000  0.66200000  0.46320000  1
  H  H208  1  0.34160000  0.66220000  0.53140000  1
  H  H209  1  0.03140000  0.67010000  0.74040000  1
  H  H210  1  0.32400000  0.67210000  0.70360000  1
  H  H211  1  0.46850000  0.67600000  0.79640000  1
  H  H212  1  0.68650000  0.67720000  0.30780000  1
  H  H213  1  0.15950000  0.67740000  0.19140000  1
  H  H214  1  0.52360000  0.68200000  0.10260000  1
  H  H215  1  0.41420000  0.68210000  0.16940000  1
  H  H216  1  0.80120000  0.68270000  0.96320000  1
  H  H217  1  0.13060000  0.68650000  0.80780000  1
  H  H218  1  0.86920000  0.68980000  0.03140000  1
  H  H219  1  0.96920000  0.69380000  0.58580000  1
  H  H220  1  0.50400000  0.69670000  0.73520000  1
  H  H221  1  0.81730000  0.69880000  0.53680000  1
  H  H222  1  0.67010000  0.70900000  0.24040000  1
  H  H223  1  0.92240000  0.71250000  0.80200000  1
  H  H224  1  0.69880000  0.71950000  0.03680000  1
  H  H225  1  0.91970000  0.72690000  0.29800000  1
  H  H226  1  0.84850000  0.72970000  0.61120000  1
  H  H227  1  0.03850000  0.73120000  0.23520000  1
  H  H228  1  0.15680000  0.73350000  0.11400000  1
  H  H229  1  0.11850000  0.73730000  0.88880000  1
  H  H230  1  0.51270000  0.74480000  0.33060000  1
  H  H231  1  0.39230000  0.74780000  0.28480000  1
  H  H232  1  0.60750000  0.75220000  0.71520000  1
  H  H233  1  0.68210000  0.75520000  0.66940000  1
  H  H234  1  0.72970000  0.76270000  0.11120000  1
  H  H235  1  0.54280000  0.76650000  0.88600000  1
  H  H236  1  0.30330000  0.76880000  0.76480000  1
  H  H237  1  0.73730000  0.77030000  0.38880000  1
  H  H238  1  0.12170000  0.77310000  0.70200000  1
  H  H239  1  0.16200000  0.78050000  0.96320000  1
  H  H240  1  0.62040000  0.78750000  0.19800000  1
  H  H241  1  0.92970000  0.79100000  0.75960000  1
  H  H242  1  0.78050000  0.80120000  0.46320000  1
  H  H243  1  0.26880000  0.80330000  0.26480000  1
  H  H244  1  0.88340000  0.80620000  0.41420000  1
  H  H245  1  0.33780000  0.81020000  0.96860000  1
  H  H246  1  0.82280000  0.81350000  0.19220000  1
  H  H247  1  0.33800000  0.81730000  0.03680000  1
  H  H248  1  0.74480000  0.81790000  0.83060000  1
  H  H249  1  0.92100000  0.81800000  0.89740000  1
  H  H250  1  0.46810000  0.82260000  0.80860000  1
  H  H251  1  0.87870000  0.82280000  0.69220000  1
  H  H252  1  0.17210000  0.82400000  0.20360000  1
  H  H253  1  0.12040000  0.82790000  0.29640000  1
  H  H254  1  0.79100000  0.82990000  0.25960000  1
  H  H255  1  0.31020000  0.83780000  0.46860000  1
  H  H256  1  0.31730000  0.83800000  0.53680000  1
  H  H257  1  0.98600000  0.84050000  0.30860000  1
  H  H258  1  0.16220000  0.84160000  0.03140000  1
  H  H259  1  0.11950000  0.84320000  0.38600000  1
  H  H260  1  0.95680000  0.84490000  0.97140000  1
  H  H261  1  0.38150000  0.84850000  0.11120000  1
  H  H262  1  0.54610000  0.84860000  0.95880000  1
  H  H263  1  0.84160000  0.86920000  0.53140000  1
  H  H264  1  0.37870000  0.86940000  0.69220000  1
  H  H265  1  0.54320000  0.87350000  0.02860000  1
  H  H266  1  0.57110000  0.87830000  0.79800000  1
  H  H267  1  0.36940000  0.87870000  0.19220000  1
  H  H268  1  0.03150000  0.87960000  0.20360000  1
  H  H269  1  0.71250000  0.87960000  0.30200000  1
  H  H270  1  0.95720000  0.88050000  0.11400000  1
  H  H271  1  0.34850000  0.88150000  0.61120000  1
  H  H272  1  0.10800000  0.88340000  0.91420000  1
  H  H273  1  0.95390000  0.88980000  0.04120000  1
  H  H274  1  0.46920000  0.89200000  0.58580000  1
  H  H275  1  0.24780000  0.89230000  0.78480000  1
  H  H276  1  0.74780000  0.89250000  0.78480000  1
  H  H277  1  0.57760000  0.91050000  0.19800000  1
  H  H278  1  0.11020000  0.91270000  0.45880000  1
  H  H279  1  0.18210000  0.91420000  0.66940000  1
  H  H280  1  0.07110000  0.91970000  0.79800000  1
  H  H281  1  0.57900000  0.92060000  0.10260000  1
  H  H282  1  0.57940000  0.92100000  0.39740000  1
  H  H283  1  0.58950000  0.92240000  0.30200000  1
  H  H284  1  0.94580000  0.92270000  0.42380000  1
  H  H285  1  0.62170000  0.92890000  0.70200000  1
  H  H286  1  0.46860000  0.92970000  0.25960000  1
  H  H287  1  0.00110000  0.94580000  0.92380000  1
  H  H288  1  0.65140000  0.95390000  0.54120000  1
  H  H289  1  0.62650000  0.95680000  0.47140000  1
  H  H290  1  0.73350000  0.95720000  0.61400000  1
  H  H291  1  0.99600000  0.96150000  0.26480000  1
  H  H292  1  0.10750000  0.96300000  0.71520000  1
  H  H293  1  0.32260000  0.96810000  0.30860000  1
  H  H294  1  0.17600000  0.96850000  0.29640000  1
  H  H295  1  0.42970000  0.96860000  0.75960000  1
  H  H296  1  0.39200000  0.96920000  0.08580000  1
  H  H297  1  0.81800000  0.97640000  0.39740000  1
  H  H298  1  0.50110000  0.97800000  0.92380000  1
  H  H299  1  0.15510000  0.98540000  0.52860000  1
  H  H300  1  0.96810000  0.98600000  0.80860000  1
  H  H301  1  0.75520000  0.98730000  0.16940000  1
  H  H302  1  0.80330000  0.99600000  0.76480000  1
  H  H303  1  0.52200000  0.99890000  0.57620000  1
  C  C304  1  0.33513000  0.00233000  0.15206000  1
  C  C305  1  0.28165000  0.00345000  0.81510000  1
  C  C306  1  0.63413000  0.00413000  0.66986000  1
  C  C307  1  0.85608000  0.00458000  0.28836000  1
  C  C308  1  0.42133000  0.01123000  0.10766000  1
  C  C309  1  0.90479000  0.01239000  0.87298000  1
  C  C310  1  0.78959000  0.01349000  0.41078000  1
  C  C311  1  0.24089000  0.01359000  0.68098000  1
  C  C312  1  0.45677000  0.01547000  0.39814000  1
  C  C313  1  0.16681000  0.01611000  0.29082000  1
  C  C314  1  0.60970000  0.02210000  0.22680000  1
  C  C315  1  0.60564000  0.02684000  0.63308000  1
  C  C316  1  0.02684000  0.02744000  0.13308000  1
  C  C317  1  0.98761000  0.03181000  0.62702000  1
  C  C318  1  0.81165000  0.03345000  0.31510000  1
  C  C319  1  0.17882000  0.03532000  0.25764000  1
  C  C320  1  0.00413000  0.03573000  0.16986000  1
  C  C321  1  0.80606000  0.03656000  0.45432000  1
  C  C322  1  0.40100000  0.04010000  0.14480000  1
  C  C323  1  0.73244000  0.04304000  0.38608000  1
  C  C324  1  0.48453000  0.04323000  0.10186000  1
  C  C325  1  0.38723000  0.04893000  0.79866000  1
  C  C326  1  0.39834000  0.05734000  0.32388000  1
  C  C327  1  0.98453000  0.05863000  0.10186000  1
  C  C328  1  0.33261000  0.05991000  0.81902000  1
  C  C329  1  0.25308000  0.06018000  0.41216000  1
  C  C330  1  0.29945000  0.06385000  0.45230000  1
  C  C331  1  0.71622000  0.06772000  0.21164000  1
  C  C332  1  0.15268000  0.07108000  0.73316000  1
  C  C333  1  0.94266000  0.07446000  0.17612000  1
  C  C334  1  0.48877000  0.07867000  0.39234000  1
  C  C335  1  0.03532000  0.07882000  0.75764000  1
  C  C336  1  0.66208000  0.08048000  0.23316000  1
  C  C337  1  0.35174000  0.08224000  0.54568000  1
  C  C338  1  0.25027000  0.08857000  0.70134000  1
  C  C339  1  0.76614000  0.09244000  0.47408000  1
  C  C340  1  0.63941000  0.09521000  0.62702000  1
  C  C341  1  0.92133000  0.09643000  0.10766000  1
  C  C342  1  0.69178000  0.09828000  0.40596000  1
  C  C343  1  0.45990000  0.09900000  0.35520000  1
  C  C344  1  0.44266000  0.10166000  0.17612000  1
  C  C345  1  0.37881000  0.10271000  0.58922000  1
  C  C346  1  0.90100000  0.10470000  0.14480000  1
  C  C347  1  0.52684000  0.10564000  0.13308000  1
  C  C348  1  0.02744000  0.10624000  0.63308000  1
  C  C349  1  0.19672000  0.10762000  0.45664000  1
  C  C350  1  0.52210000  0.10970000  0.72680000  1
  C  C351  1  0.84715000  0.11155000  0.54770000  1
  C  C352  1  0.45107000  0.11277000  0.70134000  1
  C  C353  1  0.20470000  0.11710000  0.72680000  1
  C  C354  1  0.05863000  0.11733000  0.60186000  1
  C  C355  1  0.29206000  0.11836000  0.52592000  1
  C  C356  1  0.39729000  0.12119000  0.91078000  1
  C  C357  1  0.70955000  0.12325000  0.44970000  1
  C  C358  1  0.01611000  0.12401000  0.79082000  1
  C  C359  1  0.13750000  0.12850000  0.29720000  1
  C  C360  1  0.50413000  0.13413000  0.16986000  1
  C  C361  1  0.66870000  0.13750000  0.79720000  1
  C  C362  1  0.59521000  0.13941000  0.12702000  1
  C  C363  1  0.21622000  0.14392000  0.21164000  1
  C  C364  1  0.84092000  0.14802000  0.58784000  1
  C  C365  1  0.41776000  0.14826000  0.95432000  1
  C  C366  1  0.83513000  0.14973000  0.15206000  1
  C  C367  1  0.74008000  0.15098000  0.54336000  1
  C  C368  1  0.16208000  0.15268000  0.23316000  1
  C  C369  1  0.06385000  0.15285000  0.95230000  1
  C  C370  1  0.34304000  0.15364000  0.88608000  1
  C  C371  1  0.34636000  0.15696000  0.61392000  1
  C  C372  1  0.06018000  0.15908000  0.91216000  1
  C  C373  1  0.12850000  0.15970000  0.79720000  1
  C  C374  1  0.58048000  0.16208000  0.73316000  1
  C  C375  1  0.49767000  0.16487000  0.34794000  1
  C  C376  1  0.03573000  0.16573000  0.66986000  1
  C  C377  1  0.77471000  0.16681000  0.79082000  1
  C  C378  1  0.44009000  0.16739000  0.68098000  1
  C  C379  1  0.63750000  0.16870000  0.29720000  1
  C  C380  1  0.25985000  0.17355000  0.55030000  1
  C  C381  1  0.72232000  0.17882000  0.75764000  1
  C  C382  1  0.99767000  0.18307000  0.34794000  1
  C  C383  1  0.09643000  0.18633000  0.60766000  1
  C  C384  1  0.21835000  0.18835000  0.18490000  1
  C  C385  1  0.59828000  0.19178000  0.90596000  1
  C  C386  1  0.28582000  0.19232000  0.59404000  1
  C  C387  1  0.08224000  0.19394000  0.04568000  1
  C  C388  1  0.84902000  0.19672000  0.95664000  1
  C  C389  1  0.43615000  0.20055000  0.04770000  1
  C  C390  1  0.10970000  0.20470000  0.22680000  1
  C  C391  1  0.38164000  0.20794000  0.97408000  1
  C  C392  1  0.62325000  0.20955000  0.94970000  1
  C  C393  1  0.10271000  0.21041000  0.08922000  1
  C  C394  1  0.30768000  0.21418000  0.90596000  1
  C  C395  1  0.56772000  0.21622000  0.71164000  1
  C  C396  1  0.49655000  0.21835000  0.68490000  1
  C  C397  1  0.67882000  0.22232000  0.25764000  1
  C  C398  1  0.87599000  0.22529000  0.70918000  1
  C  C399  1  0.54304000  0.23244000  0.88608000  1
  C  C400  1  0.07446000  0.23346000  0.67612000  1
  C  C401  1  0.11836000  0.23386000  0.02592000  1
  C  C402  1  0.65098000  0.24008000  0.04336000  1
  C  C403  1  0.32645000  0.24015000  0.94970000  1
  C  C404  1  0.16739000  0.24089000  0.18098000  1
  C  C405  1  0.10470000  0.24380000  0.64480000  1
  C  C406  1  0.43982000  0.24692000  0.08784000  1
  C  C407  1  0.41143000  0.24973000  0.79866000  1
  C  C408  1  0.11277000  0.25027000  0.20134000  1
  C  C409  1  0.85198000  0.25308000  0.91216000  1
  C  C410  1  0.95990000  0.25620000  0.35520000  1
  C  C411  1  0.48641000  0.25911000  0.81902000  1
  C  C412  1  0.87675000  0.25985000  0.05030000  1
  C  C413  1  0.10762000  0.25992000  0.95664000  1
  C  C414  1  0.59244000  0.26614000  0.97408000  1
  C  C415  1  0.89834000  0.26654000  0.32388000  1
  C  C416  1  0.15696000  0.26756000  0.11392000  1
  C  C417  1  0.66681000  0.27471000  0.29082000  1
  C  C418  1  0.92118000  0.27768000  0.74236000  1
  C  C419  1  0.31165000  0.28165000  0.31510000  1
  C  C420  1  0.35608000  0.28378000  0.28836000  1
  C  C421  1  0.90172000  0.28582000  0.09404000  1
  C  C422  1  0.51349000  0.28959000  0.91078000  1
  C  C423  1  0.17355000  0.29045000  0.05030000  1
  C  C424  1  0.90756000  0.29206000  0.02592000  1
  C  C425  1  0.38290000  0.29530000  0.77320000  1
  C  C426  1  0.88845000  0.29945000  0.95230000  1
  C  C427  1  0.39238000  0.30328000  0.04336000  1
  C  C428  1  0.53656000  0.30606000  0.95432000  1
  C  C429  1  0.19178000  0.30768000  0.40596000  1
  C  C430  1  0.19232000  0.30822000  0.09404000  1
  C  C431  1  0.53345000  0.31165000  0.81510000  1
  C  C432  1  0.98877000  0.31367000  0.39234000  1
  C  C433  1  0.14973000  0.31693000  0.65206000  1
  C  C434  1  0.46468000  0.32118000  0.24236000  1
  C  C435  1  0.20955000  0.32645000  0.44970000  1
  C  C436  1  0.84030000  0.33130000  0.70280000  1
  C  C437  1  0.25911000  0.33261000  0.31902000  1
  C  C438  1  0.48389000  0.33319000  0.20918000  1
  C  C439  1  0.86587000  0.33427000  0.33014000  1
  C  C440  1  0.64973000  0.33513000  0.65206000  1
  C  C441  1  0.34732000  0.33792000  0.26684000  1
  C  C442  1  0.83130000  0.34030000  0.20280000  1
  C  C443  1  0.64802000  0.34092000  0.08784000  1
  C  C444  1  0.23244000  0.34304000  0.38608000  1
  C  C445  1  0.95696000  0.34636000  0.11392000  1
  C  C446  1  0.61155000  0.34715000  0.04770000  1
  C  C447  1  0.42892000  0.34732000  0.76684000  1
  C  C448  1  0.69672000  0.34902000  0.45664000  1
  C  C449  1  0.18307000  0.35027000  0.84794000  1
  C  C450  1  0.96344000  0.35174000  0.04568000  1
  C  C451  1  0.75308000  0.35198000  0.41216000  1
  C  C452  1  0.50458000  0.35608000  0.78836000  1
  C  C453  1  0.96819000  0.36059000  0.87298000  1
  C  C454  1  0.37150000  0.36250000  0.20280000  1
  C  C455  1  0.83427000  0.36587000  0.83014000  1
  C  C456  1  0.34030000  0.37150000  0.70280000  1
  C  C457  1  0.72529000  0.37599000  0.20918000  1
  C  C458  1  0.75985000  0.37675000  0.55030000  1
  C  C459  1  0.98651000  0.37881000  0.08922000  1
  C  C460  1  0.26614000  0.38164000  0.47408000  1
  C  C461  1  0.95677000  0.38267000  0.39814000  1
  C  C462  1  0.97790000  0.38290000  0.27320000  1
  C  C463  1  0.24973000  0.38723000  0.29866000  1
  C  C464  1  0.79945000  0.38845000  0.45230000  1
  C  C465  1  0.29530000  0.39030000  0.27320000  1
  C  C466  1  0.24008000  0.39238000  0.54336000  1
  C  C467  1  0.89436000  0.39376000  0.36692000  1
  C  C468  1  0.89376000  0.39436000  0.86692000  1
  C  C469  1  0.25620000  0.39530000  0.85520000  1
  C  C470  1  0.28959000  0.39729000  0.41078000  1
  C  C471  1  0.76654000  0.39834000  0.82388000  1
  C  C472  1  0.60470000  0.40100000  0.64480000  1
  C  C473  1  0.78582000  0.40172000  0.59404000  1
  C  C474  1  0.31367000  0.40357000  0.89234000  1
  C  C475  1  0.51239000  0.40479000  0.37298000  1
  C  C476  1  0.79206000  0.40756000  0.52592000  1
  C  C477  1  0.04893000  0.41143000  0.29866000  1
  C  C478  1  0.30606000  0.41776000  0.45432000  1
  C  C479  1  0.92892000  0.41952000  0.76684000  1
  C  C480  1  0.77768000  0.42118000  0.24236000  1
  C  C481  1  0.59643000  0.42133000  0.60766000  1
  C  C482  1  0.26654000  0.42554000  0.82388000  1
  C  C483  1  0.91952000  0.42892000  0.26684000  1
  C  C484  1  0.00458000  0.43228000  0.78836000  1
  C  C485  1  0.34715000  0.43615000  0.54770000  1
  C  C486  1  0.34092000  0.43982000  0.58784000  1
  C  C487  1  0.01359000  0.44009000  0.18098000  1
  C  C488  1  0.38267000  0.44137000  0.89814000  1
  C  C489  1  0.57446000  0.44266000  0.67612000  1
  C  C490  1  0.08857000  0.45107000  0.20134000  1
  C  C491  1  0.88267000  0.45677000  0.89814000  1
  C  C492  1  0.84636000  0.45696000  0.61392000  1
  C  C493  1  0.75620000  0.45990000  0.85520000  1
  C  C494  1  0.85174000  0.46344000  0.54568000  1
  C  C495  1  0.33427000  0.46427000  0.83014000  1
  C  C496  1  0.42118000  0.46468000  0.74236000  1
  C  C497  1  0.99655000  0.46655000  0.68490000  1
  C  C498  1  0.86059000  0.46819000  0.37298000  1
  C  C499  1  0.39376000  0.47256000  0.86692000  1
  C  C500  1  0.47256000  0.47316000  0.36692000  1
  C  C501  1  0.88290000  0.47790000  0.77320000  1
  C  C502  1  0.37599000  0.48389000  0.70918000  1
  C  C503  1  0.55863000  0.48453000  0.60186000  1
  C  C504  1  0.05991000  0.48641000  0.31902000  1
  C  C505  1  0.87881000  0.48651000  0.58922000  1
  C  C506  1  0.53181000  0.48761000  0.12702000  1
  C  C507  1  0.81367000  0.48877000  0.89234000  1
  C  C508  1  0.06772000  0.49542000  0.71164000  1
  C  C509  1  0.46427000  0.49587000  0.33014000  1
  C  C510  1  0.96655000  0.49655000  0.18490000  1
  C  C511  1  0.68307000  0.49767000  0.84794000  1
  C  C512  1  0.31693000  0.50233000  0.15206000  1
  C  C513  1  0.03345000  0.50345000  0.81510000  1
  C  C514  1  0.53573000  0.50413000  0.66986000  1
  C  C515  1  0.93228000  0.50458000  0.28836000  1
  C  C516  1  0.18633000  0.51123000  0.10766000  1
  C  C517  1  0.46819000  0.51239000  0.87298000  1
  C  C518  1  0.12119000  0.51349000  0.41078000  1
  C  C519  1  0.94009000  0.51359000  0.68098000  1
  C  C520  1  0.44137000  0.51547000  0.39814000  1
  C  C521  1  0.62401000  0.51611000  0.29082000  1
  C  C522  1  0.11710000  0.52210000  0.22680000  1
  C  C523  1  0.52744000  0.52684000  0.63308000  1
  C  C524  1  0.60624000  0.52744000  0.13308000  1
  C  C525  1  0.13941000  0.53181000  0.62702000  1
  C  C526  1  0.00345000  0.53345000  0.31510000  1
  C  C527  1  0.57882000  0.53532000  0.25764000  1
  C  C528  1  0.66573000  0.53573000  0.16986000  1
  C  C529  1  0.14826000  0.53656000  0.45432000  1
  C  C530  1  0.24380000  0.54010000  0.14480000  1
  C  C531  1  0.15364000  0.54304000  0.38608000  1
  C  C532  1  0.11733000  0.54323000  0.10186000  1
  C  C533  1  0.91143000  0.54893000  0.79866000  1
  C  C534  1  0.42554000  0.55734000  0.32388000  1
  C  C535  1  0.61733000  0.55863000  0.10186000  1
  C  C536  1  0.98641000  0.55991000  0.81902000  1
  C  C537  1  0.65908000  0.56018000  0.41216000  1
  C  C538  1  0.65285000  0.56385000  0.45230000  1
  C  C539  1  0.99542000  0.56772000  0.21164000  1
  C  C540  1  0.08048000  0.57108000  0.73316000  1
  C  C541  1  0.73346000  0.57446000  0.17612000  1
  C  C542  1  0.40357000  0.57867000  0.39234000  1
  C  C543  1  0.22232000  0.57882000  0.75764000  1
  C  C544  1  0.07108000  0.58048000  0.23316000  1
  C  C545  1  0.69394000  0.58224000  0.54568000  1
  C  C546  1  0.95107000  0.58857000  0.70134000  1
  C  C547  1  0.20794000  0.59244000  0.47408000  1
  C  C548  1  0.48761000  0.59521000  0.62702000  1
  C  C549  1  0.68633000  0.59643000  0.10766000  1
  C  C550  1  0.21418000  0.59828000  0.40596000  1
  C  C551  1  0.39530000  0.59900000  0.35520000  1
  C  C552  1  0.23346000  0.60166000  0.17612000  1
  C  C553  1  0.71041000  0.60271000  0.58922000  1
  C  C554  1  0.74380000  0.60470000  0.14480000  1
  C  C555  1  0.10624000  0.60564000  0.13308000  1
  C  C556  1  0.10564000  0.60624000  0.63308000  1
  C  C557  1  0.75992000  0.60762000  0.45664000  1
  C  C558  1  0.70470000  0.60970000  0.72680000  1
  C  C559  1  0.20055000  0.61155000  0.54770000  1
  C  C560  1  0.75027000  0.61277000  0.70134000  1
  C  C561  1  0.02210000  0.61710000  0.72680000  1
  C  C562  1  0.04323000  0.61733000  0.60186000  1
  C  C563  1  0.73386000  0.61836000  0.52592000  1
  C  C564  1  0.01349000  0.62119000  0.91078000  1
  C  C565  1  0.24015000  0.62325000  0.44970000  1
  C  C566  1  0.27471000  0.62401000  0.79082000  1
  C  C567  1  0.65970000  0.62850000  0.29720000  1
  C  C568  1  0.16573000  0.63413000  0.16986000  1
  C  C569  1  0.62850000  0.63750000  0.79720000  1
  C  C570  1  0.03181000  0.63941000  0.12702000  1
  C  C571  1  0.49542000  0.64392000  0.21164000  1
  C  C572  1  0.24692000  0.64802000  0.58784000  1
  C  C573  1  0.03656000  0.64826000  0.95432000  1
  C  C574  1  0.81693000  0.64973000  0.15206000  1
  C  C575  1  0.30328000  0.65098000  0.54336000  1
  C  C576  1  0.57108000  0.65268000  0.23316000  1
  C  C577  1  0.38845000  0.65285000  0.95230000  1
  C  C578  1  0.04304000  0.65364000  0.88608000  1
  C  C579  1  0.76756000  0.65696000  0.61392000  1
  C  C580  1  0.35198000  0.65908000  0.91216000  1
  C  C581  1  0.16870000  0.65970000  0.79720000  1
  C  C582  1  0.65268000  0.66208000  0.73316000  1
  C  C583  1  0.35027000  0.66487000  0.34794000  1
  C  C584  1  0.13413000  0.66573000  0.66986000  1
  C  C585  1  0.51611000  0.66681000  0.79082000  1
  C  C586  1  0.74089000  0.66739000  0.68098000  1
  C  C587  1  0.15970000  0.66870000  0.29720000  1
  C  C588  1  0.79045000  0.67355000  0.55030000  1
  C  C589  1  0.53532000  0.67882000  0.75764000  1
  C  C590  1  0.85027000  0.68307000  0.34794000  1
  C  C591  1  0.01123000  0.68633000  0.60766000  1
  C  C592  1  0.46655000  0.68835000  0.18490000  1
  C  C593  1  0.80768000  0.69178000  0.90596000  1
  C  C594  1  0.80822000  0.69232000  0.59404000  1
  C  C595  1  0.46344000  0.69394000  0.04568000  1
  C  C596  1  0.60762000  0.69672000  0.95664000  1
  C  C597  1  0.11155000  0.70055000  0.04770000  1
  C  C598  1  0.61710000  0.70470000  0.22680000  1
  C  C599  1  0.09244000  0.70794000  0.97408000  1
  C  C600  1  0.82645000  0.70955000  0.94970000  1
  C  C601  1  0.48651000  0.71041000  0.08922000  1
  C  C602  1  0.09828000  0.71418000  0.90596000  1
  C  C603  1  0.64392000  0.71622000  0.71164000  1
  C  C604  1  0.68835000  0.71835000  0.68490000  1
  C  C605  1  0.07882000  0.72232000  0.25764000  1
  C  C606  1  0.33319000  0.72529000  0.70918000  1
  C  C607  1  0.84304000  0.73244000  0.88608000  1
  C  C608  1  0.10166000  0.73346000  0.67612000  1
  C  C609  1  0.40756000  0.73386000  0.02592000  1
  C  C610  1  0.89238000  0.74008000  0.04336000  1
  C  C611  1  0.12325000  0.74015000  0.94970000  1
  C  C612  1  0.51359000  0.74089000  0.18098000  1
  C  C613  1  0.04010000  0.74380000  0.64480000  1
  C  C614  1  0.14802000  0.74692000  0.08784000  1
  C  C615  1  0.88723000  0.74973000  0.79866000  1
  C  C616  1  0.58857000  0.75027000  0.20134000  1
  C  C617  1  0.56018000  0.75308000  0.91216000  1
  C  C618  1  0.89530000  0.75620000  0.35520000  1
  C  C619  1  0.83261000  0.75911000  0.81902000  1
  C  C620  1  0.67355000  0.75985000  0.05030000  1
  C  C621  1  0.34902000  0.75992000  0.95664000  1
  C  C622  1  0.88164000  0.76614000  0.97408000  1
  C  C623  1  0.92554000  0.76654000  0.32388000  1
  C  C624  1  0.45696000  0.76756000  0.11392000  1
  C  C625  1  0.12401000  0.77471000  0.29082000  1
  C  C626  1  0.32118000  0.77768000  0.74236000  1
  C  C627  1  0.50345000  0.78165000  0.31510000  1
  C  C628  1  0.43228000  0.78378000  0.28836000  1
  C  C629  1  0.69232000  0.78582000  0.09404000  1
  C  C630  1  0.89729000  0.78959000  0.91078000  1
  C  C631  1  0.37675000  0.79045000  0.05030000  1
  C  C632  1  0.61836000  0.79206000  0.02592000  1
  C  C633  1  0.89030000  0.79530000  0.77320000  1
  C  C634  1  0.56385000  0.79945000  0.95230000  1
  C  C635  1  0.15098000  0.80328000  0.04336000  1
  C  C636  1  0.91776000  0.80606000  0.95432000  1
  C  C637  1  0.71418000  0.80768000  0.40596000  1
  C  C638  1  0.40172000  0.80822000  0.09404000  1
  C  C639  1  0.78165000  0.81165000  0.81510000  1
  C  C640  1  0.90357000  0.81367000  0.39234000  1
  C  C641  1  0.00233000  0.81693000  0.65206000  1
  C  C642  1  0.27768000  0.82118000  0.24236000  1
  C  C643  1  0.74015000  0.82645000  0.44970000  1
  C  C644  1  0.36250000  0.83130000  0.70280000  1
  C  C645  1  0.55991000  0.83261000  0.31902000  1
  C  C646  1  0.22529000  0.83319000  0.20918000  1
  C  C647  1  0.96427000  0.83427000  0.33014000  1
  C  C648  1  0.50233000  0.83513000  0.65206000  1
  C  C649  1  0.41952000  0.83792000  0.26684000  1
  C  C650  1  0.87150000  0.84030000  0.20280000  1
  C  C651  1  0.93982000  0.84092000  0.08784000  1
  C  C652  1  0.65364000  0.84304000  0.38608000  1
  C  C653  1  0.65696000  0.84636000  0.11392000  1
  C  C654  1  0.93615000  0.84715000  0.04770000  1
  C  C655  1  0.83792000  0.84732000  0.76684000  1
  C  C656  1  0.25992000  0.84902000  0.45664000  1
  C  C657  1  0.16487000  0.85027000  0.84794000  1
  C  C658  1  0.58224000  0.85174000  0.04568000  1
  C  C659  1  0.15908000  0.85198000  0.41216000  1
  C  C660  1  0.78378000  0.85608000  0.78836000  1
  C  C661  1  0.40479000  0.86059000  0.87298000  1
  C  C662  1  0.33130000  0.86250000  0.20280000  1
  C  C663  1  0.49587000  0.86587000  0.83014000  1
  C  C664  1  0.86250000  0.87150000  0.70280000  1
  C  C665  1  0.98389000  0.87599000  0.20918000  1
  C  C666  1  0.29045000  0.87675000  0.55030000  1
  C  C667  1  0.60271000  0.87881000  0.08922000  1
  C  C668  1  0.70794000  0.88164000  0.47408000  1
  C  C669  1  0.94137000  0.88267000  0.39814000  1
  C  C670  1  0.79530000  0.88290000  0.27320000  1
  C  C671  1  0.54893000  0.88723000  0.29866000  1
  C  C672  1  0.15285000  0.88845000  0.45230000  1
  C  C673  1  0.47790000  0.89030000  0.27320000  1
  C  C674  1  0.80328000  0.89238000  0.54336000  1
  C  C675  1  0.97256000  0.89376000  0.36692000  1
  C  C676  1  0.47316000  0.89436000  0.86692000  1
  C  C677  1  0.09900000  0.89530000  0.85520000  1
  C  C678  1  0.62119000  0.89729000  0.41078000  1
  C  C679  1  0.55734000  0.89834000  0.82388000  1
  C  C680  1  0.54010000  0.90100000  0.64480000  1
  C  C681  1  0.30822000  0.90172000  0.59404000  1
  C  C682  1  0.07867000  0.90357000  0.89234000  1
  C  C683  1  0.36059000  0.90479000  0.37298000  1
  C  C684  1  0.23386000  0.90756000  0.52592000  1
  C  C685  1  0.74973000  0.91143000  0.29866000  1
  C  C686  1  0.64826000  0.91776000  0.45432000  1
  C  C687  1  0.33792000  0.91952000  0.76684000  1
  C  C688  1  0.96468000  0.92118000  0.24236000  1
  C  C689  1  0.51123000  0.92133000  0.60766000  1
  C  C690  1  0.05734000  0.92554000  0.82388000  1
  C  C691  1  0.84732000  0.92892000  0.26684000  1
  C  C692  1  0.28378000  0.93228000  0.78836000  1
  C  C693  1  0.70055000  0.93615000  0.54770000  1
  C  C694  1  0.74692000  0.93982000  0.58784000  1
  C  C695  1  0.66739000  0.94009000  0.18098000  1
  C  C696  1  0.01547000  0.94137000  0.89814000  1
  C  C697  1  0.60166000  0.94266000  0.67612000  1
  C  C698  1  0.61277000  0.95107000  0.20134000  1
  C  C699  1  0.51547000  0.95677000  0.89814000  1
  C  C700  1  0.26756000  0.95696000  0.61392000  1
  C  C701  1  0.59900000  0.95990000  0.85520000  1
  C  C702  1  0.19394000  0.96344000  0.54568000  1
  C  C703  1  0.99587000  0.96427000  0.83014000  1
  C  C704  1  0.82118000  0.96468000  0.74236000  1
  C  C705  1  0.18835000  0.96655000  0.68490000  1
  C  C706  1  0.01239000  0.96819000  0.37298000  1
  C  C707  1  0.97316000  0.97256000  0.86692000  1
  C  C708  1  0.39436000  0.97316000  0.36692000  1
  C  C709  1  0.39030000  0.97790000  0.77320000  1
  C  C710  1  0.83319000  0.98389000  0.70918000  1
  C  C711  1  0.54323000  0.98453000  0.60186000  1
  C  C712  1  0.75911000  0.98641000  0.31902000  1
  C  C713  1  0.21041000  0.98651000  0.58922000  1
  C  C714  1  0.09521000  0.98761000  0.12702000  1
  C  C715  1  0.57867000  0.98877000  0.89234000  1
  C  C716  1  0.14392000  0.99542000  0.71164000  1
  C  C717  1  0.36587000  0.99587000  0.33014000  1
  C  C718  1  0.71835000  0.99655000  0.18490000  1
  C  C719  1  0.66487000  0.99767000  0.84794000  1
  N  N720  1  0.13962000  0.07472000  0.31564000  1
  N  N721  1  0.18713000  0.08443000  0.41526000  1
  N  N722  1  0.26245000  0.09705000  0.48050000  1
  N  N723  1  0.10781000  0.10111000  0.76182000  1
  N  N724  1  0.16071000  0.10781000  0.26182000  1
  N  N725  1  0.78195000  0.11655000  0.51950000  1
  N  N726  1  0.74092000  0.13962000  0.81564000  1
  N  N727  1  0.66071000  0.15401000  0.26182000  1
  N  N728  1  0.65401000  0.16071000  0.76182000  1
  N  N729  1  0.77187000  0.16917000  0.58474000  1
  N  N730  1  0.07472000  0.17602000  0.81564000  1
  N  N731  1  0.83083000  0.18713000  0.91526000  1
  N  N732  1  0.09705000  0.21805000  0.98050000  1
  N  N733  1  0.08443000  0.22813000  0.91526000  1
  N  N734  1  0.40295000  0.23755000  0.01950000  1
  N  N735  1  0.63962000  0.24092000  0.31564000  1
  N  N736  1  0.82398000  0.25908000  0.68436000  1
  N  N737  1  0.88345000  0.26245000  0.98050000  1
  N  N738  1  0.66917000  0.27187000  0.08474000  1
  N  N739  1  0.61655000  0.28195000  0.01950000  1
  N  N740  1  0.41557000  0.31287000  0.08474000  1
  N  N741  1  0.75908000  0.32398000  0.18436000  1
  N  N742  1  0.68713000  0.33083000  0.41526000  1
  N  N743  1  0.39219000  0.33929000  0.23818000  1
  N  N744  1  0.89889000  0.34599000  0.73818000  1
  N  N745  1  0.42528000  0.36038000  0.18436000  1
  N  N746  1  0.76245000  0.38345000  0.48050000  1
  N  N747  1  0.39889000  0.39219000  0.73818000  1
  N  N748  1  0.84599000  0.39889000  0.23818000  1
  N  N749  1  0.28195000  0.40295000  0.51950000  1
  N  N750  1  0.27187000  0.41557000  0.58474000  1
  N  N751  1  0.32398000  0.42528000  0.68436000  1
  N  N752  1  0.67602000  0.57472000  0.31564000  1
  N  N753  1  0.72813000  0.58443000  0.41526000  1
  N  N754  1  0.71805000  0.59705000  0.48050000  1
  N  N755  1  0.15401000  0.60111000  0.76182000  1
  N  N756  1  0.60111000  0.60781000  0.26182000  1
  N  N757  1  0.23755000  0.61655000  0.51950000  1
  N  N758  1  0.57472000  0.63962000  0.81564000  1
  N  N759  1  0.10111000  0.65401000  0.26182000  1
  N  N760  1  0.60781000  0.66071000  0.76182000  1
  N  N761  1  0.31287000  0.66917000  0.58474000  1
  N  N762  1  0.24092000  0.67602000  0.81564000  1
  N  N763  1  0.58443000  0.68713000  0.91526000  1
  N  N764  1  0.38345000  0.71805000  0.98050000  1
  N  N765  1  0.33083000  0.72813000  0.91526000  1
  N  N766  1  0.11655000  0.73755000  0.01950000  1
  N  N767  1  0.17602000  0.74092000  0.31564000  1
  N  N768  1  0.36038000  0.75908000  0.68436000  1
  N  N769  1  0.59705000  0.76245000  0.98050000  1
  N  N770  1  0.91557000  0.77187000  0.08474000  1
  N  N771  1  0.90295000  0.78195000  0.01950000  1
  N  N772  1  0.16917000  0.81287000  0.08474000  1
  N  N773  1  0.92528000  0.82398000  0.18436000  1
  N  N774  1  0.22813000  0.83083000  0.41526000  1
  N  N775  1  0.34599000  0.83929000  0.23818000  1
  N  N776  1  0.33929000  0.84599000  0.73818000  1
  N  N777  1  0.25908000  0.86038000  0.18436000  1
  N  N778  1  0.21805000  0.88345000  0.48050000  1
  N  N779  1  0.83929000  0.89219000  0.73818000  1
  N  N780  1  0.89219000  0.89889000  0.23818000  1
  N  N781  1  0.73755000  0.90295000  0.51950000  1
  N  N782  1  0.81287000  0.91557000  0.58474000  1
  N  N783  1  0.86038000  0.92528000  0.68436000  1
  O  O784  1  0.88145000  0.01515000  0.90430000  1
  O  O785  1  0.70831000  0.01881000  0.34162000  1
  O  O786  1  0.01515000  0.02285000  0.40430000  1
  O  O787  1  0.32479000  0.02309000  0.18838000  1
  O  O788  1  0.95474000  0.02714000  0.65508000  1
  O  O789  1  0.87206000  0.04526000  0.84492000  1
  O  O790  1  0.70419000  0.05099000  0.87878000  1
  O  O791  1  0.61855000  0.11085000  0.09570000  1
  O  O792  1  0.61085000  0.11855000  0.59570000  1
  O  O793  1  0.70034000  0.12794000  0.65508000  1
  O  O794  1  0.32281000  0.13331000  0.84162000  1
  O  O795  1  0.97691000  0.13641000  0.31162000  1
  O  O796  1  0.82479000  0.16529000  0.18838000  1
  O  O797  1  0.79581000  0.17221000  0.12122000  1
  O  O798  1  0.05099000  0.17459000  0.37878000  1
  O  O799  1  0.47691000  0.17521000  0.31162000  1
  O  O800  1  0.36669000  0.17719000  0.65838000  1
  O  O801  1  0.62794000  0.20034000  0.15508000  1
  O  O802  1  0.55099000  0.20419000  0.37878000  1
  O  O803  1  0.51881000  0.20831000  0.84162000  1
  O  O804  1  0.17719000  0.29169000  0.15838000  1
  O  O805  1  0.67221000  0.29581000  0.62122000  1
  O  O806  1  0.97286000  0.29966000  0.84492000  1
  O  O807  1  0.20831000  0.32281000  0.34162000  1
  O  O808  1  0.66529000  0.32479000  0.68838000  1
  O  O809  1  0.17221000  0.32541000  0.62122000  1
  O  O810  1  0.17459000  0.32779000  0.87878000  1
  O  O811  1  0.13641000  0.33471000  0.81162000  1
  O  O812  1  0.16529000  0.36359000  0.68838000  1
  O  O813  1  0.98119000  0.36669000  0.15838000  1
  O  O814  1  0.54526000  0.37206000  0.34492000  1
  O  O815  1  0.51515000  0.38145000  0.40430000  1
  O  O816  1  0.02285000  0.38915000  0.90430000  1
  O  O817  1  0.32541000  0.44901000  0.12122000  1
  O  O818  1  0.52714000  0.45474000  0.15508000  1
  O  O819  1  0.79966000  0.47286000  0.34492000  1
  O  O820  1  0.63641000  0.47691000  0.81162000  1
  O  O821  1  0.11085000  0.47715000  0.59570000  1
  O  O822  1  0.86669000  0.48119000  0.65838000  1
  O  O823  1  0.47715000  0.48485000  0.09570000  1
  O  O824  1  0.52285000  0.51515000  0.90430000  1
  O  O825  1  0.13331000  0.51881000  0.34162000  1
  O  O826  1  0.88915000  0.52285000  0.40430000  1
  O  O827  1  0.36359000  0.52309000  0.18838000  1
  O  O828  1  0.20034000  0.52714000  0.65508000  1
  O  O829  1  0.47286000  0.54526000  0.84492000  1
  O  O830  1  0.67459000  0.55099000  0.87878000  1
  O  O831  1  0.97715000  0.61085000  0.09570000  1
  O  O832  1  0.48485000  0.61855000  0.59570000  1
  O  O833  1  0.45474000  0.62794000  0.65508000  1
  O  O834  1  0.01881000  0.63331000  0.84162000  1
  O  O835  1  0.83471000  0.63641000  0.31162000  1
  O  O836  1  0.86359000  0.66529000  0.18838000  1
  O  O837  1  0.82541000  0.67221000  0.12122000  1
  O  O838  1  0.82779000  0.67459000  0.37878000  1
  O  O839  1  0.33471000  0.67521000  0.31162000  1
  O  O840  1  0.79169000  0.67719000  0.65838000  1
  O  O841  1  0.02714000  0.70034000  0.15508000  1
  O  O842  1  0.32779000  0.70419000  0.37878000  1
  O  O843  1  0.82281000  0.70831000  0.84162000  1
  O  O844  1  0.48119000  0.79169000  0.15838000  1
  O  O845  1  0.44901000  0.79581000  0.62122000  1
  O  O846  1  0.37206000  0.79966000  0.84492000  1
  O  O847  1  0.63331000  0.82281000  0.34162000  1
  O  O848  1  0.52309000  0.82479000  0.68838000  1
  O  O849  1  0.94901000  0.82541000  0.62122000  1
  O  O850  1  0.20419000  0.82779000  0.87878000  1
  O  O851  1  0.17521000  0.83471000  0.81162000  1
  O  O852  1  0.02309000  0.86359000  0.68838000  1
  O  O853  1  0.67719000  0.86669000  0.15838000  1
  O  O854  1  0.29966000  0.87206000  0.34492000  1
  O  O855  1  0.38915000  0.88145000  0.40430000  1
  O  O856  1  0.38145000  0.88915000  0.90430000  1
  O  O857  1  0.29581000  0.94901000  0.12122000  1
  O  O858  1  0.12794000  0.95474000  0.15508000  1
  O  O859  1  0.04526000  0.97286000  0.34492000  1
  O  O860  1  0.67521000  0.97691000  0.81162000  1
  O  O861  1  0.98485000  0.97715000  0.59570000  1
  O  O862  1  0.29169000  0.98119000  0.65838000  1
  O  O863  1  0.11855000  0.98485000  0.09570000  1
