# generated using pymatgen
data_Mg2H30C35O11
_symmetry_space_group_name_H-M   'P 1'
_cell_length_a   16.74600000
_cell_length_b   19.11400000
_cell_length_c   34.09400000
_cell_angle_alpha   90.00000000
_cell_angle_beta   90.00000000
_cell_angle_gamma   104.32100000
_symmetry_Int_Tables_number   1
_chemical_formula_structural   Mg2H30C35O11
_chemical_formula_sum   'Mg16 H240 C280 O88'
_cell_volume   10573.79407255
_cell_formula_units_Z   8
loop_
 _symmetry_equiv_pos_site_id
 _symmetry_equiv_pos_as_xyz
  1  'x, y, z'
loop_
 _atom_site_type_symbol
 _atom_site_label
 _atom_site_symmetry_multiplicity
 _atom_site_fract_x
 _atom_site_fract_y
 _atom_site_fract_z
 _atom_site_occupancy
  Mg  Mg0  1  0.99551000  0.00653000  0.37504000  1
  Mg  Mg1  1  0.99551000  0.50653000  0.12496000  1
  Mg  Mg2  1  0.79524000  0.46137000  0.84618000  1
  Mg  Mg3  1  0.79524000  0.96137000  0.65382000  1
  Mg  Mg4  1  0.70597000  0.01772000  0.32238000  1
  Mg  Mg5  1  0.70597000  0.51772000  0.17762000  1
  Mg  Mg6  1  0.51070000  0.53172000  0.83232000  1
  Mg  Mg7  1  0.51070000  0.03172000  0.66768000  1
  Mg  Mg8  1  0.48930000  0.96828000  0.33232000  1
  Mg  Mg9  1  0.48930000  0.46828000  0.16768000  1
  Mg  Mg10  1  0.29403000  0.48228000  0.82238000  1
  Mg  Mg11  1  0.29403000  0.98228000  0.67762000  1
  Mg  Mg12  1  0.20476000  0.03863000  0.34618000  1
  Mg  Mg13  1  0.20476000  0.53863000  0.15382000  1
  Mg  Mg14  1  0.00449000  0.49347000  0.87504000  1
  Mg  Mg15  1  0.00449000  0.99347000  0.62496000  1
  H  H16  1  0.99840000  0.79880000  0.41830000  1
  H  H17  1  0.99840000  0.29880000  0.08170000  1
  H  H18  1  0.99200000  0.80080000  0.95480000  1
  H  H19  1  0.99200000  0.30080000  0.54520000  1
  H  H20  1  0.98800000  0.25480000  0.95790000  1
  H  H21  1  0.98800000  0.75480000  0.54210000  1
  H  H22  1  0.96900000  0.34720000  0.91850000  1
  H  H23  1  0.96900000  0.84720000  0.58150000  1
  H  H24  1  0.96310000  0.36220000  0.49480000  1
  H  H25  1  0.96310000  0.86220000  0.00520000  1
  H  H26  1  0.96290000  0.37730000  0.40700000  1
  H  H27  1  0.96290000  0.87730000  0.09300000  1
  H  H28  1  0.95710000  0.91240000  0.96800000  1
  H  H29  1  0.95710000  0.41240000  0.53200000  1
  H  H30  1  0.92920000  0.33190000  0.44560000  1
  H  H31  1  0.92920000  0.83190000  0.05440000  1
  H  H32  1  0.92790000  0.01000000  0.94490000  1
  H  H33  1  0.92790000  0.51000000  0.55510000  1
  H  H34  1  0.92430000  0.21040000  0.34540000  1
  H  H35  1  0.92430000  0.71040000  0.15460000  1
  H  H36  1  0.92090000  0.97340000  0.26350000  1
  H  H37  1  0.92090000  0.47340000  0.23650000  1
  H  H38  1  0.89580000  0.94450000  0.83880000  1
  H  H39  1  0.89580000  0.44450000  0.66120000  1
  H  H40  1  0.89250000  0.62280000  0.39470000  1
  H  H41  1  0.89250000  0.12280000  0.10530000  1
  H  H42  1  0.87100000  0.46910000  0.30150000  1
  H  H43  1  0.87100000  0.96910000  0.19850000  1
  H  H44  1  0.86780000  0.33500000  0.41000000  1
  H  H45  1  0.86780000  0.83500000  0.09000000  1
  H  H46  1  0.86000000  0.42300000  0.36650000  1
  H  H47  1  0.86000000  0.92300000  0.13350000  1
  H  H48  1  0.85960000  0.17900000  0.31140000  1
  H  H49  1  0.85960000  0.67900000  0.18860000  1
  H  H50  1  0.85340000  0.04830000  0.94890000  1
  H  H51  1  0.85340000  0.54830000  0.55110000  1
  H  H52  1  0.84740000  0.94540000  0.77520000  1
  H  H53  1  0.84740000  0.44540000  0.72480000  1
  H  H54  1  0.84380000  0.50230000  0.36230000  1
  H  H55  1  0.84380000  0.00230000  0.13770000  1
  H  H56  1  0.83470000  0.96260000  0.94330000  1
  H  H57  1  0.83470000  0.46260000  0.55670000  1
  H  H58  1  0.82820000  0.18380000  0.35540000  1
  H  H59  1  0.82820000  0.68380000  0.14460000  1
  H  H60  1  0.82760000  0.63900000  0.42570000  1
  H  H61  1  0.82760000  0.13900000  0.07430000  1
  H  H62  1  0.79680000  0.58320000  0.39060000  1
  H  H63  1  0.79680000  0.08320000  0.10940000  1
  H  H64  1  0.78200000  0.08510000  0.98280000  1
  H  H65  1  0.78200000  0.58510000  0.51720000  1
  H  H66  1  0.78040000  0.62170000  0.47490000  1
  H  H67  1  0.78040000  0.12170000  0.02510000  1
  H  H68  1  0.75440000  0.63800000  0.91030000  1
  H  H69  1  0.75440000  0.13800000  0.58970000  1
  H  H70  1  0.75340000  0.74990000  0.43240000  1
  H  H71  1  0.75340000  0.24990000  0.06760000  1
  H  H72  1  0.74400000  0.19420000  0.97940000  1
  H  H73  1  0.74400000  0.69420000  0.52060000  1
  H  H74  1  0.74300000  0.73480000  0.94810000  1
  H  H75  1  0.74300000  0.23480000  0.55190000  1
  H  H76  1  0.74240000  0.84630000  0.39360000  1
  H  H77  1  0.74240000  0.34630000  0.10640000  1
  H  H78  1  0.73510000  0.29330000  0.44570000  1
  H  H79  1  0.73510000  0.79330000  0.05430000  1
  H  H80  1  0.73470000  0.19890000  0.40320000  1
  H  H81  1  0.73470000  0.69890000  0.09680000  1
  H  H82  1  0.72420000  0.28550000  0.93920000  1
  H  H83  1  0.72420000  0.78550000  0.56080000  1
  H  H84  1  0.71260000  0.86150000  0.99840000  1
  H  H85  1  0.71260000  0.36150000  0.50160000  1
  H  H86  1  0.71160000  0.89980000  0.91190000  1
  H  H87  1  0.71160000  0.39980000  0.58810000  1
  H  H88  1  0.71040000  0.40020000  0.77100000  1
  H  H89  1  0.71040000  0.90020000  0.72900000  1
  H  H90  1  0.70540000  0.40100000  0.46060000  1
  H  H91  1  0.70540000  0.90100000  0.03940000  1
  H  H92  1  0.67810000  0.84580000  0.94750000  1
  H  H93  1  0.67810000  0.34580000  0.55250000  1
  H  H94  1  0.66250000  0.98050000  0.87750000  1
  H  H95  1  0.66250000  0.48050000  0.62250000  1
  H  H96  1  0.66210000  0.53810000  0.43040000  1
  H  H97  1  0.66210000  0.03810000  0.06960000  1
  H  H98  1  0.65760000  0.62550000  0.29510000  1
  H  H99  1  0.65760000  0.12550000  0.20490000  1
  H  H100  1  0.65750000  0.93800000  0.75740000  1
  H  H101  1  0.65750000  0.43800000  0.74260000  1
  H  H102  1  0.64310000  0.45180000  0.43140000  1
  H  H103  1  0.64310000  0.95180000  0.06860000  1
  H  H104  1  0.62570000  0.16450000  0.94150000  1
  H  H105  1  0.62570000  0.66450000  0.55850000  1
  H  H106  1  0.62170000  0.04830000  0.87940000  1
  H  H107  1  0.62170000  0.54830000  0.62060000  1
  H  H108  1  0.61640000  0.85770000  0.91370000  1
  H  H109  1  0.61640000  0.35770000  0.58630000  1
  H  H110  1  0.61480000  0.36340000  0.76380000  1
  H  H111  1  0.61480000  0.86340000  0.73620000  1
  H  H112  1  0.59310000  0.03990000  0.81960000  1
  H  H113  1  0.59310000  0.53990000  0.68040000  1
  H  H114  1  0.59190000  0.62700000  0.35500000  1
  H  H115  1  0.59190000  0.12700000  0.14500000  1
  H  H116  1  0.58990000  0.11370000  0.90500000  1
  H  H117  1  0.58990000  0.61370000  0.59500000  1
  H  H118  1  0.56880000  0.49080000  0.43100000  1
  H  H119  1  0.56880000  0.99080000  0.06900000  1
  H  H120  1  0.53820000  0.63050000  0.49800000  1
  H  H121  1  0.53820000  0.13050000  0.00200000  1
  H  H122  1  0.53610000  0.58240000  0.45910000  1
  H  H123  1  0.53610000  0.08240000  0.04090000  1
  H  H124  1  0.52980000  0.12410000  0.93990000  1
  H  H125  1  0.52980000  0.62410000  0.56010000  1
  H  H126  1  0.52550000  0.04300000  0.76050000  1
  H  H127  1  0.52550000  0.54300000  0.73950000  1
  H  H128  1  0.51370000  0.36170000  0.90690000  1
  H  H129  1  0.51370000  0.86170000  0.59310000  1
  H  H130  1  0.51340000  0.26800000  0.94990000  1
  H  H131  1  0.51340000  0.76800000  0.55010000  1
  H  H132  1  0.50570000  0.69570000  0.44650000  1
  H  H133  1  0.50570000  0.19570000  0.05350000  1
  H  H134  1  0.50340000  0.70920000  0.90510000  1
  H  H135  1  0.50340000  0.20920000  0.59490000  1
  H  H136  1  0.49660000  0.79080000  0.40510000  1
  H  H137  1  0.49660000  0.29080000  0.09490000  1
  H  H138  1  0.49430000  0.80430000  0.94650000  1
  H  H139  1  0.49430000  0.30430000  0.55350000  1
  H  H140  1  0.48660000  0.23200000  0.44990000  1
  H  H141  1  0.48660000  0.73200000  0.05010000  1
  H  H142  1  0.48630000  0.13830000  0.40690000  1
  H  H143  1  0.48630000  0.63830000  0.09310000  1
  H  H144  1  0.47450000  0.45700000  0.26050000  1
  H  H145  1  0.47450000  0.95700000  0.23950000  1
  H  H146  1  0.47020000  0.37590000  0.43990000  1
  H  H147  1  0.47020000  0.87590000  0.06010000  1
  H  H148  1  0.46390000  0.91760000  0.95910000  1
  H  H149  1  0.46390000  0.41760000  0.54090000  1
  H  H150  1  0.46180000  0.86950000  0.99800000  1
  H  H151  1  0.46180000  0.36950000  0.50200000  1
  H  H152  1  0.43120000  0.00920000  0.93100000  1
  H  H153  1  0.43120000  0.50920000  0.56900000  1
  H  H154  1  0.41010000  0.38630000  0.40500000  1
  H  H155  1  0.41010000  0.88630000  0.09500000  1
  H  H156  1  0.40810000  0.87300000  0.85500000  1
  H  H157  1  0.40810000  0.37300000  0.64500000  1
  H  H158  1  0.40690000  0.46010000  0.31960000  1
  H  H159  1  0.40690000  0.96010000  0.18040000  1
  H  H160  1  0.38520000  0.13660000  0.26380000  1
  H  H161  1  0.38520000  0.63660000  0.23620000  1
  H  H162  1  0.38360000  0.64230000  0.41370000  1
  H  H163  1  0.38360000  0.14230000  0.08630000  1
  H  H164  1  0.37830000  0.45170000  0.37940000  1
  H  H165  1  0.37830000  0.95170000  0.12060000  1
  H  H166  1  0.37430000  0.33550000  0.44150000  1
  H  H167  1  0.37430000  0.83550000  0.05850000  1
  H  H168  1  0.35690000  0.04820000  0.93140000  1
  H  H169  1  0.35690000  0.54820000  0.56860000  1
  H  H170  1  0.34250000  0.56200000  0.25740000  1
  H  H171  1  0.34250000  0.06200000  0.24260000  1
  H  H172  1  0.34240000  0.87450000  0.79510000  1
  H  H173  1  0.34240000  0.37450000  0.70490000  1
  H  H174  1  0.33790000  0.96190000  0.93040000  1
  H  H175  1  0.33790000  0.46190000  0.56960000  1
  H  H176  1  0.33750000  0.51950000  0.37750000  1
  H  H177  1  0.33750000  0.01950000  0.12250000  1
  H  H178  1  0.32190000  0.65420000  0.44750000  1
  H  H179  1  0.32190000  0.15420000  0.05250000  1
  H  H180  1  0.29460000  0.09900000  0.96060000  1
  H  H181  1  0.29460000  0.59900000  0.53940000  1
  H  H182  1  0.28960000  0.09980000  0.27100000  1
  H  H183  1  0.28960000  0.59980000  0.22900000  1
  H  H184  1  0.28840000  0.60020000  0.41190000  1
  H  H185  1  0.28840000  0.10020000  0.08810000  1
  H  H186  1  0.28740000  0.63850000  0.49840000  1
  H  H187  1  0.28740000  0.13850000  0.00160000  1
  H  H188  1  0.27580000  0.21450000  0.43920000  1
  H  H189  1  0.27580000  0.71450000  0.06080000  1
  H  H190  1  0.26530000  0.30110000  0.90320000  1
  H  H191  1  0.26530000  0.80110000  0.59680000  1
  H  H192  1  0.26490000  0.20670000  0.94570000  1
  H  H193  1  0.26490000  0.70670000  0.55430000  1
  H  H194  1  0.25760000  0.65370000  0.89360000  1
  H  H195  1  0.25760000  0.15370000  0.60640000  1
  H  H196  1  0.25700000  0.76520000  0.44810000  1
  H  H197  1  0.25700000  0.26520000  0.05190000  1
  H  H198  1  0.25600000  0.30580000  0.47940000  1
  H  H199  1  0.25600000  0.80580000  0.02060000  1
  H  H200  1  0.24660000  0.75010000  0.93240000  1
  H  H201  1  0.24660000  0.25010000  0.56760000  1
  H  H202  1  0.24560000  0.86200000  0.41030000  1
  H  H203  1  0.24560000  0.36200000  0.08970000  1
  H  H204  1  0.21960000  0.87830000  0.97490000  1
  H  H205  1  0.21960000  0.37830000  0.52510000  1
  H  H206  1  0.21800000  0.41490000  0.48280000  1
  H  H207  1  0.21800000  0.91490000  0.01720000  1
  H  H208  1  0.20320000  0.91680000  0.89060000  1
  H  H209  1  0.20320000  0.41680000  0.60940000  1
  H  H210  1  0.17240000  0.86100000  0.92570000  1
  H  H211  1  0.17240000  0.36100000  0.57430000  1
  H  H212  1  0.17180000  0.31620000  0.85540000  1
  H  H213  1  0.17180000  0.81620000  0.64460000  1
  H  H214  1  0.16530000  0.53740000  0.44330000  1
  H  H215  1  0.16530000  0.03740000  0.05670000  1
  H  H216  1  0.15620000  0.99770000  0.86230000  1
  H  H217  1  0.15620000  0.49770000  0.63770000  1
  H  H218  1  0.15260000  0.55460000  0.27520000  1
  H  H219  1  0.15260000  0.05460000  0.22480000  1
  H  H220  1  0.14660000  0.45170000  0.44890000  1
  H  H221  1  0.14660000  0.95170000  0.05110000  1
  H  H222  1  0.14040000  0.32100000  0.81140000  1
  H  H223  1  0.14040000  0.82100000  0.68860000  1
  H  H224  1  0.14000000  0.07700000  0.86650000  1
  H  H225  1  0.14000000  0.57700000  0.63350000  1
  H  H226  1  0.13220000  0.16500000  0.91000000  1
  H  H227  1  0.13220000  0.66500000  0.59000000  1
  H  H228  1  0.12900000  0.03090000  0.80150000  1
  H  H229  1  0.12900000  0.53090000  0.69850000  1
  H  H230  1  0.10750000  0.87720000  0.89470000  1
  H  H231  1  0.10750000  0.37720000  0.60530000  1
  H  H232  1  0.10420000  0.55550000  0.33880000  1
  H  H233  1  0.10420000  0.05550000  0.16120000  1
  H  H234  1  0.07910000  0.52660000  0.76350000  1
  H  H235  1  0.07910000  0.02660000  0.73650000  1
  H  H236  1  0.07570000  0.28960000  0.84540000  1
  H  H237  1  0.07570000  0.78960000  0.65460000  1
  H  H238  1  0.07210000  0.49000000  0.44490000  1
  H  H239  1  0.07210000  0.99000000  0.05510000  1
  H  H240  1  0.07080000  0.16810000  0.94560000  1
  H  H241  1  0.07080000  0.66810000  0.55440000  1
  H  H242  1  0.04290000  0.58760000  0.46800000  1
  H  H243  1  0.04290000  0.08760000  0.03200000  1
  H  H244  1  0.03710000  0.12270000  0.90700000  1
  H  H245  1  0.03710000  0.62270000  0.59300000  1
  H  H246  1  0.03690000  0.13780000  0.99480000  1
  H  H247  1  0.03690000  0.63780000  0.50520000  1
  H  H248  1  0.03100000  0.15280000  0.41850000  1
  H  H249  1  0.03100000  0.65280000  0.08150000  1
  H  H250  1  0.01200000  0.24520000  0.45790000  1
  H  H251  1  0.01200000  0.74520000  0.04210000  1
  H  H252  1  0.00800000  0.69920000  0.45480000  1
  H  H253  1  0.00800000  0.19920000  0.04520000  1
  H  H254  1  0.00160000  0.70120000  0.91830000  1
  H  H255  1  0.00160000  0.20120000  0.58170000  1
  C  C256  1  0.98440000  0.50560000  0.32640000  1
  C  C257  1  0.98440000  0.00560000  0.17360000  1
  C  C258  1  0.95910000  0.48640000  0.75024000  1
  C  C259  1  0.95910000  0.98640000  0.74976000  1
  C  C260  1  0.95840000  0.48860000  0.25755000  1
  C  C261  1  0.95840000  0.98860000  0.24245000  1
  C  C262  1  0.94870000  0.70810000  0.92453000  1
  C  C263  1  0.94870000  0.20810000  0.57547000  1
  C  C264  1  0.94350000  0.76740000  0.94597000  1
  C  C265  1  0.94350000  0.26740000  0.55403000  1
  C  C266  1  0.93400000  0.26080000  0.95373000  1
  C  C267  1  0.93400000  0.76080000  0.54627000  1
  C  C268  1  0.93270000  0.96410000  0.81820000  1
  C  C269  1  0.93270000  0.46410000  0.68180000  1
  C  C270  1  0.92880000  0.48460000  0.79138000  1
  C  C271  1  0.92880000  0.98460000  0.70862000  1
  C  C272  1  0.92840000  0.48510000  0.29627000  1
  C  C273  1  0.92840000  0.98510000  0.20373000  1
  C  C274  1  0.92630000  0.88630000  0.99060000  1
  C  C275  1  0.92630000  0.38630000  0.50940000  1
  C  C276  1  0.92250000  0.31490000  0.93010000  1
  C  C277  1  0.92250000  0.81490000  0.56990000  1
  C  C278  1  0.91570000  0.36230000  0.42470000  1
  C  C279  1  0.91570000  0.86230000  0.07530000  1
  C  C280  1  0.90460000  0.96270000  0.78050000  1
  C  C281  1  0.90460000  0.46270000  0.71950000  1
  C  C282  1  0.89720000  0.43740000  0.48331000  1
  C  C283  1  0.89720000  0.93740000  0.01669000  1
  C  C284  1  0.89620000  0.42770000  0.44248000  1
  C  C285  1  0.89620000  0.92770000  0.05752000  1
  C  C286  1  0.88670000  0.59280000  0.88957000  1
  C  C287  1  0.88670000  0.09280000  0.61043000  1
  C  C288  1  0.88280000  0.10080000  0.34707000  1
  C  C289  1  0.88280000  0.60080000  0.15293000  1
  C  C290  1  0.87920000  0.65760000  0.91157000  1
  C  C291  1  0.87920000  0.15760000  0.58843000  1
  C  C292  1  0.87880000  0.47400000  0.37498000  1
  C  C293  1  0.87880000  0.97400000  0.12502000  1
  C  C294  1  0.87510000  0.47990000  0.41948000  1
  C  C295  1  0.87510000  0.97990000  0.08052000  1
  C  C296  1  0.87290000  0.99540000  0.99918000  1
  C  C297  1  0.87290000  0.49540000  0.50082000  1
  C  C298  1  0.87290000  0.17480000  0.33920000  1
  C  C299  1  0.87290000  0.67480000  0.16080000  1
  C  C300  1  0.87220000  0.00490000  0.95519000  1
  C  C301  1  0.87220000  0.50490000  0.54481000  1
  C  C302  1  0.86830000  0.21510000  0.97152000  1
  C  C303  1  0.86830000  0.71510000  0.52848000  1
  C  C304  1  0.86690000  0.77800000  0.95452000  1
  C  C305  1  0.86690000  0.27800000  0.54548000  1
  C  C306  1  0.85450000  0.54020000  0.43491000  1
  C  C307  1  0.85450000  0.04020000  0.06509000  1
  C  C308  1  0.84820000  0.54510000  0.47557000  1
  C  C309  1  0.84820000  0.04510000  0.02443000  1
  C  C310  1  0.84380000  0.32380000  0.92266000  1
  C  C311  1  0.84380000  0.82380000  0.57734000  1
  C  C312  1  0.84170000  0.60180000  0.40916000  1
  C  C313  1  0.84170000  0.10180000  0.09084000  1
  C  C314  1  0.82920000  0.37960000  0.89626000  1
  C  C315  1  0.82920000  0.87960000  0.60374000  1
  C  C316  1  0.81560000  0.60390000  0.49389000  1
  C  C317  1  0.81560000  0.10390000  0.00611000  1
  C  C318  1  0.80290000  0.67040000  0.91995000  1
  C  C319  1  0.80290000  0.17040000  0.58005000  1
  C  C320  1  0.79590000  0.72830000  0.94167000  1
  C  C321  1  0.79590000  0.22830000  0.55833000  1
  C  C322  1  0.78960000  0.22480000  0.96635000  1
  C  C323  1  0.78960000  0.72480000  0.53365000  1
  C  C324  1  0.77810000  0.27870000  0.94241000  1
  C  C325  1  0.77810000  0.77870000  0.55759000  1
  C  C326  1  0.70070000  0.75810000  0.42726000  1
  C  C327  1  0.70070000  0.25810000  0.07274000  1
  C  C328  1  0.69380000  0.81510000  0.40397000  1
  C  C329  1  0.69380000  0.31510000  0.09603000  1
  C  C330  1  0.68440000  0.26210000  0.43770000  1
  C  C331  1  0.68440000  0.76210000  0.06230000  1
  C  C332  1  0.68380000  0.20570000  0.41259000  1
  C  C333  1  0.68380000  0.70570000  0.08741000  1
  C  C334  1  0.67560000  0.38200000  0.48499000  1
  C  C335  1  0.67560000  0.88200000  0.01501000  1
  C  C336  1  0.66470000  0.88110000  0.92936000  1
  C  C337  1  0.66470000  0.38110000  0.57064000  1
  C  C338  1  0.65610000  0.40950000  0.76660000  1
  C  C339  1  0.65610000  0.90950000  0.73340000  1
  C  C340  1  0.64950000  0.94180000  0.99335000  1
  C  C341  1  0.64950000  0.44180000  0.50665000  1
  C  C342  1  0.64590000  0.94260000  0.95243000  1
  C  C343  1  0.64590000  0.44260000  0.54757000  1
  C  C344  1  0.63390000  0.45060000  0.80102000  1
  C  C345  1  0.63390000  0.95060000  0.69898000  1
  C  C346  1  0.63080000  0.71250000  0.44323000  1
  C  C347  1  0.63080000  0.21250000  0.05677000  1
  C  C348  1  0.62530000  0.49570000  0.48463000  1
  C  C349  1  0.62530000  0.99570000  0.01537000  1
  C  C350  1  0.62500000  0.99970000  0.93322000  1
  C  C351  1  0.62500000  0.49970000  0.56678000  1
  C  C352  1  0.62480000  0.49390000  0.44052000  1
  C  C353  1  0.62480000  0.99390000  0.05948000  1
  C  C354  1  0.61890000  0.03650000  0.26552000  1
  C  C355  1  0.61890000  0.53650000  0.23448000  1
  C  C356  1  0.61790000  0.99900000  0.88944000  1
  C  C357  1  0.61790000  0.49900000  0.61056000  1
  C  C358  1  0.61790000  0.82820000  0.39517000  1
  C  C359  1  0.61790000  0.32820000  0.10483000  1
  C  C360  1  0.61160000  0.89100000  0.37017000  1
  C  C361  1  0.61160000  0.39100000  0.12983000  1
  C  C362  1  0.61100000  0.09790000  0.37289000  1
  C  C363  1  0.61100000  0.59790000  0.12711000  1
  C  C364  1  0.61090000  0.15860000  0.40061000  1
  C  C365  1  0.61090000  0.65860000  0.09939000  1
  C  C366  1  0.60950000  0.27310000  0.45137000  1
  C  C367  1  0.60950000  0.77310000  0.04863000  1
  C  C368  1  0.60700000  0.59120000  0.30017000  1
  C  C369  1  0.60700000  0.09120000  0.19983000  1
  C  C370  1  0.60360000  0.05510000  0.95503000  1
  C  C371  1  0.60360000  0.55510000  0.54497000  1
  C  C372  1  0.60140000  0.05122000  0.99560000  1
  C  C373  1  0.60140000  0.55122000  0.50440000  1
  C  C374  1  0.58560000  0.12030000  0.93340000  1
  C  C375  1  0.58560000  0.62030000  0.56660000  1
  C  C376  1  0.57290000  0.54030000  0.27176000  1
  C  C377  1  0.57290000  0.04030000  0.22824000  1
  C  C378  1  0.57120000  0.60610000  0.48111000  1
  C  C379  1  0.57120000  0.10610000  0.01889000  1
  C  C380  1  0.56790000  0.59220000  0.33574000  1
  C  C381  1  0.56790000  0.09220000  0.16426000  1
  C  C382  1  0.55420000  0.72560000  0.43536000  1
  C  C383  1  0.55420000  0.22560000  0.06464000  1
  C  C384  1  0.54920000  0.78300000  0.41095000  1
  C  C385  1  0.54920000  0.28300000  0.08905000  1
  C  C386  1  0.54140000  0.00690000  0.81490000  1
  C  C387  1  0.54140000  0.50690000  0.68510000  1
  C  C388  1  0.53750000  0.22580000  0.44002000  1
  C  C389  1  0.53750000  0.72580000  0.05998000  1
  C  C390  1  0.53710000  0.16960000  0.41473000  1
  C  C391  1  0.53710000  0.66960000  0.08527000  1
  C  C392  1  0.50610000  0.95740000  0.84345000  1
  C  C393  1  0.50610000  0.45740000  0.65655000  1
  C  C394  1  0.50150000  0.00810000  0.77972000  1
  C  C395  1  0.50150000  0.50810000  0.72028000  1
  C  C396  1  0.49850000  0.49190000  0.27972000  1
  C  C397  1  0.49850000  0.99190000  0.22028000  1
  C  C398  1  0.49390000  0.54260000  0.34345000  1
  C  C399  1  0.49390000  0.04260000  0.15655000  1
  C  C400  1  0.46290000  0.33040000  0.91473000  1
  C  C401  1  0.46290000  0.83040000  0.58527000  1
  C  C402  1  0.46250000  0.27420000  0.94002000  1
  C  C403  1  0.46250000  0.77420000  0.55998000  1
  C  C404  1  0.45860000  0.49310000  0.31490000  1
  C  C405  1  0.45860000  0.99310000  0.18510000  1
  C  C406  1  0.45080000  0.71700000  0.91095000  1
  C  C407  1  0.45080000  0.21700000  0.58905000  1
  C  C408  1  0.44580000  0.77440000  0.93536000  1
  C  C409  1  0.44580000  0.27440000  0.56464000  1
  C  C410  1  0.43210000  0.90780000  0.83574000  1
  C  C411  1  0.43210000  0.40780000  0.66426000  1
  C  C412  1  0.42880000  0.89390000  0.98111000  1
  C  C413  1  0.42880000  0.39390000  0.51889000  1
  C  C414  1  0.42710000  0.95970000  0.77176000  1
  C  C415  1  0.42710000  0.45970000  0.72824000  1
  C  C416  1  0.41440000  0.37970000  0.43340000  1
  C  C417  1  0.41440000  0.87970000  0.06660000  1
  C  C418  1  0.39860000  0.44878000  0.49560000  1
  C  C419  1  0.39860000  0.94878000  0.00440000  1
  C  C420  1  0.39640000  0.44490000  0.45503000  1
  C  C421  1  0.39640000  0.94490000  0.04497000  1
  C  C422  1  0.39300000  0.90880000  0.80017000  1
  C  C423  1  0.39300000  0.40880000  0.69983000  1
  C  C424  1  0.39050000  0.22690000  0.95137000  1
  C  C425  1  0.39050000  0.72690000  0.54863000  1
  C  C426  1  0.38910000  0.34140000  0.90061000  1
  C  C427  1  0.38910000  0.84140000  0.59939000  1
  C  C428  1  0.38900000  0.40210000  0.87289000  1
  C  C429  1  0.38900000  0.90210000  0.62711000  1
  C  C430  1  0.38840000  0.60900000  0.87017000  1
  C  C431  1  0.38840000  0.10900000  0.62983000  1
  C  C432  1  0.38210000  0.67180000  0.89517000  1
  C  C433  1  0.38210000  0.17180000  0.60483000  1
  C  C434  1  0.38210000  0.50100000  0.38944000  1
  C  C435  1  0.38210000  0.00100000  0.11056000  1
  C  C436  1  0.38110000  0.46350000  0.76552000  1
  C  C437  1  0.38110000  0.96350000  0.73448000  1
  C  C438  1  0.37520000  0.00610000  0.94052000  1
  C  C439  1  0.37520000  0.50610000  0.55948000  1
  C  C440  1  0.37500000  0.50030000  0.43322000  1
  C  C441  1  0.37500000  0.00030000  0.06678000  1
  C  C442  1  0.37470000  0.00430000  0.98463000  1
  C  C443  1  0.37470000  0.50430000  0.51537000  1
  C  C444  1  0.36920000  0.78750000  0.94323000  1
  C  C445  1  0.36920000  0.28750000  0.55677000  1
  C  C446  1  0.36610000  0.04940000  0.30102000  1
  C  C447  1  0.36610000  0.54940000  0.19898000  1
  C  C448  1  0.35410000  0.55740000  0.45243000  1
  C  C449  1  0.35410000  0.05740000  0.04757000  1
  C  C450  1  0.35050000  0.55820000  0.49335000  1
  C  C451  1  0.35050000  0.05820000  0.00665000  1
  C  C452  1  0.34390000  0.09050000  0.26660000  1
  C  C453  1  0.34390000  0.59050000  0.23340000  1
  C  C454  1  0.33530000  0.61890000  0.42936000  1
  C  C455  1  0.33530000  0.11890000  0.07064000  1
  C  C456  1  0.32440000  0.11800000  0.98499000  1
  C  C457  1  0.32440000  0.61800000  0.51501000  1
  C  C458  1  0.31620000  0.29430000  0.91259000  1
  C  C459  1  0.31620000  0.79430000  0.58741000  1
  C  C460  1  0.31560000  0.23790000  0.93770000  1
  C  C461  1  0.31560000  0.73790000  0.56230000  1
  C  C462  1  0.30620000  0.68490000  0.90397000  1
  C  C463  1  0.30620000  0.18490000  0.59603000  1
  C  C464  1  0.29930000  0.74190000  0.92726000  1
  C  C465  1  0.29930000  0.24190000  0.57274000  1
  C  C466  1  0.22190000  0.22130000  0.44241000  1
  C  C467  1  0.22190000  0.72130000  0.05759000  1
  C  C468  1  0.21040000  0.27520000  0.46635000  1
  C  C469  1  0.21040000  0.77520000  0.03365000  1
  C  C470  1  0.20410000  0.77170000  0.44167000  1
  C  C471  1  0.20410000  0.27170000  0.05833000  1
  C  C472  1  0.19710000  0.82960000  0.41995000  1
  C  C473  1  0.19710000  0.32960000  0.08005000  1
  C  C474  1  0.18440000  0.89610000  0.99389000  1
  C  C475  1  0.18440000  0.39610000  0.50611000  1
  C  C476  1  0.17080000  0.12040000  0.39626000  1
  C  C477  1  0.17080000  0.62040000  0.10374000  1
  C  C478  1  0.15830000  0.89820000  0.90916000  1
  C  C479  1  0.15830000  0.39820000  0.59084000  1
  C  C480  1  0.15620000  0.17620000  0.42266000  1
  C  C481  1  0.15620000  0.67620000  0.07734000  1
  C  C482  1  0.15180000  0.95490000  0.97557000  1
  C  C483  1  0.15180000  0.45490000  0.52443000  1
  C  C484  1  0.14550000  0.95980000  0.93491000  1
  C  C485  1  0.14550000  0.45980000  0.56509000  1
  C  C486  1  0.13310000  0.72200000  0.45452000  1
  C  C487  1  0.13310000  0.22200000  0.04548000  1
  C  C488  1  0.13170000  0.28490000  0.47152000  1
  C  C489  1  0.13170000  0.78490000  0.02848000  1
  C  C490  1  0.12780000  0.49510000  0.45519000  1
  C  C491  1  0.12780000  0.99510000  0.04481000  1
  C  C492  1  0.12710000  0.32520000  0.83920000  1
  C  C493  1  0.12710000  0.82520000  0.66080000  1
  C  C494  1  0.12710000  0.50460000  0.49918000  1
  C  C495  1  0.12710000  0.00460000  0.00082000  1
  C  C496  1  0.12490000  0.02010000  0.91948000  1
  C  C497  1  0.12490000  0.52010000  0.58052000  1
  C  C498  1  0.12120000  0.02600000  0.87498000  1
  C  C499  1  0.12120000  0.52600000  0.62502000  1
  C  C500  1  0.12080000  0.84240000  0.41157000  1
  C  C501  1  0.12080000  0.34240000  0.08843000  1
  C  C502  1  0.11720000  0.39920000  0.84707000  1
  C  C503  1  0.11720000  0.89920000  0.65293000  1
  C  C504  1  0.11330000  0.90720000  0.38957000  1
  C  C505  1  0.11330000  0.40720000  0.11043000  1
  C  C506  1  0.10380000  0.07230000  0.94248000  1
  C  C507  1  0.10380000  0.57230000  0.55752000  1
  C  C508  1  0.10280000  0.06260000  0.98331000  1
  C  C509  1  0.10280000  0.56260000  0.51669000  1
  C  C510  1  0.09540000  0.53730000  0.28050000  1
  C  C511  1  0.09540000  0.03730000  0.21950000  1
  C  C512  1  0.08430000  0.13770000  0.92470000  1
  C  C513  1  0.08430000  0.63770000  0.57530000  1
  C  C514  1  0.07750000  0.18510000  0.43010000  1
  C  C515  1  0.07750000  0.68510000  0.06990000  1
  C  C516  1  0.07370000  0.61370000  0.49060000  1
  C  C517  1  0.07370000  0.11370000  0.00940000  1
  C  C518  1  0.07160000  0.01490000  0.79627000  1
  C  C519  1  0.07160000  0.51490000  0.70373000  1
  C  C520  1  0.07120000  0.01540000  0.29138000  1
  C  C521  1  0.07120000  0.51540000  0.20862000  1
  C  C522  1  0.06730000  0.53590000  0.31820000  1
  C  C523  1  0.06730000  0.03590000  0.18180000  1
  C  C524  1  0.06600000  0.23920000  0.45373000  1
  C  C525  1  0.06600000  0.73920000  0.04627000  1
  C  C526  1  0.05650000  0.73260000  0.44597000  1
  C  C527  1  0.05650000  0.23260000  0.05403000  1
  C  C528  1  0.05130000  0.79190000  0.42453000  1
  C  C529  1  0.05130000  0.29190000  0.07547000  1
  C  C530  1  0.04160000  0.01140000  0.75755000  1
  C  C531  1  0.04160000  0.51140000  0.74245000  1
  C  C532  1  0.04090000  0.01360000  0.25024000  1
  C  C533  1  0.04090000  0.51360000  0.24976000  1
  C  C534  1  0.01560000  0.99440000  0.82640000  1
  C  C535  1  0.01560000  0.49440000  0.67360000  1
  O  O536  1  0.98110000  0.50436000  0.81718000  1
  O  O537  1  0.98110000  0.00436000  0.68282000  1
  O  O538  1  0.96360000  0.50280000  0.36533000  1
  O  O539  1  0.96360000  0.00280000  0.13467000  1
  O  O540  1  0.95634000  0.57793000  0.88950000  1
  O  O541  1  0.95634000  0.07793000  0.61050000  1
  O  O542  1  0.94989000  0.09524000  0.36140000  1
  O  O543  1  0.94989000  0.59524000  0.13860000  1
  O  O544  1  0.88845000  0.42489000  0.88153000  1
  O  O545  1  0.88845000  0.92489000  0.61847000  1
  O  O546  1  0.88527000  0.16216000  0.99485000  1
  O  O547  1  0.88527000  0.66216000  0.50515000  1
  O  O548  1  0.85385000  0.83368000  0.97720000  1
  O  O549  1  0.85385000  0.33368000  0.52280000  1
  O  O550  1  0.85300000  0.46320000  0.79703000  1
  O  O551  1  0.85300000  0.96320000  0.70297000  1
  O  O552  1  0.82364000  0.04754000  0.34088000  1
  O  O553  1  0.82364000  0.54754000  0.15912000  1
  O  O554  1  0.82275000  0.55672000  0.87251000  1
  O  O555  1  0.82275000  0.05672000  0.62749000  1
  O  O556  1  0.75777000  0.38077000  0.88571000  1
  O  O557  1  0.75777000  0.88077000  0.61429000  1
  O  O558  1  0.69040000  0.07617000  0.26994000  1
  O  O559  1  0.69040000  0.57617000  0.23006000  1
  O  O560  1  0.68740000  0.46955000  0.82777000  1
  O  O561  1  0.68740000  0.96955000  0.67223000  1
  O  O562  1  0.67829000  0.09364000  0.35838000  1
  O  O563  1  0.67829000  0.59364000  0.14162000  1
  O  O564  1  0.67823000  0.93452000  0.35958000  1
  O  O565  1  0.67823000  0.43452000  0.14042000  1
  O  O566  1  0.64312000  0.65817000  0.46617000  1
  O  O567  1  0.64312000  0.15817000  0.03383000  1
  O  O568  1  0.60251000  0.32788000  0.47587000  1
  O  O569  1  0.60251000  0.82788000  0.02413000  1
  O  O570  1  0.58687000  0.99159000  0.29197000  1
  O  O571  1  0.58687000  0.49159000  0.20803000  1
  O  O572  1  0.56709000  0.46649000  0.80005000  1
  O  O573  1  0.56709000  0.96649000  0.69995000  1
  O  O574  1  0.54283000  0.05417000  0.36622000  1
  O  O575  1  0.54283000  0.55417000  0.13378000  1
  O  O576  1  0.54104000  0.89671000  0.36150000  1
  O  O577  1  0.54104000  0.39671000  0.13850000  1
  O  O578  1  0.53846000  0.95209000  0.88015000  1
  O  O579  1  0.53846000  0.45209000  0.61985000  1
  O  O580  1  0.46154000  0.54791000  0.38015000  1
  O  O581  1  0.46154000  0.04791000  0.11985000  1
  O  O582  1  0.45896000  0.60329000  0.86150000  1
  O  O583  1  0.45896000  0.10329000  0.63850000  1
  O  O584  1  0.45717000  0.44583000  0.86622000  1
  O  O585  1  0.45717000  0.94583000  0.63378000  1
  O  O586  1  0.43291000  0.03351000  0.30005000  1
  O  O587  1  0.43291000  0.53351000  0.19995000  1
  O  O588  1  0.41313000  0.50841000  0.79197000  1
  O  O589  1  0.41313000  0.00841000  0.70803000  1
  O  O590  1  0.39749000  0.17212000  0.97587000  1
  O  O591  1  0.39749000  0.67212000  0.52413000  1
  O  O592  1  0.35688000  0.84183000  0.96617000  1
  O  O593  1  0.35688000  0.34183000  0.53383000  1
  O  O594  1  0.32177000  0.56548000  0.85958000  1
  O  O595  1  0.32177000  0.06548000  0.64042000  1
  O  O596  1  0.32171000  0.40636000  0.85838000  1
  O  O597  1  0.32171000  0.90636000  0.64162000  1
  O  O598  1  0.31260000  0.03045000  0.32777000  1
  O  O599  1  0.31260000  0.53045000  0.17223000  1
  O  O600  1  0.30960000  0.42383000  0.76994000  1
  O  O601  1  0.30960000  0.92383000  0.73006000  1
  O  O602  1  0.24223000  0.11923000  0.38571000  1
  O  O603  1  0.24223000  0.61923000  0.11429000  1
  O  O604  1  0.17725000  0.94328000  0.37251000  1
  O  O605  1  0.17725000  0.44328000  0.12749000  1
  O  O606  1  0.17636000  0.45246000  0.84088000  1
  O  O607  1  0.17636000  0.95246000  0.65912000  1
  O  O608  1  0.14700000  0.03680000  0.29703000  1
  O  O609  1  0.14700000  0.53680000  0.20297000  1
  O  O610  1  0.14615000  0.66632000  0.47720000  1
  O  O611  1  0.14615000  0.16632000  0.02280000  1
  O  O612  1  0.11473000  0.33784000  0.49485000  1
  O  O613  1  0.11473000  0.83784000  0.00515000  1
  O  O614  1  0.11155000  0.07511000  0.38153000  1
  O  O615  1  0.11155000  0.57511000  0.11847000  1
  O  O616  1  0.05011000  0.40476000  0.86140000  1
  O  O617  1  0.05011000  0.90476000  0.63860000  1
  O  O618  1  0.04366000  0.92207000  0.38950000  1
  O  O619  1  0.04366000  0.42207000  0.11050000  1
  O  O620  1  0.03640000  0.99720000  0.86533000  1
  O  O621  1  0.03640000  0.49720000  0.63467000  1
  O  O622  1  0.01890000  0.99564000  0.31718000  1
  O  O623  1  0.01890000  0.49564000  0.18282000  1
