# generated using pymatgen
data_CaH8C14SO6
_symmetry_space_group_name_H-M   'P 1'
_cell_length_a   5.57610000
_cell_length_b   11.83010000
_cell_length_c   22.79220000
_cell_angle_alpha   100.49300000
_cell_angle_beta   90.00000000
_cell_angle_gamma   90.00000000
_symmetry_Int_Tables_number   1
_chemical_formula_structural   CaH8C14SO6
_chemical_formula_sum   'Ca4 H32 C56 S4 O24'
_cell_volume   1478.36329004
_cell_formula_units_Z   4
loop_
 _symmetry_equiv_pos_site_id
 _symmetry_equiv_pos_as_xyz
  1  'x, y, z'
loop_
 _atom_site_type_symbol
 _atom_site_label
 _atom_site_symmetry_multiplicity
 _atom_site_fract_x
 _atom_site_fract_y
 _atom_site_fract_z
 _atom_site_occupancy
  Ca  Ca0  1  0.24362000  0.36341000  0.27716000  1
  Ca  Ca1  1  0.25638000  0.86341000  0.77716000  1
  Ca  Ca2  1  0.74362000  0.13659000  0.22284000  1
  Ca  Ca3  1  0.75638000  0.63659000  0.72284000  1
  H  H4  1  0.02190000  0.68390000  0.21940000  1
  H  H5  1  0.02860000  0.87320000  0.93600000  1
  H  H6  1  0.05530000  0.07910000  0.96270000  1
  H  H7  1  0.06370000  0.16150000  0.82710000  1
  H  H8  1  0.11870000  0.04360000  0.66900000  1
  H  H9  1  0.12470000  0.23240000  0.40590000  1
  H  H10  1  0.19870000  0.19350000  0.61830000  1
  H  H11  1  0.20630000  0.27500000  0.50750000  1
  H  H12  1  0.29370000  0.77500000  0.00750000  1
  H  H13  1  0.30130000  0.69350000  0.11830000  1
  H  H14  1  0.37530000  0.73240000  0.90590000  1
  H  H15  1  0.38130000  0.54360000  0.16900000  1
  H  H16  1  0.43630000  0.66150000  0.32710000  1
  H  H17  1  0.44470000  0.57910000  0.46270000  1
  H  H18  1  0.47140000  0.37320000  0.43600000  1
  H  H19  1  0.47810000  0.18390000  0.71940000  1
  H  H20  1  0.52190000  0.81610000  0.28060000  1
  H  H21  1  0.52860000  0.62680000  0.56400000  1
  H  H22  1  0.55530000  0.42090000  0.53730000  1
  H  H23  1  0.56370000  0.33850000  0.67290000  1
  H  H24  1  0.61870000  0.45640000  0.83100000  1
  H  H25  1  0.62470000  0.26760000  0.09410000  1
  H  H26  1  0.69870000  0.30650000  0.88170000  1
  H  H27  1  0.70630000  0.22500000  0.99250000  1
  H  H28  1  0.79370000  0.72500000  0.49250000  1
  H  H29  1  0.80130000  0.80650000  0.38170000  1
  H  H30  1  0.87530000  0.76760000  0.59410000  1
  H  H31  1  0.88130000  0.95640000  0.33100000  1
  H  H32  1  0.93630000  0.83850000  0.17290000  1
  H  H33  1  0.94470000  0.92090000  0.03730000  1
  H  H34  1  0.97140000  0.12680000  0.06400000  1
  H  H35  1  0.97810000  0.31610000  0.78060000  1
  C  C36  1  0.00720000  0.10220000  0.66938000  1
  C  C37  1  0.01120000  0.27060000  0.43216000  1
  C  C38  1  0.05660000  0.19230000  0.63956000  1
  C  C39  1  0.06090000  0.29650000  0.49288000  1
  C  C40  1  0.10920000  0.64520000  0.46866000  1
  C  C41  1  0.11040000  0.71937000  0.35797000  1
  C  C42  1  0.12050000  0.14440000  0.04971000  1
  C  C43  1  0.12420000  0.31280000  0.79992000  1
  C  C44  1  0.16930000  0.11650000  0.98913000  1
  C  C45  1  0.17360000  0.22090000  0.82817000  1
  C  C46  1  0.20740000  0.69845000  0.58926000  1
  C  C47  1  0.20760000  0.90045000  0.30037000  1
  C  C48  1  0.23880000  0.22297000  0.15511000  1
  C  C49  1  0.24130000  0.49560000  0.76542000  1
  C  C50  1  0.25870000  0.99560000  0.26542000  1
  C  C51  1  0.26120000  0.72297000  0.65511000  1
  C  C52  1  0.29240000  0.40045000  0.80037000  1
  C  C53  1  0.29260000  0.19845000  0.08926000  1
  C  C54  1  0.32640000  0.72090000  0.32817000  1
  C  C55  1  0.33070000  0.61650000  0.48913000  1
  C  C56  1  0.37580000  0.81280000  0.29992000  1
  C  C57  1  0.37950000  0.64440000  0.54971000  1
  C  C58  1  0.38960000  0.21937000  0.85797000  1
  C  C59  1  0.39080000  0.14520000  0.96866000  1
  C  C60  1  0.43910000  0.79650000  0.99288000  1
  C  C61  1  0.44340000  0.69230000  0.13956000  1
  C  C62  1  0.48880000  0.77060000  0.93216000  1
  C  C63  1  0.49280000  0.60220000  0.16938000  1
  C  C64  1  0.50720000  0.39780000  0.83062000  1
  C  C65  1  0.51120000  0.22940000  0.06784000  1
  C  C66  1  0.55660000  0.30770000  0.86044000  1
  C  C67  1  0.56090000  0.20350000  0.00712000  1
  C  C68  1  0.60920000  0.85480000  0.03134000  1
  C  C69  1  0.61040000  0.78063000  0.14203000  1
  C  C70  1  0.62050000  0.35560000  0.45029000  1
  C  C71  1  0.62420000  0.18720000  0.70008000  1
  C  C72  1  0.66930000  0.38350000  0.51087000  1
  C  C73  1  0.67360000  0.27910000  0.67183000  1
  C  C74  1  0.70740000  0.80155000  0.91074000  1
  C  C75  1  0.70760000  0.59955000  0.19963000  1
  C  C76  1  0.73880000  0.27703000  0.34489000  1
  C  C77  1  0.74130000  0.00440000  0.73458000  1
  C  C78  1  0.75870000  0.50440000  0.23458000  1
  C  C79  1  0.76120000  0.77703000  0.84489000  1
  C  C80  1  0.79240000  0.09955000  0.69963000  1
  C  C81  1  0.79260000  0.30155000  0.41074000  1
  C  C82  1  0.82640000  0.77910000  0.17183000  1
  C  C83  1  0.83070000  0.88350000  0.01087000  1
  C  C84  1  0.87580000  0.68720000  0.20008000  1
  C  C85  1  0.87950000  0.85560000  0.95029000  1
  C  C86  1  0.88960000  0.28063000  0.64203000  1
  C  C87  1  0.89080000  0.35480000  0.53134000  1
  C  C88  1  0.93910000  0.70350000  0.50712000  1
  C  C89  1  0.94340000  0.80770000  0.36044000  1
  C  C90  1  0.98880000  0.72940000  0.56784000  1
  C  C91  1  0.99280000  0.89780000  0.33062000  1
  S  S92  1  0.03618000  0.60211000  0.39229000  1
  S  S93  1  0.46382000  0.10211000  0.89229000  1
  S  S94  1  0.53618000  0.89789000  0.10771000  1
  S  S95  1  0.96382000  0.39789000  0.60771000  1
  O  O96  1  0.02490000  0.23181000  0.17169000  1
  O  O97  1  0.02550000  0.51599000  0.75668000  1
  O  O98  1  0.08080000  0.04325000  0.24735000  1
  O  O99  1  0.08560000  0.73728000  0.69073000  1
  O  O100  1  0.19450000  0.50697000  0.36877000  1
  O  O101  1  0.21890000  0.41492000  0.61179000  1
  O  O102  1  0.28110000  0.91492000  0.11179000  1
  O  O103  1  0.30550000  0.00697000  0.86877000  1
  O  O104  1  0.41440000  0.23728000  0.19073000  1
  O  O105  1  0.41920000  0.54325000  0.74735000  1
  O  O106  1  0.47450000  0.01599000  0.25668000  1
  O  O107  1  0.47510000  0.73181000  0.67169000  1
  O  O108  1  0.52490000  0.26819000  0.32831000  1
  O  O109  1  0.52550000  0.98401000  0.74332000  1
  O  O110  1  0.58080000  0.45675000  0.25265000  1
  O  O111  1  0.58560000  0.76272000  0.80927000  1
  O  O112  1  0.69450000  0.99303000  0.13123000  1
  O  O113  1  0.71890000  0.08508000  0.88821000  1
  O  O114  1  0.78110000  0.58508000  0.38821000  1
  O  O115  1  0.80550000  0.49303000  0.63123000  1
  O  O116  1  0.91440000  0.26272000  0.30927000  1
  O  O117  1  0.91920000  0.95675000  0.75265000  1
  O  O118  1  0.97450000  0.48401000  0.24332000  1
  O  O119  1  0.97510000  0.76819000  0.82831000  1
