# generated using pymatgen
data_Cu2C5N2
_symmetry_space_group_name_H-M   'P 1'
_cell_length_a   12.34440000
_cell_length_b   13.35220000
_cell_length_c   14.33840000
_cell_angle_alpha   90.00000000
_cell_angle_beta   90.00000000
_cell_angle_gamma   90.00000000
_symmetry_Int_Tables_number   1
_chemical_formula_structural   Cu2C5N2
_chemical_formula_sum   'Cu16 C40 N16'
_cell_volume   2363.32531289
_cell_formula_units_Z   8
loop_
 _symmetry_equiv_pos_site_id
 _symmetry_equiv_pos_as_xyz
  1  'x, y, z'
loop_
 _atom_site_type_symbol
 _atom_site_label
 _atom_site_symmetry_multiplicity
 _atom_site_fract_x
 _atom_site_fract_y
 _atom_site_fract_z
 _atom_site_occupancy
  Cu  Cu0  1  0.53896000  0.43738000  0.94566000  1
  Cu  Cu1  1  0.53896000  0.06262000  0.94566000  1
  Cu  Cu2  1  0.13657000  0.44357000  0.87818000  1
  Cu  Cu3  1  0.13657000  0.05643000  0.87818000  1
  Cu  Cu4  1  0.63657000  0.94357000  0.62182000  1
  Cu  Cu5  1  0.63657000  0.55643000  0.62182000  1
  Cu  Cu6  1  0.03896000  0.93738000  0.55434000  1
  Cu  Cu7  1  0.03896000  0.56262000  0.55434000  1
  Cu  Cu8  1  0.96104000  0.43738000  0.44566000  1
  Cu  Cu9  1  0.96104000  0.06262000  0.44566000  1
  Cu  Cu10  1  0.36343000  0.44357000  0.37818000  1
  Cu  Cu11  1  0.36343000  0.05643000  0.37818000  1
  Cu  Cu12  1  0.86343000  0.94357000  0.12182000  1
  Cu  Cu13  1  0.86343000  0.55643000  0.12182000  1
  Cu  Cu14  1  0.46104000  0.93738000  0.05434000  1
  Cu  Cu15  1  0.46104000  0.56262000  0.05434000  1
  C  C16  1  0.03150000  0.48790000  0.97240000  1
  C  C17  1  0.03150000  0.01210000  0.97240000  1
  C  C18  1  0.54090000  0.29330000  0.96890000  1
  C  C19  1  0.54090000  0.20670000  0.96890000  1
  C  C20  1  0.36980000  0.48560000  0.95810000  1
  C  C21  1  0.36980000  0.01440000  0.95810000  1
  C  C22  1  0.13500000  0.29460000  0.86460000  1
  C  C23  1  0.13500000  0.20540000  0.86460000  1
  C  C24  1  0.58080000  0.47090000  0.81890000  1
  C  C25  1  0.58080000  0.02910000  0.81890000  1
  C  C26  1  0.08080000  0.97090000  0.68110000  1
  C  C27  1  0.08080000  0.52910000  0.68110000  1
  C  C28  1  0.63500000  0.79460000  0.63540000  1
  C  C29  1  0.63500000  0.70540000  0.63540000  1
  C  C30  1  0.86980000  0.98560000  0.54190000  1
  C  C31  1  0.86980000  0.51440000  0.54190000  1
  C  C32  1  0.04090000  0.79330000  0.53110000  1
  C  C33  1  0.04090000  0.70670000  0.53110000  1
  C  C34  1  0.53150000  0.98790000  0.52760000  1
  C  C35  1  0.53150000  0.51210000  0.52760000  1
  C  C36  1  0.46850000  0.48790000  0.47240000  1
  C  C37  1  0.46850000  0.01210000  0.47240000  1
  C  C38  1  0.95910000  0.29330000  0.46890000  1
  C  C39  1  0.95910000  0.20670000  0.46890000  1
  C  C40  1  0.13020000  0.48560000  0.45810000  1
  C  C41  1  0.13020000  0.01440000  0.45810000  1
  C  C42  1  0.36500000  0.29460000  0.36460000  1
  C  C43  1  0.36500000  0.20540000  0.36460000  1
  C  C44  1  0.91920000  0.47090000  0.31890000  1
  C  C45  1  0.91920000  0.02910000  0.31890000  1
  C  C46  1  0.41920000  0.97090000  0.18110000  1
  C  C47  1  0.41920000  0.52910000  0.18110000  1
  C  C48  1  0.86500000  0.79460000  0.13540000  1
  C  C49  1  0.86500000  0.70540000  0.13540000  1
  C  C50  1  0.63020000  0.98560000  0.04190000  1
  C  C51  1  0.63020000  0.51440000  0.04190000  1
  C  C52  1  0.45910000  0.79330000  0.03110000  1
  C  C53  1  0.45910000  0.70670000  0.03110000  1
  C  C54  1  0.96850000  0.98790000  0.02760000  1
  C  C55  1  0.96850000  0.51210000  0.02760000  1
  N  N56  1  0.28850000  0.47120000  0.92500000  1
  N  N57  1  0.28850000  0.02880000  0.92500000  1
  N  N58  1  0.10670000  0.99510000  0.75460000  1
  N  N59  1  0.10670000  0.50490000  0.75460000  1
  N  N60  1  0.60670000  0.49510000  0.74540000  1
  N  N61  1  0.60670000  0.00490000  0.74540000  1
  N  N62  1  0.78850000  0.97120000  0.57500000  1
  N  N63  1  0.78850000  0.52880000  0.57500000  1
  N  N64  1  0.21150000  0.47120000  0.42500000  1
  N  N65  1  0.21150000  0.02880000  0.42500000  1
  N  N66  1  0.39330000  0.99510000  0.25460000  1
  N  N67  1  0.39330000  0.50490000  0.25460000  1
  N  N68  1  0.89330000  0.49510000  0.24540000  1
  N  N69  1  0.89330000  0.00490000  0.24540000  1
  N  N70  1  0.71150000  0.97120000  0.07500000  1
  N  N71  1  0.71150000  0.52880000  0.07500000  1
