# generated using pymatgen
data_ZnH16(C5N2)4
_symmetry_space_group_name_H-M   'P 1'
_cell_length_a   23.12380596
_cell_length_b   23.12380596
_cell_length_c   23.12380596
_cell_angle_alpha   60.00000000
_cell_angle_beta   60.00000000
_cell_angle_gamma   60.00000000
_symmetry_Int_Tables_number   1
_chemical_formula_structural   ZnH16(C5N2)4
_chemical_formula_sum   'Zn12 H192 C240 N96'
_cell_volume   8743.04978310
_cell_formula_units_Z   12
loop_
 _symmetry_equiv_pos_site_id
 _symmetry_equiv_pos_as_xyz
  1  'x, y, z'
loop_
 _atom_site_type_symbol
 _atom_site_label
 _atom_site_symmetry_multiplicity
 _atom_site_fract_x
 _atom_site_fract_y
 _atom_site_fract_z
 _atom_site_occupancy
  C  C0  1  0.01490000  0.98070000  0.40770000  1
  C  C1  1  0.48070000  0.51490000  0.90770000  1
  C  C2  1  0.51490000  0.48070000  0.59670000  1
  C  C3  1  0.98070000  0.01490000  0.09670000  1
  C  C4  1  0.53577000  0.45297000  0.41923000  1
  C  C5  1  0.95297000  0.03577000  0.91923000  1
  C  C6  1  0.03577000  0.95297000  0.59203000  1
  C  C7  1  0.45297000  0.53577000  0.09203000  1
  C  C8  1  0.03577000  0.91923000  0.95297000  1
  C  C9  1  0.41923000  0.53577000  0.45297000  1
  C  C10  1  0.53577000  0.41923000  0.09203000  1
  C  C11  1  0.91923000  0.03577000  0.59203000  1
  C  C12  1  0.81300000  0.13900000  0.96040000  1
  C  C13  1  0.13900000  0.81300000  0.58760000  1
  C  C14  1  0.31300000  0.63900000  0.08760000  1
  C  C15  1  0.63900000  0.31300000  0.46040000  1
  C  C16  1  0.90330000  0.01930000  0.98510000  1
  C  C17  1  0.01930000  0.90330000  0.59230000  1
  C  C18  1  0.40330000  0.51930000  0.09230000  1
  C  C19  1  0.51930000  0.40330000  0.48510000  1
  C  C20  1  0.16520000  0.74300000  0.59800000  1
  C  C21  1  0.74300000  0.16520000  0.99380000  1
  C  C22  1  0.24300000  0.66520000  0.09800000  1
  C  C23  1  0.66520000  0.24300000  0.49380000  1
  C  C24  1  0.03960000  0.86100000  0.41240000  1
  C  C25  1  0.36100000  0.53960000  0.91240000  1
  C  C26  1  0.53960000  0.36100000  0.68700000  1
  C  C27  1  0.86100000  0.03960000  0.18700000  1
  C  C28  1  0.40330000  0.48510000  0.51930000  1
  C  C29  1  0.48510000  0.40330000  0.09230000  1
  C  C30  1  0.90330000  0.98510000  0.59230000  1
  C  C31  1  0.98510000  0.90330000  0.01930000  1
  C  C32  1  0.94062000  0.93936000  0.39838000  1
  C  C33  1  0.43936000  0.44062000  0.89838000  1
  C  C34  1  0.44062000  0.43936000  0.72164000  1
  C  C35  1  0.93936000  0.94062000  0.22164000  1
  C  C36  1  0.45297000  0.41923000  0.53577000  1
  C  C37  1  0.91923000  0.95297000  0.03577000  1
  C  C38  1  0.95297000  0.91923000  0.59203000  1
  C  C39  1  0.41923000  0.45297000  0.09203000  1
  C  C40  1  0.00620000  0.83480000  0.40200000  1
  C  C41  1  0.50620000  0.33480000  0.75700000  1
  C  C42  1  0.33480000  0.50620000  0.90200000  1
  C  C43  1  0.83480000  0.00620000  0.25700000  1
  C  C44  1  0.77836000  0.06064000  0.05938000  1
  C  C45  1  0.06064000  0.77836000  0.60162000  1
  C  C46  1  0.27836000  0.56064000  0.10162000  1
  C  C47  1  0.56064000  0.27836000  0.55938000  1
  C  C48  1  0.27836000  0.55938000  0.56064000  1
  C  C49  1  0.55938000  0.27836000  0.10162000  1
  C  C50  1  0.77836000  0.05938000  0.60162000  1
  C  C51  1  0.05938000  0.77836000  0.06064000  1
  C  C52  1  0.31300000  0.46040000  0.63900000  1
  C  C53  1  0.46040000  0.31300000  0.08760000  1
  C  C54  1  0.81300000  0.96040000  0.58760000  1
  C  C55  1  0.96040000  0.81300000  0.13900000  1
  C  C56  1  0.66520000  0.09800000  0.24300000  1
  C  C57  1  0.09800000  0.66520000  0.49380000  1
  C  C58  1  0.59800000  0.16520000  0.74300000  1
  C  C59  1  0.16520000  0.59800000  0.99380000  1
  C  C60  1  0.24300000  0.49380000  0.66520000  1
  C  C61  1  0.49380000  0.24300000  0.09800000  1
  C  C62  1  0.74300000  0.99380000  0.59800000  1
  C  C63  1  0.99380000  0.74300000  0.16520000  1
  C  C64  1  0.63900000  0.08760000  0.31300000  1
  C  C65  1  0.08760000  0.63900000  0.46040000  1
  C  C66  1  0.58760000  0.13900000  0.81300000  1
  C  C67  1  0.13900000  0.58760000  0.96040000  1
  C  C68  1  0.56064000  0.10162000  0.27836000  1
  C  C69  1  0.10162000  0.56064000  0.55938000  1
  C  C70  1  0.60162000  0.06064000  0.77836000  1
  C  C71  1  0.06064000  0.60162000  0.05938000  1
  C  C72  1  0.05938000  0.60162000  0.77836000  1
  C  C73  1  0.60162000  0.05938000  0.06064000  1
  C  C74  1  0.10162000  0.55938000  0.27836000  1
  C  C75  1  0.55938000  0.10162000  0.56064000  1
  C  C76  1  0.40200000  0.25700000  0.00620000  1
  C  C77  1  0.75700000  0.90200000  0.50620000  1
  C  C78  1  0.90200000  0.75700000  0.33480000  1
  C  C79  1  0.25700000  0.40200000  0.83480000  1
  C  C80  1  0.53577000  0.09203000  0.45297000  1
  C  C81  1  0.03577000  0.59203000  0.91923000  1
  C  C82  1  0.59203000  0.03577000  0.95297000  1
  C  C83  1  0.09203000  0.53577000  0.41923000  1
  C  C84  1  0.39838000  0.22164000  0.94062000  1
  C  C85  1  0.89838000  0.72164000  0.43936000  1
  C  C86  1  0.72164000  0.89838000  0.44062000  1
  C  C87  1  0.22164000  0.39838000  0.93936000  1
  C  C88  1  0.51930000  0.09230000  0.40330000  1
  C  C89  1  0.09230000  0.51930000  0.48510000  1
  C  C90  1  0.59230000  0.01930000  0.90330000  1
  C  C91  1  0.01930000  0.59230000  0.98510000  1
  C  C92  1  0.41240000  0.18700000  0.03960000  1
  C  C93  1  0.91240000  0.68700000  0.36100000  1
  C  C94  1  0.68700000  0.91240000  0.53960000  1
  C  C95  1  0.18700000  0.41240000  0.86100000  1
  C  C96  1  0.59800000  0.99380000  0.16520000  1
  C  C97  1  0.99380000  0.59800000  0.74300000  1
  C  C98  1  0.09800000  0.49380000  0.24300000  1
  C  C99  1  0.49380000  0.09800000  0.66520000  1
  C  C100  1  0.98510000  0.59230000  0.90330000  1
  C  C101  1  0.59230000  0.98510000  0.01930000  1
  C  C102  1  0.09230000  0.48510000  0.40330000  1
  C  C103  1  0.48510000  0.09230000  0.51930000  1
  C  C104  1  0.96040000  0.58760000  0.81300000  1
  C  C105  1  0.58760000  0.96040000  0.13900000  1
  C  C106  1  0.08760000  0.46040000  0.31300000  1
  C  C107  1  0.46040000  0.08760000  0.63900000  1
  C  C108  1  0.95297000  0.59203000  0.03577000  1
  C  C109  1  0.45297000  0.09203000  0.41923000  1
  C  C110  1  0.09203000  0.45297000  0.53577000  1
  C  C111  1  0.59203000  0.95297000  0.91923000  1
  C  C112  1  0.41923000  0.09203000  0.53577000  1
  C  C113  1  0.91923000  0.59203000  0.95297000  1
  C  C114  1  0.59203000  0.91923000  0.03577000  1
  C  C115  1  0.09203000  0.41923000  0.45297000  1
  C  C116  1  0.40770000  0.09670000  0.01490000  1
  C  C117  1  0.90770000  0.59670000  0.48070000  1
  C  C118  1  0.59670000  0.90770000  0.51490000  1
  C  C119  1  0.09670000  0.40770000  0.98070000  1
  C  C120  1  0.90330000  0.59230000  0.01930000  1
  C  C121  1  0.40330000  0.09230000  0.48510000  1
  C  C122  1  0.09230000  0.40330000  0.51930000  1
  C  C123  1  0.59230000  0.90330000  0.98510000  1
  C  C124  1  0.90797000  0.58077000  0.54703000  1
  C  C125  1  0.40797000  0.08077000  0.96423000  1
  C  C126  1  0.08077000  0.40797000  0.04703000  1
  C  C127  1  0.58077000  0.90797000  0.46423000  1
  C  C128  1  0.40797000  0.04703000  0.08077000  1
  C  C129  1  0.90797000  0.54703000  0.46423000  1
  C  C130  1  0.54703000  0.90797000  0.58077000  1
  C  C131  1  0.04703000  0.40797000  0.96423000  1
  C  C132  1  0.53960000  0.91240000  0.36100000  1
  C  C133  1  0.91240000  0.53960000  0.68700000  1
  C  C134  1  0.41240000  0.03960000  0.86100000  1
  C  C135  1  0.03960000  0.41240000  0.18700000  1
  C  C136  1  0.51490000  0.90770000  0.48070000  1
  C  C137  1  0.90770000  0.51490000  0.59670000  1
  C  C138  1  0.40770000  0.01490000  0.98070000  1
  C  C139  1  0.01490000  0.40770000  0.09670000  1
  C  C140  1  0.50620000  0.90200000  0.33480000  1
  C  C141  1  0.90200000  0.50620000  0.75700000  1
  C  C142  1  0.00620000  0.40200000  0.25700000  1
  C  C143  1  0.40200000  0.00620000  0.83480000  1
  C  C144  1  0.81300000  0.58760000  0.13900000  1
  C  C145  1  0.31300000  0.08760000  0.46040000  1
  C  C146  1  0.08760000  0.31300000  0.63900000  1
  C  C147  1  0.58760000  0.81300000  0.96040000  1
  C  C148  1  0.98070000  0.40770000  0.01490000  1
  C  C149  1  0.40770000  0.98070000  0.09670000  1
  C  C150  1  0.90770000  0.48070000  0.51490000  1
  C  C151  1  0.48070000  0.90770000  0.59670000  1
  C  C152  1  0.77836000  0.60162000  0.06064000  1
  C  C153  1  0.27836000  0.10162000  0.55938000  1
  C  C154  1  0.10162000  0.27836000  0.56064000  1
  C  C155  1  0.60162000  0.77836000  0.05938000  1
  C  C156  1  0.90797000  0.46423000  0.58077000  1
  C  C157  1  0.40797000  0.96423000  0.04703000  1
  C  C158  1  0.96423000  0.40797000  0.08077000  1
  C  C159  1  0.46423000  0.90797000  0.54703000  1
  C  C160  1  0.74300000  0.59800000  0.16520000  1
  C  C161  1  0.09800000  0.24300000  0.66520000  1
  C  C162  1  0.24300000  0.09800000  0.49380000  1
  C  C163  1  0.59800000  0.74300000  0.99380000  1
  C  C164  1  0.44062000  0.89838000  0.43936000  1
  C  C165  1  0.89838000  0.44062000  0.72164000  1
  C  C166  1  0.39838000  0.94062000  0.93936000  1
  C  C167  1  0.94062000  0.39838000  0.22164000  1
  C  C168  1  0.93936000  0.39838000  0.94062000  1
  C  C169  1  0.39838000  0.93936000  0.22164000  1
  C  C170  1  0.89838000  0.43936000  0.44062000  1
  C  C171  1  0.43936000  0.89838000  0.72164000  1
  C  C172  1  0.86100000  0.41240000  0.03960000  1
  C  C173  1  0.41240000  0.86100000  0.18700000  1
  C  C174  1  0.91240000  0.36100000  0.53960000  1
  C  C175  1  0.36100000  0.91240000  0.68700000  1
  C  C176  1  0.00620000  0.25700000  0.83480000  1
  C  C177  1  0.25700000  0.00620000  0.40200000  1
  C  C178  1  0.50620000  0.75700000  0.90200000  1
  C  C179  1  0.75700000  0.50620000  0.33480000  1
  C  C180  1  0.83480000  0.40200000  0.00620000  1
  C  C181  1  0.40200000  0.83480000  0.25700000  1
  C  C182  1  0.90200000  0.33480000  0.50620000  1
  C  C183  1  0.33480000  0.90200000  0.75700000  1
  C  C184  1  0.03960000  0.18700000  0.86100000  1
  C  C185  1  0.18700000  0.03960000  0.41240000  1
  C  C186  1  0.53960000  0.68700000  0.91240000  1
  C  C187  1  0.68700000  0.53960000  0.36100000  1
  C  C188  1  0.94062000  0.22164000  0.93936000  1
  C  C189  1  0.22164000  0.94062000  0.39838000  1
  C  C190  1  0.44062000  0.72164000  0.89838000  1
  C  C191  1  0.72164000  0.44062000  0.43936000  1
  C  C192  1  0.43936000  0.72164000  0.44062000  1
  C  C193  1  0.72164000  0.43936000  0.89838000  1
  C  C194  1  0.93936000  0.22164000  0.39838000  1
  C  C195  1  0.22164000  0.93936000  0.94062000  1
  C  C196  1  0.16520000  0.99380000  0.74300000  1
  C  C197  1  0.66520000  0.49380000  0.09800000  1
  C  C198  1  0.49380000  0.66520000  0.24300000  1
  C  C199  1  0.99380000  0.16520000  0.59800000  1
  C  C200  1  0.58077000  0.54703000  0.90797000  1
  C  C201  1  0.04703000  0.08077000  0.40797000  1
  C  C202  1  0.08077000  0.04703000  0.96423000  1
  C  C203  1  0.54703000  0.58077000  0.46423000  1
  C  C204  1  0.06064000  0.05938000  0.77836000  1
  C  C205  1  0.55938000  0.56064000  0.27836000  1
  C  C206  1  0.56064000  0.55938000  0.10162000  1
  C  C207  1  0.05938000  0.06064000  0.60162000  1
  C  C208  1  0.01490000  0.09670000  0.98070000  1
  C  C209  1  0.09670000  0.01490000  0.40770000  1
  C  C210  1  0.51490000  0.59670000  0.90770000  1
  C  C211  1  0.59670000  0.51490000  0.48070000  1
  C  C212  1  0.13900000  0.96040000  0.81300000  1
  C  C213  1  0.46040000  0.63900000  0.31300000  1
  C  C214  1  0.63900000  0.46040000  0.08760000  1
  C  C215  1  0.96040000  0.13900000  0.58760000  1
  C  C216  1  0.33480000  0.75700000  0.50620000  1
  C  C217  1  0.75700000  0.33480000  0.90200000  1
  C  C218  1  0.25700000  0.83480000  0.00620000  1
  C  C219  1  0.83480000  0.25700000  0.40200000  1
  C  C220  1  0.48070000  0.59670000  0.51490000  1
  C  C221  1  0.59670000  0.48070000  0.90770000  1
  C  C222  1  0.98070000  0.09670000  0.40770000  1
  C  C223  1  0.09670000  0.98070000  0.01490000  1
  C  C224  1  0.36100000  0.68700000  0.53960000  1
  C  C225  1  0.68700000  0.36100000  0.91240000  1
  C  C226  1  0.86100000  0.18700000  0.41240000  1
  C  C227  1  0.18700000  0.86100000  0.03960000  1
  C  C228  1  0.08077000  0.96423000  0.40797000  1
  C  C229  1  0.46423000  0.58077000  0.90797000  1
  C  C230  1  0.58077000  0.46423000  0.54703000  1
  C  C231  1  0.96423000  0.08077000  0.04703000  1
  C  C232  1  0.54703000  0.46423000  0.90797000  1
  C  C233  1  0.96423000  0.04703000  0.40797000  1
  C  C234  1  0.04703000  0.96423000  0.08077000  1
  C  C235  1  0.46423000  0.54703000  0.58077000  1
  C  C236  1  0.01930000  0.98510000  0.90330000  1
  C  C237  1  0.48510000  0.51930000  0.40330000  1
  C  C238  1  0.51930000  0.48510000  0.09230000  1
  C  C239  1  0.98510000  0.01930000  0.59230000  1
  H  H240  1  0.33630000  0.65870000  0.58310000  1
  H  H241  1  0.65870000  0.33630000  0.92190000  1
  H  H242  1  0.83630000  0.15870000  0.42190000  1
  H  H243  1  0.15870000  0.83630000  0.08310000  1
  H  H244  1  0.55800000  0.41860000  0.90820000  1
  H  H245  1  0.91860000  0.05800000  0.40820000  1
  H  H246  1  0.05800000  0.91860000  0.11520000  1
  H  H247  1  0.41860000  0.55800000  0.61520000  1
  H  H248  1  0.38480000  0.58140000  0.44200000  1
  H  H249  1  0.58140000  0.38480000  0.09180000  1
  H  H250  1  0.88480000  0.08140000  0.59180000  1
  H  H251  1  0.08140000  0.88480000  0.94200000  1
  H  H252  1  0.21100000  0.71260000  0.60120000  1
  H  H253  1  0.71260000  0.21100000  0.97520000  1
  H  H254  1  0.21260000  0.71100000  0.10120000  1
  H  H255  1  0.71100000  0.21260000  0.47520000  1
  H  H256  1  0.83630000  0.08310000  0.15870000  1
  H  H257  1  0.08310000  0.83630000  0.42190000  1
  H  H258  1  0.33630000  0.58310000  0.92190000  1
  H  H259  1  0.58310000  0.33630000  0.65870000  1
  H  H260  1  0.48280000  0.40220000  0.89400000  1
  H  H261  1  0.90220000  0.98280000  0.39400000  1
  H  H262  1  0.98280000  0.90220000  0.22100000  1
  H  H263  1  0.40220000  0.48280000  0.72100000  1
  H  H264  1  0.27900000  0.59780000  0.51720000  1
  H  H265  1  0.59780000  0.27900000  0.10600000  1
  H  H266  1  0.77900000  0.09780000  0.60600000  1
  H  H267  1  0.09780000  0.77900000  0.01720000  1
  H  H268  1  0.88480000  0.94200000  0.08140000  1
  H  H269  1  0.94200000  0.88480000  0.59180000  1
  H  H270  1  0.38480000  0.44200000  0.09180000  1
  H  H271  1  0.44200000  0.38480000  0.58140000  1
  H  H272  1  0.02480000  0.78900000  0.39880000  1
  H  H273  1  0.52480000  0.28900000  0.78740000  1
  H  H274  1  0.28900000  0.52480000  0.89880000  1
  H  H275  1  0.78900000  0.02480000  0.28740000  1
  H  H276  1  0.71100000  0.10120000  0.21260000  1
  H  H277  1  0.10120000  0.71100000  0.47520000  1
  H  H278  1  0.60120000  0.21100000  0.71260000  1
  H  H279  1  0.21100000  0.60120000  0.97520000  1
  H  H280  1  0.77900000  0.01720000  0.09780000  1
  H  H281  1  0.01720000  0.77900000  0.60600000  1
  H  H282  1  0.27900000  0.51720000  0.10600000  1
  H  H283  1  0.51720000  0.27900000  0.59780000  1
  H  H284  1  0.41690000  0.34130000  0.07810000  1
  H  H285  1  0.84130000  0.91690000  0.57810000  1
  H  H286  1  0.91690000  0.84130000  0.16370000  1
  H  H287  1  0.34130000  0.41690000  0.66370000  1
  H  H288  1  0.07810000  0.66370000  0.41690000  1
  H  H289  1  0.57810000  0.16370000  0.84130000  1
  H  H290  1  0.16370000  0.57810000  0.91690000  1
  H  H291  1  0.66370000  0.07810000  0.34130000  1
  H  H292  1  0.09780000  0.60600000  0.77900000  1
  H  H293  1  0.60600000  0.09780000  0.01720000  1
  H  H294  1  0.10600000  0.59780000  0.27900000  1
  H  H295  1  0.59780000  0.10600000  0.51720000  1
  H  H296  1  0.21260000  0.47520000  0.71100000  1
  H  H297  1  0.47520000  0.21260000  0.10120000  1
  H  H298  1  0.71260000  0.97520000  0.60120000  1
  H  H299  1  0.97520000  0.71260000  0.21100000  1
  H  H300  1  0.39880000  0.28740000  0.02480000  1
  H  H301  1  0.78740000  0.89880000  0.52480000  1
  H  H302  1  0.89880000  0.78740000  0.28900000  1
  H  H303  1  0.28740000  0.39880000  0.78900000  1
  H  H304  1  0.08140000  0.59180000  0.88480000  1
  H  H305  1  0.59180000  0.08140000  0.94200000  1
  H  H306  1  0.09180000  0.58140000  0.38480000  1
  H  H307  1  0.58140000  0.09180000  0.44200000  1
  H  H308  1  0.51720000  0.10600000  0.27900000  1
  H  H309  1  0.10600000  0.51720000  0.59780000  1
  H  H310  1  0.60600000  0.01720000  0.77900000  1
  H  H311  1  0.01720000  0.60600000  0.09780000  1
  H  H312  1  0.89400000  0.72100000  0.48280000  1
  H  H313  1  0.39400000  0.22100000  0.90220000  1
  H  H314  1  0.22100000  0.39400000  0.98280000  1
  H  H315  1  0.72100000  0.89400000  0.40220000  1
  H  H316  1  0.15870000  0.42190000  0.83630000  1
  H  H317  1  0.42190000  0.15870000  0.08310000  1
  H  H318  1  0.92190000  0.65870000  0.33630000  1
  H  H319  1  0.65870000  0.92190000  0.58310000  1
  H  H320  1  0.60120000  0.97520000  0.21100000  1
  H  H321  1  0.97520000  0.60120000  0.71260000  1
  H  H322  1  0.10120000  0.47520000  0.21260000  1
  H  H323  1  0.47520000  0.10120000  0.71100000  1
  H  H324  1  0.44200000  0.09180000  0.38480000  1
  H  H325  1  0.09180000  0.44200000  0.58140000  1
  H  H326  1  0.59180000  0.94200000  0.88480000  1
  H  H327  1  0.94200000  0.59180000  0.08140000  1
  H  H328  1  0.90820000  0.61520000  0.55800000  1
  H  H329  1  0.40820000  0.11520000  0.91860000  1
  H  H330  1  0.11520000  0.40820000  0.05800000  1
  H  H331  1  0.61520000  0.90820000  0.41860000  1
  H  H332  1  0.58310000  0.92190000  0.33630000  1
  H  H333  1  0.92190000  0.58310000  0.65870000  1
  H  H334  1  0.42190000  0.08310000  0.83630000  1
  H  H335  1  0.08310000  0.42190000  0.15870000  1
  H  H336  1  0.91690000  0.57810000  0.84130000  1
  H  H337  1  0.57810000  0.91690000  0.16370000  1
  H  H338  1  0.07810000  0.41690000  0.34130000  1
  H  H339  1  0.41690000  0.07810000  0.66370000  1
  H  H340  1  0.38480000  0.09180000  0.58140000  1
  H  H341  1  0.88480000  0.59180000  0.94200000  1
  H  H342  1  0.59180000  0.88480000  0.08140000  1
  H  H343  1  0.09180000  0.38480000  0.44200000  1
  H  H344  1  0.05800000  0.40820000  0.91860000  1
  H  H345  1  0.40820000  0.05800000  0.11520000  1
  H  H346  1  0.90820000  0.55800000  0.41860000  1
  H  H347  1  0.55800000  0.90820000  0.61520000  1
  H  H348  1  0.52480000  0.89880000  0.28900000  1
  H  H349  1  0.89880000  0.52480000  0.78740000  1
  H  H350  1  0.02480000  0.39880000  0.28740000  1
  H  H351  1  0.39880000  0.02480000  0.78900000  1
  H  H352  1  0.34130000  0.07810000  0.41690000  1
  H  H353  1  0.07810000  0.34130000  0.66370000  1
  H  H354  1  0.57810000  0.84130000  0.91690000  1
  H  H355  1  0.84130000  0.57810000  0.16370000  1
  H  H356  1  0.27900000  0.10600000  0.59780000  1
  H  H357  1  0.77900000  0.60600000  0.01720000  1
  H  H358  1  0.60600000  0.77900000  0.09780000  1
  H  H359  1  0.10600000  0.27900000  0.51720000  1
  H  H360  1  0.98280000  0.39400000  0.90220000  1
  H  H361  1  0.39400000  0.98280000  0.22100000  1
  H  H362  1  0.89400000  0.48280000  0.40220000  1
  H  H363  1  0.48280000  0.89400000  0.72100000  1
  H  H364  1  0.41860000  0.90820000  0.55800000  1
  H  H365  1  0.90820000  0.41860000  0.61520000  1
  H  H366  1  0.40820000  0.91860000  0.05800000  1
  H  H367  1  0.91860000  0.40820000  0.11520000  1
  H  H368  1  0.71260000  0.60120000  0.21100000  1
  H  H369  1  0.10120000  0.21260000  0.71100000  1
  H  H370  1  0.21260000  0.10120000  0.47520000  1
  H  H371  1  0.60120000  0.71260000  0.97520000  1
  H  H372  1  0.02480000  0.28740000  0.78900000  1
  H  H373  1  0.28740000  0.02480000  0.39880000  1
  H  H374  1  0.52480000  0.78740000  0.89880000  1
  H  H375  1  0.78740000  0.52480000  0.28900000  1
  H  H376  1  0.40220000  0.89400000  0.48280000  1
  H  H377  1  0.89400000  0.40220000  0.72100000  1
  H  H378  1  0.39400000  0.90220000  0.98280000  1
  H  H379  1  0.90220000  0.39400000  0.22100000  1
  H  H380  1  0.33630000  0.92190000  0.65870000  1
  H  H381  1  0.83630000  0.42190000  0.08310000  1
  H  H382  1  0.42190000  0.83630000  0.15870000  1
  H  H383  1  0.92190000  0.33630000  0.58310000  1
  H  H384  1  0.65870000  0.58310000  0.33630000  1
  H  H385  1  0.08310000  0.15870000  0.83630000  1
  H  H386  1  0.15870000  0.08310000  0.42190000  1
  H  H387  1  0.58310000  0.65870000  0.92190000  1
  H  H388  1  0.48280000  0.72100000  0.40220000  1
  H  H389  1  0.72100000  0.48280000  0.89400000  1
  H  H390  1  0.98280000  0.22100000  0.39400000  1
  H  H391  1  0.22100000  0.98280000  0.90220000  1
  H  H392  1  0.78900000  0.39880000  0.02480000  1
  H  H393  1  0.39880000  0.78900000  0.28740000  1
  H  H394  1  0.89880000  0.28900000  0.52480000  1
  H  H395  1  0.28900000  0.89880000  0.78740000  1
  H  H396  1  0.21100000  0.97520000  0.71260000  1
  H  H397  1  0.71100000  0.47520000  0.10120000  1
  H  H398  1  0.47520000  0.71100000  0.21260000  1
  H  H399  1  0.97520000  0.21100000  0.60120000  1
  H  H400  1  0.55800000  0.61520000  0.41860000  1
  H  H401  1  0.61520000  0.55800000  0.90820000  1
  H  H402  1  0.05800000  0.11520000  0.40820000  1
  H  H403  1  0.11520000  0.05800000  0.91860000  1
  H  H404  1  0.90220000  0.22100000  0.98280000  1
  H  H405  1  0.22100000  0.90220000  0.39400000  1
  H  H406  1  0.40220000  0.72100000  0.89400000  1
  H  H407  1  0.72100000  0.40220000  0.48280000  1
  H  H408  1  0.59780000  0.51720000  0.27900000  1
  H  H409  1  0.01720000  0.09780000  0.77900000  1
  H  H410  1  0.09780000  0.01720000  0.60600000  1
  H  H411  1  0.51720000  0.59780000  0.10600000  1
  H  H412  1  0.41690000  0.66370000  0.34130000  1
  H  H413  1  0.66370000  0.41690000  0.07810000  1
  H  H414  1  0.91690000  0.16370000  0.57810000  1
  H  H415  1  0.16370000  0.91690000  0.84130000  1
  H  H416  1  0.28900000  0.78740000  0.52480000  1
  H  H417  1  0.78740000  0.28900000  0.89880000  1
  H  H418  1  0.28740000  0.78900000  0.02480000  1
  H  H419  1  0.78900000  0.28740000  0.39880000  1
  H  H420  1  0.91860000  0.11520000  0.05800000  1
  H  H421  1  0.11520000  0.91860000  0.40820000  1
  H  H422  1  0.41860000  0.61520000  0.90820000  1
  H  H423  1  0.61520000  0.41860000  0.55800000  1
  H  H424  1  0.58140000  0.44200000  0.38480000  1
  H  H425  1  0.94200000  0.08140000  0.88480000  1
  H  H426  1  0.08140000  0.94200000  0.59180000  1
  H  H427  1  0.44200000  0.58140000  0.09180000  1
  H  H428  1  0.84130000  0.16370000  0.91690000  1
  H  H429  1  0.16370000  0.84130000  0.57810000  1
  H  H430  1  0.34130000  0.66370000  0.07810000  1
  H  H431  1  0.66370000  0.34130000  0.41690000  1
  N  N432  1  0.99870000  0.92922000  0.40698000  1
  N  N433  1  0.42922000  0.49870000  0.90698000  1
  N  N434  1  0.49870000  0.42922000  0.66510000  1
  N  N435  1  0.92922000  0.99870000  0.16510000  1
  N  N436  1  0.83490000  0.07078000  0.00130000  1
  N  N437  1  0.07078000  0.83490000  0.59302000  1
  N  N438  1  0.33490000  0.57078000  0.09302000  1
  N  N439  1  0.57078000  0.33490000  0.50130000  1
  N  N440  1  0.72244000  0.11718000  0.05696000  1
  N  N441  1  0.11718000  0.72244000  0.60342000  1
  N  N442  1  0.22244000  0.61718000  0.10342000  1
  N  N443  1  0.61718000  0.22244000  0.55696000  1
  N  N444  1  0.33490000  0.50130000  0.57078000  1
  N  N445  1  0.50130000  0.33490000  0.09302000  1
  N  N446  1  0.83490000  0.00130000  0.59302000  1
  N  N447  1  0.00130000  0.83490000  0.07078000  1
  N  N448  1  0.94304000  0.88282000  0.39658000  1
  N  N449  1  0.38282000  0.44304000  0.89658000  1
  N  N450  1  0.44304000  0.38282000  0.77756000  1
  N  N451  1  0.88282000  0.94304000  0.27756000  1
  N  N452  1  0.22244000  0.55696000  0.61718000  1
  N  N453  1  0.55696000  0.22244000  0.10342000  1
  N  N454  1  0.72244000  0.05696000  0.60342000  1
  N  N455  1  0.05696000  0.72244000  0.11718000  1
  N  N456  1  0.61718000  0.10342000  0.22244000  1
  N  N457  1  0.10342000  0.61718000  0.55696000  1
  N  N458  1  0.60342000  0.11718000  0.72244000  1
  N  N459  1  0.11718000  0.60342000  0.05696000  1
  N  N460  1  0.39658000  0.27756000  0.94304000  1
  N  N461  1  0.89658000  0.77756000  0.38282000  1
  N  N462  1  0.77756000  0.89658000  0.44304000  1
  N  N463  1  0.27756000  0.39658000  0.88282000  1
  N  N464  1  0.57078000  0.09302000  0.33490000  1
  N  N465  1  0.09302000  0.57078000  0.50130000  1
  N  N466  1  0.59302000  0.07078000  0.83490000  1
  N  N467  1  0.07078000  0.59302000  0.00130000  1
  N  N468  1  0.05696000  0.60342000  0.72244000  1
  N  N469  1  0.60342000  0.05696000  0.11718000  1
  N  N470  1  0.10342000  0.55696000  0.22244000  1
  N  N471  1  0.55696000  0.10342000  0.61718000  1
  N  N472  1  0.00130000  0.59302000  0.83490000  1
  N  N473  1  0.59302000  0.00130000  0.07078000  1
  N  N474  1  0.09302000  0.50130000  0.33490000  1
  N  N475  1  0.50130000  0.09302000  0.57078000  1
  N  N476  1  0.40698000  0.16510000  0.99870000  1
  N  N477  1  0.90698000  0.66510000  0.42922000  1
  N  N478  1  0.66510000  0.90698000  0.49870000  1
  N  N479  1  0.16510000  0.40698000  0.92922000  1
  N  N480  1  0.83490000  0.59302000  0.07078000  1
  N  N481  1  0.33490000  0.09302000  0.50130000  1
  N  N482  1  0.09302000  0.33490000  0.57078000  1
  N  N483  1  0.59302000  0.83490000  0.00130000  1
  N  N484  1  0.49870000  0.90698000  0.42922000  1
  N  N485  1  0.90698000  0.49870000  0.66510000  1
  N  N486  1  0.40698000  0.99870000  0.92922000  1
  N  N487  1  0.99870000  0.40698000  0.16510000  1
  N  N488  1  0.44304000  0.89658000  0.38282000  1
  N  N489  1  0.89658000  0.44304000  0.77756000  1
  N  N490  1  0.39658000  0.94304000  0.88282000  1
  N  N491  1  0.94304000  0.39658000  0.27756000  1
  N  N492  1  0.92922000  0.40698000  0.99870000  1
  N  N493  1  0.40698000  0.92922000  0.16510000  1
  N  N494  1  0.90698000  0.42922000  0.49870000  1
  N  N495  1  0.42922000  0.90698000  0.66510000  1
  N  N496  1  0.72244000  0.60342000  0.11718000  1
  N  N497  1  0.22244000  0.10342000  0.55696000  1
  N  N498  1  0.10342000  0.22244000  0.61718000  1
  N  N499  1  0.60342000  0.72244000  0.05696000  1
  N  N500  1  0.88282000  0.39658000  0.94304000  1
  N  N501  1  0.39658000  0.88282000  0.27756000  1
  N  N502  1  0.89658000  0.38282000  0.44304000  1
  N  N503  1  0.38282000  0.89658000  0.77756000  1
  N  N504  1  0.94304000  0.27756000  0.88282000  1
  N  N505  1  0.27756000  0.94304000  0.39658000  1
  N  N506  1  0.44304000  0.77756000  0.89658000  1
  N  N507  1  0.77756000  0.44304000  0.38282000  1
  N  N508  1  0.11718000  0.05696000  0.72244000  1
  N  N509  1  0.55696000  0.61718000  0.22244000  1
  N  N510  1  0.61718000  0.55696000  0.10342000  1
  N  N511  1  0.05696000  0.11718000  0.60342000  1
  N  N512  1  0.99870000  0.16510000  0.92922000  1
  N  N513  1  0.16510000  0.99870000  0.40698000  1
  N  N514  1  0.49870000  0.66510000  0.90698000  1
  N  N515  1  0.66510000  0.49870000  0.42922000  1
  N  N516  1  0.38282000  0.77756000  0.44304000  1
  N  N517  1  0.77756000  0.38282000  0.89658000  1
  N  N518  1  0.88282000  0.27756000  0.39658000  1
  N  N519  1  0.27756000  0.88282000  0.94304000  1
  N  N520  1  0.42922000  0.66510000  0.49870000  1
  N  N521  1  0.66510000  0.42922000  0.90698000  1
  N  N522  1  0.92922000  0.16510000  0.40698000  1
  N  N523  1  0.16510000  0.92922000  0.99870000  1
  N  N524  1  0.07078000  0.00130000  0.83490000  1
  N  N525  1  0.50130000  0.57078000  0.33490000  1
  N  N526  1  0.57078000  0.50130000  0.09302000  1
  N  N527  1  0.00130000  0.07078000  0.59302000  1
  Zn  Zn528  1  0.12500000  0.62500000  0.62500000  1
  Zn  Zn529  1  0.62500000  0.12500000  0.12500000  1
  Zn  Zn530  1  0.62500000  0.12500000  0.62500000  1
  Zn  Zn531  1  0.87500000  0.87500000  0.37500000  1
  Zn  Zn532  1  0.12500000  0.62500000  0.12500000  1
  Zn  Zn533  1  0.37500000  0.37500000  0.87500000  1
  Zn  Zn534  1  0.62500000  0.62500000  0.12500000  1
  Zn  Zn535  1  0.87500000  0.37500000  0.87500000  1
  Zn  Zn536  1  0.12500000  0.12500000  0.62500000  1
  Zn  Zn537  1  0.37500000  0.87500000  0.37500000  1
  Zn  Zn538  1  0.37500000  0.87500000  0.87500000  1
  Zn  Zn539  1  0.87500000  0.37500000  0.37500000  1
