# generated using pymatgen
data_La3H20C36O19
_symmetry_space_group_name_H-M   'P 1'
_cell_length_a   11.10680000
_cell_length_b   17.77270000
_cell_length_c   29.22800000
_cell_angle_alpha   86.62400000
_cell_angle_beta   79.68900000
_cell_angle_gamma   73.27500000
_symmetry_Int_Tables_number   1
_chemical_formula_structural   La3H20C36O19
_chemical_formula_sum   'La12 H80 C144 O76'
_cell_volume   5436.07544202
_cell_formula_units_Z   4
loop_
 _symmetry_equiv_pos_site_id
 _symmetry_equiv_pos_as_xyz
  1  'x, y, z'
loop_
 _atom_site_type_symbol
 _atom_site_label
 _atom_site_symmetry_multiplicity
 _atom_site_fract_x
 _atom_site_fract_y
 _atom_site_fract_z
 _atom_site_occupancy
  La  La0  1  0.10755000  0.79470000  0.71050000  1
  La  La1  1  0.11608000  0.50470000  0.69072000  1
  La  La2  1  0.19843000  0.01372000  0.64335000  1
  La  La3  1  0.24423000  0.28904000  0.62053000  1
  La  La4  1  0.43945000  0.60985000  0.03513000  1
  La  La5  1  0.45372000  0.88985000  0.03585000  1
  La  La6  1  0.54628000  0.11015000  0.96415000  1
  La  La7  1  0.56055000  0.39015000  0.96487000  1
  La  La8  1  0.75577000  0.71096000  0.37947000  1
  La  La9  1  0.80157000  0.98628000  0.35665000  1
  La  La10  1  0.88392000  0.49530000  0.30928000  1
  La  La11  1  0.89245000  0.20530000  0.28950000  1
  H  H12  1  0.01030000  0.73630000  0.04970000  1
  H  H13  1  0.02300000  0.14440000  0.69470000  1
  H  H14  1  0.02840000  0.38310000  0.54100000  1
  H  H15  1  0.02900000  0.60790000  0.53140000  1
  H  H16  1  0.03350000  0.92250000  0.45080000  1
  H  H17  1  0.03800000  0.23430000  0.42150000  1
  H  H18  1  0.05010000  0.03770000  0.04000000  1
  H  H19  1  0.05620000  0.60850000  0.01660000  1
  H  H20  1  0.09150000  0.94250000  0.51920000  1
  H  H21  1  0.09510000  0.25560000  0.49100000  1
  H  H22  1  0.12580000  0.12350000  0.71830000  1
  H  H23  1  0.14410000  0.91370000  0.35790000  1
  H  H24  1  0.14420000  0.90710000  0.98410000  1
  H  H25  1  0.14720000  0.37820000  0.99530000  1
  H  H26  1  0.17590000  0.73340000  0.34400000  1
  H  H27  1  0.18430000  0.20830000  0.97390000  1
  H  H28  1  0.20670000  0.18240000  0.33320000  1
  H  H29  1  0.25150000  0.50630000  0.82380000  1
  H  H30  1  0.25420000  0.84230000  0.82940000  1
  H  H31  1  0.25610000  0.50170000  0.32810000  1
  H  H32  1  0.25930000  0.19440000  0.78930000  1
  H  H33  1  0.30890000  0.19070000  0.86300000  1
  H  H34  1  0.30950000  0.37710000  0.29380000  1
  H  H35  1  0.31020000  0.86050000  0.89980000  1
  H  H36  1  0.31480000  0.49830000  0.89570000  1
  H  H37  1  0.31720000  0.05400000  0.27750000  1
  H  H38  1  0.32890000  0.85480000  0.38580000  1
  H  H39  1  0.34880000  0.70680000  0.79670000  1
  H  H40  1  0.34920000  0.03500000  0.77860000  1
  H  H41  1  0.36780000  0.39210000  0.76190000  1
  H  H42  1  0.38120000  0.71670000  0.35730000  1
  H  H43  1  0.40050000  0.70220000  0.86940000  1
  H  H44  1  0.40400000  0.12630000  0.35530000  1
  H  H45  1  0.41070000  0.05130000  0.84760000  1
  H  H46  1  0.41150000  0.29420000  0.01200000  1
  H  H47  1  0.42670000  0.38240000  0.83420000  1
  H  H48  1  0.46100000  0.48620000  0.34020000  1
  H  H49  1  0.48870000  0.23700000  0.03590000  1
  H  H50  1  0.49100000  0.68060000  0.68720000  1
  H  H51  1  0.49810000  0.00410000  0.69490000  1
  H  H52  1  0.50190000  0.99590000  0.30510000  1
  H  H53  1  0.50900000  0.31940000  0.31280000  1
  H  H54  1  0.51130000  0.76300000  0.96410000  1
  H  H55  1  0.53900000  0.51380000  0.65980000  1
  H  H56  1  0.57330000  0.61760000  0.16580000  1
  H  H57  1  0.58850000  0.70580000  0.98800000  1
  H  H58  1  0.58930000  0.94870000  0.15240000  1
  H  H59  1  0.59600000  0.87370000  0.64470000  1
  H  H60  1  0.59950000  0.29780000  0.13060000  1
  H  H61  1  0.61880000  0.28330000  0.64270000  1
  H  H62  1  0.63220000  0.60790000  0.23810000  1
  H  H63  1  0.65080000  0.96500000  0.22140000  1
  H  H64  1  0.65120000  0.29320000  0.20330000  1
  H  H65  1  0.67110000  0.14520000  0.61420000  1
  H  H66  1  0.68280000  0.94600000  0.72250000  1
  H  H67  1  0.68520000  0.50170000  0.10430000  1
  H  H68  1  0.68980000  0.13950000  0.10020000  1
  H  H69  1  0.69050000  0.62290000  0.70620000  1
  H  H70  1  0.69110000  0.80930000  0.13700000  1
  H  H71  1  0.74070000  0.80560000  0.21070000  1
  H  H72  1  0.74390000  0.49830000  0.67190000  1
  H  H73  1  0.74580000  0.15770000  0.17060000  1
  H  H74  1  0.74850000  0.49370000  0.17620000  1
  H  H75  1  0.79330000  0.81760000  0.66680000  1
  H  H76  1  0.81570000  0.79170000  0.02610000  1
  H  H77  1  0.82410000  0.26660000  0.65600000  1
  H  H78  1  0.85280000  0.62180000  0.00470000  1
  H  H79  1  0.85580000  0.09290000  0.01590000  1
  H  H80  1  0.85590000  0.08630000  0.64210000  1
  H  H81  1  0.87420000  0.87650000  0.28170000  1
  H  H82  1  0.90490000  0.74440000  0.50900000  1
  H  H83  1  0.90850000  0.05750000  0.48080000  1
  H  H84  1  0.94380000  0.39150000  0.98340000  1
  H  H85  1  0.94990000  0.96230000  0.96000000  1
  H  H86  1  0.96200000  0.76570000  0.57850000  1
  H  H87  1  0.96650000  0.07750000  0.54920000  1
  H  H88  1  0.97100000  0.39210000  0.46860000  1
  H  H89  1  0.97160000  0.61690000  0.45900000  1
  H  H90  1  0.97700000  0.85560000  0.30530000  1
  H  H91  1  0.98970000  0.26370000  0.95030000  1
  C  C92  1  0.00260000  0.21760000  0.96790000  1
  C  C93  1  0.01690000  0.43040000  0.52460000  1
  C  C94  1  0.01720000  0.56420000  0.51880000  1
  C  C95  1  0.01800000  0.89110000  0.47650000  1
  C  C96  1  0.02420000  0.20250000  0.44720000  1
  C  C97  1  0.03100000  0.85710000  0.55610000  1
  C  C98  1  0.03370000  0.56430000  0.01000000  1
  C  C99  1  0.03390000  0.49450000  0.54400000  1
  C  C100  1  0.03850000  0.08290000  0.02170000  1
  C  C101  1  0.03970000  0.16680000  0.52730000  1
  C  C102  1  0.05280000  0.90310000  0.51740000  1
  C  C103  1  0.05900000  0.21510000  0.48880000  1
  C  C104  1  0.06160000  0.62790000  0.32660000  1
  C  C105  1  0.06740000  0.87330000  0.60080000  1
  C  C106  1  0.06760000  0.49020000  0.59150000  1
  C  C107  1  0.07780000  0.88430000  0.99290000  1
  C  C108  1  0.08680000  0.17490000  0.57090000  1
  C  C109  1  0.08790000  0.42750000  0.99740000  1
  C  C110  1  0.08930000  0.03170000  0.29770000  1
  C  C111  1  0.09430000  0.81790000  0.02041000  1
  C  C112  1  0.11440000  0.31750000  0.29332000  1
  C  C113  1  0.11850000  0.18480000  0.98230000  1
  C  C114  1  0.12270000  0.49230000  0.00792000  1
  C  C115  1  0.13680000  0.11650000  0.00940000  1
  C  C116  1  0.19410000  0.61900000  0.33530000  1
  C  C117  1  0.21220000  0.99020000  0.31490000  1
  C  C118  1  0.21590000  0.78570000  0.03980000  1
  C  C119  1  0.21650000  0.93030000  0.34740000  1
  C  C120  1  0.23240000  0.68330000  0.34370000  1
  C  C121  1  0.23990000  0.28470000  0.30975000  1
  C  C122  1  0.24960000  0.92870000  0.75290000  1
  C  C123  1  0.25510000  0.48450000  0.01750000  1
  C  C124  1  0.25540000  0.61050000  0.75640000  1
  C  C125  1  0.26420000  0.07910000  0.02380000  1
  C  C126  1  0.26740000  0.21010000  0.32900000  1
  C  C127  1  0.27440000  0.29690000  0.72040000  1
  C  C128  1  0.28070000  0.54540000  0.33410000  1
  C  C129  1  0.28380000  0.54500000  0.83260000  1
  C  C130  1  0.28420000  0.88490000  0.83320000  1
  C  C131  1  0.29140000  0.23300000  0.79840000  1
  C  C132  1  0.29420000  0.93750000  0.79733000  1
  C  C133  1  0.29530000  0.60610000  0.80260000  1
  C  C134  1  0.30840000  0.29370000  0.76780000  1
  C  C135  1  0.31900000  0.89550000  0.87530000  1
  C  C136  1  0.31960000  0.01380000  0.29950000  1
  C  C137  1  0.32000000  0.54070000  0.87600000  1
  C  C138  1  0.32250000  0.23050000  0.84240000  1
  C  C139  1  0.32640000  0.89540000  0.36410000  1
  C  C140  1  0.32930000  0.32580000  0.30510000  1
  C  C141  1  0.34050000  0.66530000  0.81670000  1
  C  C142  1  0.34170000  0.99960000  0.80290000  1
  C  C143  1  0.35580000  0.67300000  0.35160000  1
  C  C144  1  0.35760000  0.35070000  0.78180000  1
  C  C145  1  0.36400000  0.60020000  0.88986000  1
  C  C146  1  0.36690000  0.95790000  0.88110000  1
  C  C147  1  0.37250000  0.66200000  0.86000000  1
  C  C148  1  0.37330000  0.28600000  0.85611000  1
  C  C149  1  0.37820000  0.00960000  0.84440000  1
  C  C150  1  0.38600000  0.17630000  0.34210000  1
  C  C151  1  0.39120000  0.34520000  0.82540000  1
  C  C152  1  0.39330000  0.82240000  0.65220000  1
  C  C153  1  0.39850000  0.59740000  0.93720000  1
  C  C154  1  0.40320000  0.53600000  0.34160000  1
  C  C155  1  0.40690000  0.96840000  0.92620000  1
  C  C156  1  0.41340000  0.28060000  0.90261000  1
  C  C157  1  0.42770000  0.40910000  0.63880000  1
  C  C158  1  0.42960000  0.97940000  0.31600000  1
  C  C159  1  0.43450000  0.92000000  0.34890000  1
  C  C160  1  0.44000000  0.60050000  0.35120000  1
  C  C161  1  0.44570000  0.11650000  0.63080000  1
  C  C162  1  0.44830000  0.29180000  0.31720000  1
  C  C163  1  0.47660000  0.21660000  0.33570000  1
  C  C164  1  0.52340000  0.78340000  0.66430000  1
  C  C165  1  0.55170000  0.70820000  0.68280000  1
  C  C166  1  0.55430000  0.88350000  0.36920000  1
  C  C167  1  0.56000000  0.39950000  0.64880000  1
  C  C168  1  0.56550000  0.08000000  0.65110000  1
  C  C169  1  0.57040000  0.02060000  0.68400000  1
  C  C170  1  0.57230000  0.59090000  0.36120000  1
  C  C171  1  0.58660000  0.71940000  0.09739000  1
  C  C172  1  0.59310000  0.03160000  0.07380000  1
  C  C173  1  0.59680000  0.46400000  0.65840000  1
  C  C174  1  0.60150000  0.40260000  0.06280000  1
  C  C175  1  0.60670000  0.17760000  0.34780000  1
  C  C176  1  0.60880000  0.65480000  0.17460000  1
  C  C177  1  0.61400000  0.82370000  0.65790000  1
  C  C178  1  0.62180000  0.99040000  0.15560000  1
  C  C179  1  0.62670000  0.71400000  0.14389000  1
  C  C180  1  0.62750000  0.33800000  0.14000000  1
  C  C181  1  0.63310000  0.04210000  0.11890000  1
  C  C182  1  0.63600000  0.39980000  0.11014000  1
  C  C183  1  0.64240000  0.64930000  0.21820000  1
  C  C184  1  0.64420000  0.32700000  0.64840000  1
  C  C185  1  0.65830000  0.00040000  0.19710000  1
  C  C186  1  0.65950000  0.33470000  0.18330000  1
  C  C187  1  0.67070000  0.67420000  0.69490000  1
  C  C188  1  0.67360000  0.10460000  0.63590000  1
  C  C189  1  0.67750000  0.76950000  0.15760000  1
  C  C190  1  0.68000000  0.45930000  0.12400000  1
  C  C191  1  0.68040000  0.98620000  0.70050000  1
  C  C192  1  0.68100000  0.10450000  0.12470000  1
  C  C193  1  0.69160000  0.70630000  0.23220000  1
  C  C194  1  0.70470000  0.39390000  0.19740000  1
  C  C195  1  0.70580000  0.06250000  0.20267000  1
  C  C196  1  0.70860000  0.76700000  0.20160000  1
  C  C197  1  0.71580000  0.11510000  0.16680000  1
  C  C198  1  0.71620000  0.45500000  0.16740000  1
  C  C199  1  0.71930000  0.45460000  0.66590000  1
  C  C200  1  0.72560000  0.70310000  0.27960000  1
  C  C201  1  0.73260000  0.78990000  0.67100000  1
  C  C202  1  0.73580000  0.92090000  0.97620000  1
  C  C203  1  0.74460000  0.38950000  0.24360000  1
  C  C204  1  0.74490000  0.51550000  0.98250000  1
  C  C205  1  0.75040000  0.07130000  0.24710000  1
  C  C206  1  0.76010000  0.71530000  0.69025000  1
  C  C207  1  0.76760000  0.31670000  0.65630000  1
  C  C208  1  0.78350000  0.06970000  0.65260000  1
  C  C209  1  0.78410000  0.21430000  0.96020000  1
  C  C210  1  0.78780000  0.00980000  0.68510000  1
  C  C211  1  0.80590000  0.38100000  0.66470000  1
  C  C212  1  0.86320000  0.88350000  0.99060000  1
  C  C213  1  0.87730000  0.50770000  0.99208000  1
  C  C214  1  0.88150000  0.81520000  0.01770000  1
  C  C215  1  0.88560000  0.68250000  0.70668000  1
  C  C216  1  0.90570000  0.18210000  0.97959000  1
  C  C217  1  0.91070000  0.96830000  0.70230000  1
  C  C218  1  0.91210000  0.57250000  0.00260000  1
  C  C219  1  0.91320000  0.82510000  0.42910000  1
  C  C220  1  0.92220000  0.11570000  0.00710000  1
  C  C221  1  0.93240000  0.50980000  0.40850000  1
  C  C222  1  0.93260000  0.12670000  0.39920000  1
  C  C223  1  0.93840000  0.37210000  0.67340000  1
  C  C224  1  0.94100000  0.78490000  0.51120000  1
  C  C225  1  0.94720000  0.09690000  0.48260000  1
  C  C226  1  0.96030000  0.83320000  0.47270000  1
  C  C227  1  0.96150000  0.91710000  0.97830000  1
  C  C228  1  0.96610000  0.50550000  0.45600000  1
  C  C229  1  0.96630000  0.43570000  0.99000000  1
  C  C230  1  0.96900000  0.14290000  0.44390000  1
  C  C231  1  0.97580000  0.79750000  0.55280000  1
  C  C232  1  0.98200000  0.10890000  0.52350000  1
  C  C233  1  0.98280000  0.43580000  0.48120000  1
  C  C234  1  0.98310000  0.56960000  0.47540000  1
  C  C235  1  0.99740000  0.78240000  0.03210000  1
  O  O236  1  0.00450000  0.99400000  0.69029000  1
  O  O237  1  0.02220000  0.30880000  0.66395000  1
  O  O238  1  0.03550000  0.55100000  0.61495000  1
  O  O239  1  0.04550000  0.56880000  0.30899000  1
  O  O240  1  0.04680000  0.82990000  0.63467000  1
  O  O241  1  0.05580000  0.27180000  0.28524000  1
  O  O242  1  0.07180000  0.12690000  0.60290000  1
  O  O243  1  0.07910000  0.38990000  0.28575000  1
  O  O244  1  0.08610000  0.09090000  0.27195000  1
  O  O245  1  0.10390000  0.13110000  0.69159000  1
  O  O246  1  0.11490000  0.92850000  0.60094000  1
  O  O247  1  0.13070000  0.42540000  0.60634000  1
  O  O248  1  0.14100000  0.22720000  0.57268000  1
  O  O249  1  0.20830000  0.87170000  0.74936000  1
  O  O250  1  0.22400000  0.55380000  0.74403000  1
  O  O251  1  0.23090000  0.36300000  0.70201000  1
  O  O252  1  0.24420000  0.71770000  0.05483000  1
  O  O253  1  0.25450000  0.67100000  0.73195000  1
  O  O254  1  0.25770000  0.97970000  0.72145000  1
  O  O255  1  0.27050000  0.54160000  0.03544000  1
  O  O256  1  0.27920000  0.01510000  0.04455000  1
  O  O257  1  0.27990000  0.83300000  0.04201000  1
  O  O258  1  0.28970000  0.23500000  0.70038000  1
  O  O259  1  0.31230000  0.78370000  0.65925000  1
  O  O260  1  0.33760000  0.42150000  0.00734000  1
  O  O261  1  0.34410000  0.47330000  0.64976000  1
  O  O262  1  0.34520000  0.11600000  0.01491000  1
  O  O263  1  0.36090000  0.08270000  0.63911000  1
  O  O264  1  0.37310000  0.65980000  0.95826000  1
  O  O265  1  0.37330000  0.89070000  0.63597000  1
  O  O266  1  0.39380000  0.91960000  0.95803000  1
  O  O267  1  0.40210000  0.22270000  0.92789000  1
  O  O268  1  0.41110000  0.35420000  0.61907000  1
  O  O269  1  0.43840000  0.17710000  0.60670000  1
  O  O270  1  0.44940000  0.02510000  0.92917000  1
  O  O271  1  0.45190000  0.53180000  0.95415000  1
  O  O272  1  0.45540000  0.33360000  0.91365000  1
  O  O273  1  0.47700000  0.25460000  0.00884000  1
  O  O274  1  0.52300000  0.74540000  0.99116000  1
  O  O275  1  0.54460000  0.66640000  0.08635000  1
  O  O276  1  0.54810000  0.46820000  0.04585000  1
  O  O277  1  0.55060000  0.97490000  0.07083000  1
  O  O278  1  0.56160000  0.82290000  0.39330000  1
  O  O279  1  0.58890000  0.64580000  0.38093000  1
  O  O280  1  0.59790000  0.77730000  0.07211000  1
  O  O281  1  0.60620000  0.08040000  0.04197000  1
  O  O282  1  0.62670000  0.10930000  0.36403000  1
  O  O283  1  0.62690000  0.34020000  0.04174000  1
  O  O284  1  0.63910000  0.91730000  0.36089000  1
  O  O285  1  0.65480000  0.88400000  0.98509000  1
  O  O286  1  0.65590000  0.52670000  0.35024000  1
  O  O287  1  0.66240000  0.57850000  0.99266000  1
  O  O288  1  0.68770000  0.21630000  0.34075000  1
  O  O289  1  0.71030000  0.76500000  0.29962000  1
  O  O290  1  0.72010000  0.16700000  0.95799000  1
  O  O291  1  0.72080000  0.98490000  0.95545000  1
  O  O292  1  0.72950000  0.45840000  0.96456000  1
  O  O293  1  0.74230000  0.02030000  0.27855000  1
  O  O294  1  0.74550000  0.32900000  0.26805000  1
  O  O295  1  0.75580000  0.28230000  0.94517000  1
  O  O296  1  0.76910000  0.63700000  0.29799000  1
  O  O297  1  0.77600000  0.44620000  0.25597000  1
  O  O298  1  0.79170000  0.12830000  0.25064000  1
  O  O299  1  0.85900000  0.77280000  0.42732000  1
  O  O300  1  0.86930000  0.57460000  0.39366000  1
  O  O301  1  0.88510000  0.07150000  0.39906000  1
  O  O302  1  0.89610000  0.86890000  0.30841000  1
  O  O303  1  0.91390000  0.90910000  0.72805000  1
  O  O304  1  0.92090000  0.61010000  0.71425000  1
  O  O305  1  0.92820000  0.87310000  0.39710000  1
  O  O306  1  0.94420000  0.72820000  0.71476000  1
  O  O307  1  0.95320000  0.17010000  0.36533000  1
  O  O308  1  0.95450000  0.43120000  0.69101000  1
  O  O309  1  0.96450000  0.44900000  0.38505000  1
  O  O310  1  0.97780000  0.69120000  0.33605000  1
  O  O311  1  0.99550000  0.00600000  0.30971000  1
