# generated using pymatgen
data_Mn3H36C41N8O9
_symmetry_space_group_name_H-M   'P 1'
_cell_length_a   17.58800000
_cell_length_b   29.83600000
_cell_length_c   29.83597751
_cell_angle_alpha   85.01621727
_cell_angle_beta   72.85784001
_cell_angle_gamma   72.85770000
_symmetry_Int_Tables_number   1
_chemical_formula_structural   Mn3H36C41N8O9
_chemical_formula_sum   'Mn24 H288 C328 N64 O72'
_cell_volume   14296.43726579
_cell_formula_units_Z   8
loop_
 _symmetry_equiv_pos_site_id
 _symmetry_equiv_pos_as_xyz
  1  'x, y, z'
loop_
 _atom_site_type_symbol
 _atom_site_label
 _atom_site_symmetry_multiplicity
 _atom_site_fract_x
 _atom_site_fract_y
 _atom_site_fract_z
 _atom_site_occupancy
  Mn  Mn0  1  0.08443000  0.85651000  0.91437000  1
  Mn  Mn1  1  0.55906000  0.08564000  0.35650000  1
  Mn  Mn2  1  0.87904000  0.37839000  0.02951000  1
  Mn  Mn3  1  0.75742000  0.02952000  0.12161000  1
  Mn  Mn4  1  0.99879000  0.58564000  0.85651000  1
  Mn  Mn5  1  0.21809000  0.99746000  0.57730000  1
  Mn  Mn6  1  0.79539000  0.92270000  0.99746000  1
  Mn  Mn7  1  0.28445000  0.42270000  0.49746000  1
  Mn  Mn8  1  0.28694000  0.12161000  0.47049000  1
  Mn  Mn9  1  0.79285000  0.50254000  0.92270000  1
  Mn  Mn10  1  0.09145000  0.52951000  0.62161000  1
  Mn  Mn11  1  0.14469000  0.35651000  0.41437000  1
  Mn  Mn12  1  0.85531000  0.64349000  0.58564000  1
  Mn  Mn13  1  0.90856000  0.47048000  0.37839000  1
  Mn  Mn14  1  0.20715000  0.49746000  0.07730000  1
  Mn  Mn15  1  0.71306000  0.87839000  0.52951000  1
  Mn  Mn16  1  0.71555000  0.57730000  0.50254000  1
  Mn  Mn17  1  0.20461000  0.07730000  0.00254000  1
  Mn  Mn18  1  0.78191000  0.00254000  0.42270000  1
  Mn  Mn19  1  0.00121000  0.41436000  0.14349000  1
  Mn  Mn20  1  0.24257000  0.97049000  0.87839000  1
  Mn  Mn21  1  0.12096000  0.62161000  0.97049000  1
  Mn  Mn22  1  0.44094000  0.91436000  0.64350000  1
  Mn  Mn23  1  0.91557000  0.14349000  0.08564000  1
  H  H24  1  0.41820000  0.22920000  0.57960000  1
  H  H25  1  0.53820000  0.12880000  0.45840000  1
  H  H26  1  0.41230000  0.11960000  0.58260000  1
  H  H27  1  0.13050000  0.39380000  0.86300000  1
  H  H28  1  0.66570000  0.37280000  0.32740000  1
  H  H29  1  0.33360000  0.55360000  0.65780000  1
  H  H30  1  0.91360000  0.87500000  0.07300000  1
  H  H31  1  0.73850000  0.09660000  0.24760000  1
  H  H32  1  0.23180000  0.98860000  0.75140000  1
  H  H33  1  0.40240000  0.30860000  0.57800000  1
  H  H34  1  0.02540000  0.09430000  0.95330000  1
  H  H35  1  0.47450000  0.90980000  0.50180000  1
  H  H36  1  0.61270000  0.89380000  0.36300000  1
  H  H37  1  0.38030000  0.04670000  0.59430000  1
  H  H38  1  0.81100000  0.42210000  0.16190000  1
  H  H39  1  0.98320000  0.74860000  0.98860000  1
  H  H40  1  0.88550000  0.61960000  0.08260000  1
  H  H41  1  0.08170000  0.35570000  0.88430000  1
  H  H42  1  0.26040000  0.86320000  0.69120000  1
  H  H43  1  0.89520000  0.52460000  0.05340000  1
  H  H44  1  0.42160000  0.59790000  0.52650000  1
  H  H45  1  0.91150000  0.69850000  0.03510000  1
  H  H46  1  0.32170000  0.14430000  0.61570000  1
  H  H47  1  0.46400000  0.84500000  0.47080000  1
  H  H48  1  0.84630000  0.25440000  0.08680000  1
  H  H49  1  0.02130000  0.45330000  0.90570000  1
  H  H50  1  0.55160000  0.34060000  0.37020000  1
  H  H51  1  0.47320000  0.97540000  0.44660000  1
  H  H52  1  0.61360000  0.46720000  0.30600000  1
  H  H53  1  0.06260000  0.11570000  0.85570000  1
  H  H54  1  0.01390000  0.74760000  0.90340000  1
  H  H55  1  0.28860000  0.07300000  0.62500000  1
  H  H56  1  0.11000000  0.03510000  0.80150000  1
  H  H57  1  0.68850000  0.43370000  0.21950000  1
  H  H58  1  0.38870000  0.52900000  0.51580000  1
  H  H59  1  0.60960000  0.39480000  0.29300000  1
  H  H60  1  0.59780000  0.21860000  0.30100000  1
  H  H61  1  0.32180000  0.65620000  0.57400000  1
  H  H62  1  0.91980000  0.05340000  0.97540000  1
  H  H63  1  0.86030000  0.48960000  0.03240000  1
  H  H64  1  0.35490000  0.19850000  0.53510000  1
  H  H65  1  0.97630000  0.99820000  0.90980000  1
  H  H66  1  0.17880000  0.80990000  0.70710000  1
  H  H67  1  0.00510000  0.08260000  0.88040000  1
  H  H68  1  0.88610000  0.59020000  0.99820000  1
  H  H69  1  0.37520000  0.84940000  0.50780000  1
  H  H70  1  0.10120000  0.80100000  0.78140000  1
  H  H71  1  0.00340000  0.95840000  0.87120000  1
  H  H72  1  0.18670000  0.57650000  0.68470000  1
  H  H73  1  0.97570000  0.13700000  0.89380000  1
  H  H74  1  0.43600000  0.35060000  0.43100000  1
  H  H75  1  0.98660000  0.42700000  0.87500000  1
  H  H76  1  0.84990000  0.03240000  0.01040000  1
  H  H77  1  0.49670000  0.48130000  0.36350000  1
  H  H78  1  0.38620000  0.88860000  0.46820000  1
  H  H79  1  0.77300000  0.72920000  0.07960000  1
  H  H80  1  0.38230000  0.01040000  0.46760000  1
  H  H81  1  0.60070000  0.08680000  0.24560000  1
  H  H82  1  0.87460000  0.62880000  0.95840000  1
  H  H83  1  0.51130000  0.29290000  0.30990000  1
  H  H84  1  0.38730000  0.48330000  0.43170000  1
  H  H85  1  0.95160000  0.80880000  0.86320000  1
  H  H86  1  0.73680000  0.31530000  0.07650000  1
  H  H87  1  0.06690000  0.58680000  0.74560000  1
  H  H88  1  0.73310000  0.16190000  0.07790000  1
  H  H89  1  0.66030000  0.38840000  0.14920000  1
  H  H90  1  0.77980000  0.65500000  0.02920000  1
  H  H91  1  0.19050000  0.64920000  0.61160000  1
  H  H92  1  0.71100000  0.80860000  0.07800000  1
  H  H93  1  0.13300000  0.93100000  0.64940000  1
  H  H94  1  0.93480000  0.02920000  0.84500000  1
  H  H95  1  0.74300000  0.61140000  0.03180000  1
  H  H96  1  0.00220000  0.07960000  0.77080000  1
  H  H97  1  0.27960000  0.24860000  0.48860000  1
  H  H98  1  0.85440000  0.03180000  0.88860000  1
  H  H99  1  0.37640000  0.30880000  0.36320000  1
  H  H100  1  0.33510000  0.24760000  0.40340000  1
  H  H101  1  0.07820000  0.87020000  0.65940000  1
  H  H102  1  0.55210000  0.07650000  0.18470000  1
  H  H103  1  0.39500000  0.07790000  0.33810000  1
  H  H104  1  0.88300000  0.99220000  0.84940000  1
  H  H105  1  0.73240000  0.65060000  0.99220000  1
  H  H106  1  0.97180000  0.51140000  0.74860000  1
  H  H107  1  0.78240000  0.85060000  0.93100000  1
  H  H108  1  0.13840000  0.37500000  0.57300000  1
  H  H109  1  0.01960000  0.07800000  0.69140000  1
  H  H110  1  0.09740000  0.79300000  0.60520000  1
  H  H111  1  0.18100000  0.93170000  0.51670000  1
  H  H112  1  0.88590000  0.79290000  0.80990000  1
  H  H113  1  0.62220000  0.21950000  0.06630000  1
  H  H114  1  0.88260000  0.71860000  0.80100000  1
  H  H115  1  0.03400000  0.38430000  0.64430000  1
  H  H116  1  0.52200000  0.42600000  0.15620000  1
  H  H117  1  0.61280000  0.34220000  0.05360000  1
  H  H118  1  0.53850000  0.32740000  0.12720000  1
  H  H119  1  0.91730000  0.59660000  0.74760000  1
  H  H120  1  0.54870000  0.14920000  0.11160000  1
  H  H121  1  0.13980000  0.86350000  0.51870000  1
  H  H122  1  0.09200000  0.71950000  0.56630000  1
  H  H123  1  0.94660000  0.46490000  0.69850000  1
  H  H124  1  0.00690000  0.82740000  0.62720000  1
  H  H125  1  0.69770000  0.98330000  0.93170000  1
  H  H126  1  0.27540000  0.49220000  0.34940000  1
  H  H127  1  0.81480000  0.63680000  0.80880000  1
  H  H128  1  0.34170000  0.06630000  0.28050000  1
  H  H129  1  0.07300000  0.40570000  0.54670000  1
  H  H130  1  0.10730000  0.53240000  0.51040000  1
  H  H131  1  0.22520000  0.53180000  0.38860000  1
  H  H132  1  0.58080000  0.30600000  0.03280000  1
  H  H133  1  0.08040000  0.80600000  0.53280000  1
  H  H134  1  0.45500000  0.05360000  0.15780000  1
  H  H135  1  0.62940000  0.56830000  0.98330000  1
  H  H136  1  0.00650000  0.36300000  0.60620000  1
  H  H137  1  0.58230000  0.48420000  0.02900000  1
  H  H138  1  0.50440000  0.29300000  0.10520000  1
  H  H139  1  0.73760000  0.84060000  0.87020000  1
  H  H140  1  0.02710000  0.66190000  0.57790000  1
  H  H141  1  0.18750000  0.24560000  0.41320000  1
  H  H142  1  0.31640000  0.30100000  0.28140000  1
  H  H143  1  0.78900000  0.42200000  0.80860000  1
  H  H144  1  0.96810000  0.41740000  0.61960000  1
  H  H145  1  0.56650000  0.02900000  0.01580000  1
  H  H146  1  0.85260000  0.42040000  0.72920000  1
  H  H147  1  0.38680000  0.03280000  0.19400000  1
  H  H148  1  0.48050000  0.47350000  0.09790000  1
  H  H149  1  0.09550000  0.01580000  0.47100000  1
  H  H150  1  0.71340000  0.56900000  0.85060000  1
  H  H151  1  0.12860000  0.18470000  0.42350000  1
  H  H152  1  0.89580000  0.92600000  0.65620000  1
  H  H153  1  0.39220000  0.37020000  0.15940000  1
  H  H154  1  0.19790000  0.11160000  0.35080000  1
  H  H155  1  0.94810000  0.97350000  0.59790000  1
  H  H156  1  0.99140000  0.84220000  0.55360000  1
  H  H157  1  0.36590000  0.12720000  0.17260000  1
  H  H158  1  0.16700000  0.45840000  0.37120000  1
  H  H159  1  0.19100000  0.52920000  0.34500000  1
  H  H160  1  0.05140000  0.55340000  0.47540000  1
  H  H161  1  0.11570000  0.49820000  0.40980000  1
  H  H162  1  0.65850000  0.98130000  0.86350000  1
  H  H163  1  0.44800000  0.15620000  0.07400000  1
  H  H164  1  0.54600000  0.90210000  0.97350000  1
  H  H165  1  0.30420000  0.30990000  0.20710000  1
  H  H166  1  0.29740000  0.10520000  0.20700000  1
  H  H167  1  0.52200000  0.63650000  0.98130000  1
  H  H168  1  0.47800000  0.36350000  0.01870000  1
  H  H169  1  0.70260000  0.89480000  0.79300000  1
  H  H170  1  0.69580000  0.69010000  0.79290000  1
  H  H171  1  0.45400000  0.09790000  0.02650000  1
  H  H172  1  0.55200000  0.84380000  0.92600000  1
  H  H173  1  0.34150000  0.01870000  0.13650000  1
  H  H174  1  0.88430000  0.50180000  0.59020000  1
  H  H175  1  0.94860000  0.44660000  0.52460000  1
  H  H176  1  0.80900000  0.47080000  0.65500000  1
  H  H177  1  0.83300000  0.54160000  0.62880000  1
  H  H178  1  0.63410000  0.87280000  0.82740000  1
  H  H179  1  0.00860000  0.15780000  0.44640000  1
  H  H180  1  0.05190000  0.02650000  0.40210000  1
  H  H181  1  0.80210000  0.88840000  0.64920000  1
  H  H182  1  0.60780000  0.62980000  0.84060000  1
  H  H183  1  0.10420000  0.07400000  0.34380000  1
  H  H184  1  0.87140000  0.81530000  0.57650000  1
  H  H185  1  0.28660000  0.43100000  0.14940000  1
  H  H186  1  0.90450000  0.98420000  0.52900000  1
  H  H187  1  0.51950000  0.52650000  0.90210000  1
  H  H188  1  0.61320000  0.96720000  0.80600000  1
  H  H189  1  0.14740000  0.57960000  0.27080000  1
  H  H190  1  0.43350000  0.97100000  0.98420000  1
  H  H191  1  0.03190000  0.58260000  0.38040000  1
  H  H192  1  0.21100000  0.57800000  0.19140000  1
  H  H193  1  0.68360000  0.69900000  0.71860000  1
  H  H194  1  0.81250000  0.75440000  0.58680000  1
  H  H195  1  0.97290000  0.33810000  0.42210000  1
  H  H196  1  0.26240000  0.15940000  0.12980000  1
  H  H197  1  0.49560000  0.70700000  0.89480000  1
  H  H198  1  0.41770000  0.51580000  0.97100000  1
  H  H199  1  0.99350000  0.63700000  0.39380000  1
  H  H200  1  0.37060000  0.43170000  0.01670000  1
  H  H201  1  0.54500000  0.94640000  0.84220000  1
  H  H202  1  0.91960000  0.19400000  0.46720000  1
  H  H203  1  0.41920000  0.69400000  0.96720000  1
  H  H204  1  0.77480000  0.46820000  0.61140000  1
  H  H205  1  0.89270000  0.46760000  0.48960000  1
  H  H206  1  0.92700000  0.59430000  0.45330000  1
  H  H207  1  0.65830000  0.93370000  0.71950000  1
  H  H208  1  0.18520000  0.36320000  0.19120000  1
  H  H209  1  0.72460000  0.50780000  0.65060000  1
  H  H210  1  0.30230000  0.01670000  0.06830000  1
  H  H211  1  0.99310000  0.17260000  0.37280000  1
  H  H212  1  0.05340000  0.53510000  0.30150000  1
  H  H213  1  0.90800000  0.28050000  0.43370000  1
  H  H214  1  0.86020000  0.13650000  0.48130000  1
  H  H215  1  0.45130000  0.85080000  0.88840000  1
  H  H216  1  0.08270000  0.40340000  0.25240000  1
  H  H217  1  0.46150000  0.67260000  0.87280000  1
  H  H218  1  0.38720000  0.65780000  0.94640000  1
  H  H219  1  0.47800000  0.57400000  0.84380000  1
  H  H220  1  0.96600000  0.61570000  0.35570000  1
  H  H221  1  0.11740000  0.28140000  0.19900000  1
  H  H222  1  0.37780000  0.78050000  0.93370000  1
  H  H223  1  0.11410000  0.20710000  0.19010000  1
  H  H224  1  0.81900000  0.06830000  0.48330000  1
  H  H225  1  0.90260000  0.20700000  0.39480000  1
  H  H226  1  0.98040000  0.92200000  0.30860000  1
  H  H227  1  0.86160000  0.62500000  0.42700000  1
  H  H228  1  0.21760000  0.14940000  0.06900000  1
  H  H229  1  0.02820000  0.48860000  0.25140000  1
  H  H230  1  0.26760000  0.34940000  0.00780000  1
  H  H231  1  0.11700000  0.00780000  0.15060000  1
  H  H232  1  0.60500000  0.92210000  0.66190000  1
  H  H233  1  0.44790000  0.92350000  0.81530000  1
  H  H234  1  0.92180000  0.12980000  0.34060000  1
  H  H235  1  0.66490000  0.75240000  0.59660000  1
  H  H236  1  0.62360000  0.69120000  0.63680000  1
  H  H237  1  0.14560000  0.96820000  0.11140000  1
  H  H238  1  0.72040000  0.75140000  0.51140000  1
  H  H239  1  0.99780000  0.92040000  0.22920000  1
  H  H240  1  0.25700000  0.38860000  0.96820000  1
  H  H241  1  0.06520000  0.97080000  0.15500000  1
  H  H242  1  0.86700000  0.06900000  0.35060000  1
  H  H243  1  0.28900000  0.19140000  0.92200000  1
  H  H244  1  0.80950000  0.35080000  0.38840000  1
  H  H245  1  0.22020000  0.34500000  0.97080000  1
  H  H246  1  0.33970000  0.61160000  0.85080000  1
  H  H247  1  0.26690000  0.83810000  0.92210000  1
  H  H248  1  0.93310000  0.41320000  0.25440000  1
  H  H249  1  0.26320000  0.68470000  0.92350000  1
  H  H250  1  0.04840000  0.19120000  0.13680000  1
  H  H251  1  0.61270000  0.51670000  0.56830000  1
  H  H252  1  0.48870000  0.70710000  0.69010000  1
  H  H253  1  0.12540000  0.37120000  0.04160000  1
  H  H254  1  0.39930000  0.91320000  0.75440000  1
  H  H255  1  0.61770000  0.98960000  0.53240000  1
  H  H256  1  0.22700000  0.27080000  0.92040000  1
  H  H257  1  0.61380000  0.11140000  0.53180000  1
  H  H258  1  0.50330000  0.51870000  0.63650000  1
  H  H259  1  0.15010000  0.96760000  0.98960000  1
  H  H260  1  0.01340000  0.57300000  0.12500000  1
  H  H261  1  0.56400000  0.64940000  0.56900000  1
  H  H262  1  0.02430000  0.86300000  0.10620000  1
  H  H263  1  0.81330000  0.42350000  0.31530000  1
  H  H264  1  0.99660000  0.04160000  0.12880000  1
  H  H265  1  0.89880000  0.19900000  0.21860000  1
  H  H266  1  0.62480000  0.15060000  0.49220000  1
  H  H267  1  0.11390000  0.40980000  0.00180000  1
  H  H268  1  0.99490000  0.91740000  0.11960000  1
  H  H269  1  0.82120000  0.19010000  0.29290000  1
  H  H270  1  0.02370000  0.00180000  0.09020000  1
  H  H271  1  0.64510000  0.80150000  0.46490000  1
  H  H272  1  0.13970000  0.51040000  0.96760000  1
  H  H273  1  0.08020000  0.94660000  0.02460000  1
  H  H274  1  0.67820000  0.34380000  0.42600000  1
  H  H275  1  0.40220000  0.78140000  0.69900000  1
  H  H276  1  0.39040000  0.60520000  0.70700000  1
  H  H277  1  0.61130000  0.47100000  0.48420000  1
  H  H278  1  0.31150000  0.56630000  0.78050000  1
  H  H279  1  0.89000000  0.96490000  0.19850000  1
  H  H280  1  0.71140000  0.92700000  0.37500000  1
  H  H281  1  0.98610000  0.25240000  0.09660000  1
  H  H282  1  0.93740000  0.88430000  0.14430000  1
  H  H283  1  0.38640000  0.53280000  0.69400000  1
  H  H284  1  0.52680000  0.02460000  0.55340000  1
  H  H285  1  0.44840000  0.65940000  0.62980000  1
  H  H286  1  0.97870000  0.54670000  0.09430000  1
  H  H287  1  0.15370000  0.74560000  0.91320000  1
  H  H288  1  0.53600000  0.15500000  0.52920000  1
  H  H289  1  0.67830000  0.85570000  0.38430000  1
  H  H290  1  0.08850000  0.30150000  0.96490000  1
  H  H291  1  0.57840000  0.40210000  0.47350000  1
  H  H292  1  0.10480000  0.47540000  0.94660000  1
  H  H293  1  0.73960000  0.13680000  0.30880000  1
  H  H294  1  0.91830000  0.64430000  0.11570000  1
  H  H295  1  0.11450000  0.38040000  0.91740000  1
  H  H296  1  0.01680000  0.25140000  0.01140000  1
  H  H297  1  0.18900000  0.57790000  0.83810000  1
  H  H298  1  0.61970000  0.95330000  0.40570000  1
  H  H299  1  0.38730000  0.10620000  0.63700000  1
  H  H300  1  0.52550000  0.09020000  0.49820000  1
  H  H301  1  0.97460000  0.90570000  0.04670000  1
  H  H302  1  0.59760000  0.69140000  0.42200000  1
  H  H303  1  0.76820000  0.01140000  0.24860000  1
  H  H304  1  0.26150000  0.90340000  0.75240000  1
  H  H305  1  0.08640000  0.12500000  0.92700000  1
  H  H306  1  0.66640000  0.44640000  0.34220000  1
  H  H307  1  0.33430000  0.62720000  0.67260000  1
  H  H308  1  0.86950000  0.60620000  0.13700000  1
  H  H309  1  0.58770000  0.88040000  0.41740000  1
  H  H310  1  0.46180000  0.87120000  0.54160000  1
  H  H311  1  0.58180000  0.77080000  0.42040000  1
  C  C312  1  0.91176000  0.46041000  0.08487000  1
  C  C313  1  0.18856000  0.57721000  0.80647000  1
  C  C314  1  0.26566000  0.56810000  0.72618000  1
  C  C315  1  0.06645000  0.09810000  0.92340000  1
  C  C316  1  0.18253000  0.87831000  0.80483000  1
  C  C317  1  0.22816000  0.88243000  0.75865000  1
  C  C318  1  0.09140000  0.38490000  0.89070000  1
  C  C319  1  0.36700000  0.11510000  0.60930000  1
  C  C320  1  0.81403000  0.09394000  0.15900000  1
  C  C321  1  0.65554000  0.43946000  0.31326000  1
  C  C322  1  0.73809000  0.42995000  0.22787000  1
  C  C323  1  0.43370000  0.89397000  0.52123000  1
  C  C324  1  0.22850000  0.85884000  0.72216000  1
  C  C325  1  0.38717000  0.24922000  0.56064000  1
  C  C326  1  0.86163000  0.94543000  0.08551000  1
  C  C327  1  0.13330000  0.84656000  0.81364000  1
  C  C328  1  0.62270000  0.40080000  0.32160000  1
  C  C329  1  0.27476000  0.97223000  0.66305000  1
  C  C330  1  0.37832000  0.29640000  0.55896000  1
  C  C331  1  0.33545000  0.07660000  0.59810000  1
  C  C332  1  0.92721000  0.76132000  0.00626000  1
  C  C333  1  0.02697000  0.65900000  0.90606000  1
  C  C334  1  0.86588000  0.50012000  0.06152000  1
  C  C335  1  0.18853000  0.00626000  0.73868000  1
  C  C336  1  0.88458000  0.73119000  0.03425000  1
  C  C337  1  0.36519000  0.93001000  0.55201000  1
  C  C338  1  0.01015000  0.42340000  0.90190000  1
  C  C339  1  0.87217000  0.08487000  0.03959000  1
  C  C340  1  0.17972000  0.82749000  0.73187000  1
  C  C341  1  0.36840000  0.59410000  0.54190000  1
  C  C342  1  0.93781000  0.83695000  0.97223000  1
  C  C343  1  0.13399000  0.82222000  0.77600000  1
  C  C344  1  0.02370000  0.10930000  0.88490000  1
  C  C345  1  0.54480000  0.40740000  0.36300000  1
  C  C346  1  0.18893000  0.57588000  0.71626000  1
  C  C347  1  0.52110000  0.37130000  0.38190000  1
  C  C348  1  0.41299000  0.86691000  0.48931000  1
  C  C349  1  0.89075000  0.80842000  0.00368000  1
  C  C350  1  0.94714000  0.41449000  0.94543000  1
  C  C351  1  0.19917000  0.00368000  0.69158000  1
  C  C352  1  0.11577000  0.03425000  0.76881000  1
  C  C353  1  0.34841000  0.55289000  0.53609000  1
  C  C354  1  0.34998000  0.23119000  0.53425000  1
  C  C355  1  0.79959000  0.24731000  0.08251000  1
  C  C356  1  0.30910000  0.62820000  0.57020000  1
  C  C357  1  0.45704000  0.03959000  0.41513000  1
  C  C358  1  0.45170000  0.37820000  0.41900000  1
  C  C359  1  0.11790000  0.58251000  0.75269000  1
  C  C360  1  0.98681000  0.74135000  0.88243000  1
  C  C361  1  0.48860000  0.45320000  0.37920000  1
  C  C362  1  0.52014000  0.18636000  0.34656000  1
  C  C363  1  0.33538000  0.32778000  0.53066000  1
  C  C364  1  0.54379000  0.22400000  0.32222000  1
  C  C365  1  0.42752000  0.99988000  0.43848000  1
  C  C366  1  0.86600000  0.06152000  0.99988000  1
  C  C367  1  0.98736000  0.69517000  0.87831000  1
  C  C368  1  0.80297000  0.74922000  0.06064000  1
  C  C369  1  0.30706000  0.08551000  0.55457000  1
  C  C370  1  0.95493000  0.97877000  0.89397000  1
  C  C371  1  0.91720000  0.94799000  0.93001000  1
  C  C372  1  0.42240000  0.45380000  0.41880000  1
  C  C373  1  0.80618000  0.82778000  0.03066000  1
  C  C374  1  0.27236000  0.54632000  0.55916000  1
  C  C375  1  0.84890000  0.60603000  0.97877000  1
  C  C376  1  0.76632000  0.79640000  0.05896000  1
  C  C377  1  0.23176000  0.62397000  0.59351000  1
  C  C378  1  0.49279000  0.26813000  0.32749000  1
  C  C379  1  0.43916000  0.19517000  0.37831000  1
  C  C380  1  0.40797000  0.15900000  0.40606000  1
  C  C381  1  0.30521000  0.26132000  0.50626000  1
  C  C382  1  0.73423000  0.19353000  0.07721000  1
  C  C383  1  0.73519000  0.28374000  0.07588000  1
  C  C384  1  0.95066000  0.77784000  0.85884000  1
  C  C385  1  0.25781000  0.50267000  0.55071000  1
  C  C386  1  0.13396000  0.03066000  0.67222000  1
  C  C387  1  0.21477000  0.58119000  0.59007000  1
  C  C388  1  0.05219000  0.06064000  0.75078000  1
  C  C389  1  0.29715000  0.30842000  0.50368000  1
  C  C390  1  0.54690000  0.08251000  0.25269000  1
  C  C391  1  0.84721000  0.56999000  0.94799000  1
  C  C392  1  0.94694000  0.68636000  0.84656000  1
  C  C393  1  0.70404000  0.40993000  0.08119000  1
  C  C394  1  0.76921000  0.63309000  0.01069000  1
  C  C395  1  0.38941000  0.24135000  0.38243000  1
  C  C396  1  0.41266000  0.27784000  0.35884000  1
  C  C397  1  0.90230000  0.01069000  0.86691000  1
  C  C398  1  0.64427000  0.40649000  0.12397000  1
  C  C399  1  0.06272000  0.05896000  0.70360000  1
  C  C400  1  0.12930000  0.91900000  0.62180000  1
  C  C401  1  0.91004000  0.52777000  0.83695000  1
  C  C402  1  0.73952000  0.44929000  0.00267000  1
  C  C403  1  0.68881000  0.00267000  0.05071000  1
  C  C404  1  0.91159000  0.76813000  0.82749000  1
  C  C405  1  0.66804000  0.22787000  0.07005000  1
  C  C406  1  0.51893000  0.07588000  0.21626000  1
  C  C407  1  0.66624000  0.27382000  0.06810000  1
  C  C408  1  0.42776000  0.07721000  0.30647000  1
  C  C409  1  0.90999000  0.72400000  0.82222000  1
  C  C410  1  0.68132000  0.44084000  0.04632000  1
  C  C411  1  0.09700000  0.88190000  0.62870000  1
  C  C412  1  0.25301000  0.33695000  0.47223000  1
  C  C413  1  0.15880000  0.91880000  0.54620000  1
  C  C414  1  0.61397000  0.08119000  0.09007000  1
  C  C415  1  0.89443000  0.49632000  0.80842000  1
  C  C416  1  0.93347000  0.49374000  0.76132000  1
  C  C417  1  0.10743000  0.44543000  0.58551000  1
  C  C418  1  0.56270000  0.42980000  0.12820000  1
  C  C419  1  0.19148000  0.05071000  0.49733000  1
  C  C420  1  0.09220000  0.86300000  0.59260000  1
  C  C421  1  0.62216000  0.04632000  0.05916000  1
  C  C422  1  0.13220000  0.87920000  0.54680000  1
  C  C423  1  0.75110000  0.87820000  0.91900000  1
  C  C424  1  0.39591000  0.07005000  0.27213000  1
  C  C425  1  0.44006000  0.06810000  0.22618000  1
  C  C426  1  0.83684000  0.46934000  0.82778000  1
  C  C427  1  0.08795000  0.40190000  0.57660000  1
  C  C428  1  0.59500000  0.31326000  0.06054000  1
  C  C429  1  0.05570000  0.82160000  0.59920000  1
  C  C430  1  0.59870000  0.46391000  0.05289000  1
  C  C431  1  0.91883000  0.46575000  0.73119000  1
  C  C432  1  0.55076000  0.12397000  0.09351000  1
  C  C433  1  0.20480000  0.44799000  0.43001000  1
  C  C434  1  0.01790000  0.39070000  0.61510000  1
  C  C435  1  0.53750000  0.45810000  0.09410000  1
  C  C436  1  0.70500000  0.95380000  0.91880000  1
  C  C437  1  0.52350000  0.32160000  0.09920000  1
  C  C438  1  0.16848000  0.05916000  0.45368000  1
  C  C439  1  0.82528000  0.44104000  0.79640000  1
  C  C440  1  0.19516000  0.09007000  0.41881000  1
  C  C441  1  0.86361000  0.43936000  0.74922000  1
  C  C442  1  0.86924000  0.61757000  0.74135000  1
  C  C443  1  0.72570000  0.87130000  0.88190000  1
  C  C444  1  0.03404000  0.72787000  0.57005000  1
  C  C445  1  0.56261000  0.05289000  0.03609000  1
  C  C446  1  0.40826000  0.06054000  0.18674000  1
  C  C447  1  0.93303000  0.59394000  0.65900000  1
  C  C448  1  0.03120000  0.81326000  0.56054000  1
  C  C449  1  0.80950000  0.64116000  0.77784000  1
  C  C450  1  0.22010000  0.51069000  0.36691000  1
  C  C451  1  0.62380000  0.58120000  0.95380000  1
  C  C452  1  0.07260000  0.56152000  0.49988000  1
  C  C453  1  0.99503000  0.69353000  0.57721000  1
  C  C454  1  0.17233000  0.47877000  0.39397000  1
  C  C455  1  0.49250000  0.12820000  0.07020000  1
  C  C456  1  0.11550000  0.03609000  0.44711000  1
  C  C457  1  0.86567000  0.62169000  0.69517000  1
  C  C458  1  0.99184000  0.77382000  0.56810000  1
  C  C459  1  0.67900000  0.95320000  0.87920000  1
  C  C460  1  0.17473000  0.09351000  0.37603000  1
  C  C461  1  0.67010000  0.58100000  0.87820000  1
  C  C462  1  0.68480000  0.90740000  0.86300000  1
  C  C463  1  0.12941000  0.25269000  0.41749000  1
  C  C464  1  0.45220000  0.36300000  0.09260000  1
  C  C465  1  0.26779000  0.32222000  0.27600000  1
  C  C466  1  0.00337000  0.58487000  0.53959000  1
  C  C467  1  0.49560000  0.09410000  0.04190000  1
  C  C468  1  0.34510000  0.09920000  0.17840000  1
  C  C469  1  0.39240000  0.38190000  0.12870000  1
  C  C470  1  0.20650000  0.34656000  0.31364000  1
  C  C471  1  0.09481000  0.21626000  0.42412000  1
  C  C472  1  0.55820000  0.62080000  0.95320000  1
  C  C473  1  0.87930000  0.92980000  0.62820000  1
  C  C474  1  0.73908000  0.67251000  0.76813000  1
  C  C475  1  0.91030000  0.95810000  0.59410000  1
  C  C476  1  0.08970000  0.04190000  0.40590000  1
  C  C477  1  0.26092000  0.32749000  0.23187000  1
  C  C478  1  0.12070000  0.07020000  0.37180000  1
  C  C479  1  0.44180000  0.37920000  0.04680000  1
  C  C480  1  0.90519000  0.78374000  0.57588000  1
  C  C481  1  0.79350000  0.65344000  0.68636000  1
  C  C482  1  0.60760000  0.61810000  0.87130000  1
  C  C483  1  0.65490000  0.90080000  0.82160000  1
  C  C484  1  0.50440000  0.90590000  0.95810000  1
  C  C485  1  0.99663000  0.41513000  0.46041000  1
  C  C486  1  0.73221000  0.67778000  0.72400000  1
  C  C487  1  0.54780000  0.63700000  0.90740000  1
  C  C488  1  0.87059000  0.74731000  0.58251000  1
  C  C489  1  0.31520000  0.09260000  0.13700000  1
  C  C490  1  0.32990000  0.41900000  0.12180000  1
  C  C491  1  0.82527000  0.90649000  0.62397000  1
  C  C492  1  0.32100000  0.04680000  0.12080000  1
  C  C493  1  0.00816000  0.22618000  0.43190000  1
  C  C494  1  0.13433000  0.37831000  0.30483000  1
  C  C495  1  0.88450000  0.96391000  0.55289000  1
  C  C496  1  0.50750000  0.87180000  0.92980000  1
  C  C497  1  0.82767000  0.52123000  0.60603000  1
  C  C498  1  0.00497000  0.30647000  0.42279000  1
  C  C499  1  0.92740000  0.43848000  0.50012000  1
  C  C500  1  0.37620000  0.41880000  0.04620000  1
  C  C501  1  0.77990000  0.48931000  0.63309000  1
  C  C502  1  0.19050000  0.35884000  0.22216000  1
  C  C503  1  0.96880000  0.18674000  0.43946000  1
  C  C504  1  0.06697000  0.40606000  0.34100000  1
  C  C505  1  0.59174000  0.93946000  0.81326000  1
  C  C506  1  0.43739000  0.94711000  0.96391000  1
  C  C507  1  0.96596000  0.27213000  0.42995000  1
  C  C508  1  0.27430000  0.12870000  0.11810000  1
  C  C509  1  0.13076000  0.38243000  0.25865000  1
  C  C510  1  0.13639000  0.56064000  0.25078000  1
  C  C511  1  0.80484000  0.90993000  0.58119000  1
  C  C512  1  0.17472000  0.55896000  0.20360000  1
  C  C513  1  0.83152000  0.94084000  0.54632000  1
  C  C514  1  0.47650000  0.67840000  0.90080000  1
  C  C515  1  0.29500000  0.04620000  0.08120000  1
  C  C516  1  0.46250000  0.54190000  0.90590000  1
  C  C517  1  0.98210000  0.60930000  0.38490000  1
  C  C518  1  0.79520000  0.55201000  0.56999000  1
  C  C519  1  0.44924000  0.87603000  0.90649000  1
  C  C520  1  0.08117000  0.53425000  0.26881000  1
  C  C521  1  0.40130000  0.53609000  0.94711000  1
  C  C522  1  0.94430000  0.17840000  0.40080000  1
  C  C523  1  0.40500000  0.68674000  0.93946000  1
  C  C524  1  0.91205000  0.59810000  0.42340000  1
  C  C525  1  0.16316000  0.53066000  0.17222000  1
  C  C526  1  0.55994000  0.93190000  0.77382000  1
  C  C527  1  0.60409000  0.92995000  0.72787000  1
  C  C528  1  0.24890000  0.12180000  0.08100000  1
  C  C529  1  0.86780000  0.12080000  0.45320000  1
  C  C530  1  0.37784000  0.95368000  0.94084000  1
  C  C531  1  0.90780000  0.13700000  0.40740000  1
  C  C532  1  0.80852000  0.94929000  0.50267000  1
  C  C533  1  0.43730000  0.57020000  0.87180000  1
  C  C534  1  0.89257000  0.55457000  0.41449000  1
  C  C535  1  0.06653000  0.50626000  0.23868000  1
  C  C536  1  0.10557000  0.50368000  0.19158000  1
  C  C537  1  0.38603000  0.91881000  0.90993000  1
  C  C538  1  0.84120000  0.08120000  0.45380000  1
  C  C539  1  0.74699000  0.66305000  0.52777000  1
  C  C540  1  0.90300000  0.11810000  0.37130000  1
  C  C541  1  0.31868000  0.55916000  0.95368000  1
  C  C542  1  0.09001000  0.27600000  0.17778000  1
  C  C543  1  0.57224000  0.92279000  0.69353000  1
  C  C544  1  0.33376000  0.72618000  0.93190000  1
  C  C545  1  0.48107000  0.92412000  0.78374000  1
  C  C546  1  0.33196000  0.77213000  0.92995000  1
  C  C547  1  0.08841000  0.23187000  0.17251000  1
  C  C548  1  0.31119000  0.99733000  0.94929000  1
  C  C549  1  0.26048000  0.55071000  0.99733000  1
  C  C550  1  0.08996000  0.47223000  0.16305000  1
  C  C551  1  0.87070000  0.08100000  0.37820000  1
  C  C552  1  0.93728000  0.94104000  0.29640000  1
  C  C553  1  0.35573000  0.59351000  0.87603000  1
  C  C554  1  0.09770000  0.98931000  0.13309000  1
  C  C555  1  0.58734000  0.72216000  0.64116000  1
  C  C556  1  0.61059000  0.75865000  0.61757000  1
  C  C557  1  0.23079000  0.36691000  0.98931000  1
  C  C558  1  0.29596000  0.59007000  0.91881000  1
  C  C559  1  0.05306000  0.31364000  0.15344000  1
  C  C560  1  0.15279000  0.43001000  0.05201000  1
  C  C561  1  0.45310000  0.91749000  0.74731000  1
  C  C562  1  0.70285000  0.69158000  0.49632000  1
  C  C563  1  0.94781000  0.93936000  0.24922000  1
  C  C564  1  0.78523000  0.41881000  0.40993000  1
  C  C565  1  0.86604000  0.96934000  0.32778000  1
  C  C566  1  0.74219000  0.49733000  0.44929000  1
  C  C567  1  0.04934000  0.22216000  0.14116000  1
  C  C568  1  0.26481000  0.71626000  0.92412000  1
  C  C569  1  0.26577000  0.80647000  0.92279000  1
  C  C570  1  0.69479000  0.73868000  0.49374000  1
  C  C571  1  0.59203000  0.84100000  0.59394000  1
  C  C572  1  0.56084000  0.80483000  0.62169000  1
  C  C573  1  0.50721000  0.73187000  0.67251000  1
  C  C574  1  0.76824000  0.37603000  0.40649000  1
  C  C575  1  0.23368000  0.20360000  0.94104000  1
  C  C576  1  0.15110000  0.39397000  0.02123000  1
  C  C577  1  0.72764000  0.45368000  0.44084000  1
  C  C578  1  0.19382000  0.17222000  0.96934000  1
  C  C579  1  0.57760000  0.54620000  0.58120000  1
  C  C580  1  0.08280000  0.05201000  0.06999000  1
  C  C581  1  0.04507000  0.02123000  0.10603000  1
  C  C582  1  0.69294000  0.91449000  0.44543000  1
  C  C583  1  0.19703000  0.25078000  0.93936000  1
  C  C584  1  0.01264000  0.30483000  0.12169000  1
  C  C585  1  0.13400000  0.93848000  0.00012000  1
  C  C586  1  0.57248000  0.00012000  0.56152000  1
  C  C587  1  0.45621000  0.77600000  0.67778000  1
  C  C588  1  0.66462000  0.67222000  0.46934000  1
  C  C589  1  0.47986000  0.81364000  0.65344000  1
  C  C590  1  0.51140000  0.54680000  0.62080000  1
  C  C591  1  0.01319000  0.25865000  0.11757000  1
  C  C592  1  0.88210000  0.41749000  0.24731000  1
  C  C593  1  0.54830000  0.62180000  0.58100000  1
  C  C594  1  0.54296000  0.96041000  0.58487000  1
  C  C595  1  0.69090000  0.37180000  0.42980000  1
  C  C596  1  0.20041000  0.75269000  0.91749000  1
  C  C597  1  0.65002000  0.76881000  0.46575000  1
  C  C598  1  0.65159000  0.44711000  0.46391000  1
  C  C599  1  0.88423000  0.96575000  0.23119000  1
  C  C600  1  0.80083000  0.99632000  0.30842000  1
  C  C601  1  0.05286000  0.58551000  0.05457000  1
  C  C602  1  0.10925000  0.19158000  0.99632000  1
  C  C603  1  0.58701000  0.13309000  0.51069000  1
  C  C604  1  0.47890000  0.62870000  0.61810000  1
  C  C605  1  0.81107000  0.42412000  0.28374000  1
  C  C606  1  0.45520000  0.59260000  0.63700000  1
  C  C607  1  0.97630000  0.89070000  0.11510000  1
  C  C608  1  0.86601000  0.17778000  0.22400000  1
  C  C609  1  0.06219000  0.16305000  0.02777000  1
  C  C610  1  0.63160000  0.40590000  0.45810000  1
  C  C611  1  0.82028000  0.17251000  0.26813000  1
  C  C612  1  0.12783000  0.91513000  0.96041000  1
  C  C613  1  0.98985000  0.57660000  0.09810000  1
  C  C614  1  0.63481000  0.06999000  0.44799000  1
  C  C615  1  0.11542000  0.26881000  0.96575000  1
  C  C616  1  0.81147000  0.99374000  0.26132000  1
  C  C617  1  0.13412000  0.49988000  0.93848000  1
  C  C618  1  0.97303000  0.34100000  0.09394000  1
  C  C619  1  0.07279000  0.23868000  0.99374000  1
  C  C620  1  0.66455000  0.92340000  0.40190000  1
  C  C621  1  0.62168000  0.70360000  0.44104000  1
  C  C622  1  0.72524000  0.02777000  0.33695000  1
  C  C623  1  0.37730000  0.59920000  0.67840000  1
  C  C624  1  0.86670000  0.15344000  0.18636000  1
  C  C625  1  0.13837000  0.05457000  0.91449000  1
  C  C626  1  0.61283000  0.75078000  0.43936000  1
  C  C627  1  0.77150000  0.14116000  0.27784000  1
  C  C628  1  0.56630000  0.10603000  0.47877000  1
  C  C629  1  0.26191000  0.57005000  0.77213000  1
  C  C630  1  0.34446000  0.56054000  0.68674000  1
  C  C631  1  0.18597000  0.90606000  0.84100000  1
  C  C632  1  0.63300000  0.88490000  0.39070000  1
  C  C633  1  0.90860000  0.61510000  0.10930000  1
  C  C634  1  0.77184000  0.11757000  0.24135000  1
  C  C635  1  0.81747000  0.12169000  0.19517000  1
  C  C636  1  0.93355000  0.90190000  0.07660000  1
  C  C637  1  0.73434000  0.43190000  0.27382000  1
  C  C638  1  0.81144000  0.42279000  0.19353000  1
  C  C639  1  0.08824000  0.53959000  0.91513000  1
  N  N640  1  0.92322000  0.41768000  0.07248000  1
  N  N641  1  0.85129000  0.10050000  0.11452000  1
  N  N642  1  0.35787000  0.93170000  0.59556000  1
  N  N643  1  0.03419000  0.61452000  0.89950000  1
  N  N644  1  0.84090000  0.07248000  0.08232000  1
  N  N645  1  0.11660000  0.58323000  0.79757000  1
  N  N646  1  0.28585000  0.96605000  0.61865000  1
  N  N647  1  0.95343000  0.90444000  0.93170000  1
  N  N648  1  0.80017000  0.20243000  0.08323000  1
  N  N649  1  0.90450000  0.88135000  0.96605000  1
  N  N650  1  0.80945000  0.95183000  0.06067000  1
  N  N651  1  0.45179000  0.11452000  0.39950000  1
  N  N652  1  0.40562000  0.41539000  0.43957000  1
  N  N653  1  0.41338000  0.08232000  0.42752000  1
  N  N654  1  0.87012000  0.43933000  0.95183000  1
  N  N655  1  0.74742000  0.99526000  0.07250000  1
  N  N656  1  0.81992000  0.42750000  0.99526000  1
  N  N657  1  0.26128000  0.06067000  0.54817000  1
  N  N658  1  0.50260000  0.08323000  0.29757000  1
  N  N659  1  0.88513000  0.56830000  0.90444000  1
  N  N660  1  0.18482000  0.49526000  0.57250000  1
  N  N661  1  0.87055000  0.53395000  0.88135000  1
  N  N662  1  0.24268000  0.07250000  0.50474000  1
  N  N663  1  0.15481000  0.93957000  0.58461000  1
  N  N664  1  0.17805000  0.45183000  0.56067000  1
  N  N665  1  0.24810000  0.38135000  0.46605000  1
  N  N666  1  0.73942000  0.91539000  0.93957000  1
  N  N667  1  0.21043000  0.40444000  0.43170000  1
  N  N668  1  0.67899000  0.56043000  0.91539000  1
  N  N669  1  0.00430000  0.57248000  0.58232000  1
  N  N670  1  0.93369000  0.60050000  0.61452000  1
  N  N671  1  0.08583000  0.29757000  0.41677000  1
  N  N672  1  0.91417000  0.70243000  0.58323000  1
  N  N673  1  0.06631000  0.39950000  0.38548000  1
  N  N674  1  0.99570000  0.42752000  0.41768000  1
  N  N675  1  0.32101000  0.43957000  0.08461000  1
  N  N676  1  0.78957000  0.59556000  0.56830000  1
  N  N677  1  0.26058000  0.08461000  0.06043000  1
  N  N678  1  0.75190000  0.61865000  0.53395000  1
  N  N679  1  0.82195000  0.54817000  0.43933000  1
  N  N680  1  0.84519000  0.06043000  0.41539000  1
  N  N681  1  0.75732000  0.92750000  0.49526000  1
  N  N682  1  0.12945000  0.46605000  0.11865000  1
  N  N683  1  0.81518000  0.50474000  0.42750000  1
  N  N684  1  0.11487000  0.43170000  0.09556000  1
  N  N685  1  0.49740000  0.91677000  0.70243000  1
  N  N686  1  0.73872000  0.93933000  0.45183000  1
  N  N687  1  0.18008000  0.57250000  0.00474000  1
  N  N688  1  0.25258000  0.00474000  0.92750000  1
  N  N689  1  0.12988000  0.56067000  0.04817000  1
  N  N690  1  0.58662000  0.91768000  0.57248000  1
  N  N691  1  0.59438000  0.58461000  0.56043000  1
  N  N692  1  0.54821000  0.88548000  0.60050000  1
  N  N693  1  0.19055000  0.04817000  0.93933000  1
  N  N694  1  0.09550000  0.11865000  0.03395000  1
  N  N695  1  0.19983000  0.79757000  0.91677000  1
  N  N696  1  0.04657000  0.09556000  0.06830000  1
  N  N697  1  0.71415000  0.03395000  0.38135000  1
  N  N698  1  0.88340000  0.41677000  0.20243000  1
  N  N699  1  0.15910000  0.92752000  0.91768000  1
  N  N700  1  0.96581000  0.38548000  0.10050000  1
  N  N701  1  0.64213000  0.06830000  0.40444000  1
  N  N702  1  0.14871000  0.89950000  0.88548000  1
  N  N703  1  0.07678000  0.58232000  0.92752000  1
  O  O704  1  0.05588000  0.67039000  0.93725000  1
  O  O705  1  0.66842000  0.04996000  0.31708000  1
  O  O706  1  0.85304000  0.97512000  0.11704000  1
  O  O707  1  0.01450000  0.81708000  0.95004000  1
  O  O708  1  0.97008000  0.38296000  0.97512000  1
  O  O709  1  0.77373000  0.06275000  0.17039000  1
  O  O710  1  0.08695000  0.83867000  0.85583000  1
  O  O711  1  0.05978000  0.53037000  0.88207000  1
  O  O712  1  0.90985000  0.11793000  0.03037000  1
  O  O713  1  0.57438000  0.14417000  0.33867000  1
  O  O714  1  0.52778000  0.03037000  0.38207000  1
  O  O715  1  0.33254000  0.37207000  0.53025000  1
  O  O716  1  0.78180000  0.38177000  0.07703000  1
  O  O717  1  0.32816000  0.11704000  0.52488000  1
  O  O718  1  0.31035000  0.95763000  0.53247000  1
  O  O719  1  0.31479000  0.47237000  0.52199000  1
  O  O720  1  0.84282000  0.96753000  0.95763000  1
  O  O721  1  0.76514000  0.87207000  0.03025000  1
  O  O722  1  0.66357000  0.07703000  0.11823000  1
  O  O723  1  0.96454000  0.54996000  0.81708000  1
  O  O724  1  0.94278000  0.64417000  0.83867000  1
  O  O725  1  0.33648000  0.17039000  0.43725000  1
  O  O726  1  0.80045000  0.54237000  0.96753000  1
  O  O727  1  0.13721000  0.03025000  0.62793000  1
  O  O728  1  0.14117000  0.57703000  0.61823000  1
  O  O729  1  0.69085000  0.97237000  0.02199000  1
  O  O730  1  0.16322000  0.02199000  0.52763000  1
  O  O731  1  0.23202000  0.46753000  0.45763000  1
  O  O732  1  0.71284000  0.47801000  0.97237000  1
  O  O733  1  0.05480000  0.47512000  0.61704000  1
  O  O734  1  0.21838000  0.31708000  0.45004000  1
  O  O735  1  0.79539000  0.46975000  0.87207000  1
  O  O736  1  0.24060000  0.11823000  0.42297000  1
  O  O737  1  0.99313000  0.56275000  0.67039000  1
  O  O738  1  0.21855000  0.33867000  0.35583000  1
  O  O739  1  0.05815000  0.38207000  0.46963000  1
  O  O740  1  0.94185000  0.61793000  0.53037000  1
  O  O741  1  0.78145000  0.66133000  0.64417000  1
  O  O742  1  0.00687000  0.43725000  0.32961000  1
  O  O743  1  0.75940000  0.88177000  0.57703000  1
  O  O744  1  0.20461000  0.53025000  0.12793000  1
  O  O745  1  0.78162000  0.68292000  0.54996000  1
  O  O746  1  0.94520000  0.52488000  0.38296000  1
  O  O747  1  0.28716000  0.52199000  0.02763000  1
  O  O748  1  0.76798000  0.53247000  0.54237000  1
  O  O749  1  0.83678000  0.97801000  0.47237000  1
  O  O750  1  0.30915000  0.02763000  0.97801000  1
  O  O751  1  0.85883000  0.42297000  0.38177000  1
  O  O752  1  0.86279000  0.96975000  0.37207000  1
  O  O753  1  0.19955000  0.45763000  0.03247000  1
  O  O754  1  0.66352000  0.82961000  0.56275000  1
  O  O755  1  0.05722000  0.35583000  0.16133000  1
  O  O756  1  0.03546000  0.45004000  0.18292000  1
  O  O757  1  0.33643000  0.92297000  0.88177000  1
  O  O758  1  0.23486000  0.12793000  0.96975000  1
  O  O759  1  0.15718000  0.03247000  0.04237000  1
  O  O760  1  0.68521000  0.52763000  0.47801000  1
  O  O761  1  0.68965000  0.04237000  0.46753000  1
  O  O762  1  0.67184000  0.88296000  0.47512000  1
  O  O763  1  0.21820000  0.61823000  0.92297000  1
  O  O764  1  0.66746000  0.62793000  0.46975000  1
  O  O765  1  0.47222000  0.96963000  0.61793000  1
  O  O766  1  0.42562000  0.85583000  0.66133000  1
  O  O767  1  0.09015000  0.88207000  0.96963000  1
  O  O768  1  0.94022000  0.46963000  0.11793000  1
  O  O769  1  0.91305000  0.16133000  0.14417000  1
  O  O770  1  0.22627000  0.93725000  0.82961000  1
  O  O771  1  0.02992000  0.61704000  0.02488000  1
  O  O772  1  0.98550000  0.18292000  0.04996000  1
  O  O773  1  0.14696000  0.02488000  0.88296000  1
  O  O774  1  0.33158000  0.95004000  0.68292000  1
  O  O775  1  0.94412000  0.32961000  0.06275000  1
