# generated using pymatgen
data_Co3H26C40(N5O4)2
_symmetry_space_group_name_H-M   'P 1'
_cell_length_a   11.49320000
_cell_length_b   11.61320000
_cell_length_c   11.81820000
_cell_angle_alpha   65.27500000
_cell_angle_beta   81.17400000
_cell_angle_gamma   72.75200000
_symmetry_Int_Tables_number   1
_chemical_formula_structural   Co3H26C40(N5O4)2
_chemical_formula_sum   'Co3 H26 C40 N10 O8'
_cell_volume   1367.58130355
_cell_formula_units_Z   1
loop_
 _symmetry_equiv_pos_site_id
 _symmetry_equiv_pos_as_xyz
  1  'x, y, z'
loop_
 _atom_site_type_symbol
 _atom_site_label
 _atom_site_symmetry_multiplicity
 _atom_site_fract_x
 _atom_site_fract_y
 _atom_site_fract_z
 _atom_site_occupancy
  Co  Co0  1  0.00000000  0.00000000  0.00000000  1
  Co  Co1  1  0.00000000  0.00000000  0.50000000  1
  Co  Co2  1  0.00000000  0.50000000  0.50000000  1
  H  H3  1  0.04400000  0.66230000  0.17950000  1
  H  H4  1  0.15830000  0.18220000  0.98010000  1
  H  H5  1  0.16490000  0.72440000  0.63180000  1
  H  H6  1  0.20460000  0.36880000  0.70460000  1
  H  H7  1  0.22010000  0.99870000  0.30850000  1
  H  H8  1  0.23470000  0.53190000  0.34120000  1
  H  H9  1  0.25970000  0.80930000  0.04570000  1
  H  H10  1  0.35640000  0.19070000  0.97510000  1
  H  H11  1  0.36270000  0.59870000  0.62920000  1
  H  H12  1  0.41280000  0.27460000  0.71860000  1
  H  H13  1  0.42120000  0.88180000  0.29750000  1
  H  H14  1  0.44370000  0.44470000  0.34430000  1
  H  H15  1  0.46350000  0.80550000  0.03990000  1
  H  H16  1  0.53650000  0.19450000  0.96010000  1
  H  H17  1  0.55630000  0.55530000  0.65570000  1
  H  H18  1  0.57880000  0.11820000  0.70250000  1
  H  H19  1  0.58720000  0.72540000  0.28140000  1
  H  H20  1  0.63730000  0.40130000  0.37080000  1
  H  H21  1  0.64360000  0.80930000  0.02490000  1
  H  H22  1  0.74030000  0.19070000  0.95430000  1
  H  H23  1  0.76530000  0.46810000  0.65880000  1
  H  H24  1  0.77990000  0.00130000  0.69150000  1
  H  H25  1  0.79540000  0.63120000  0.29540000  1
  H  H26  1  0.83510000  0.27560000  0.36820000  1
  H  H27  1  0.84170000  0.81780000  0.01990000  1
  H  H28  1  0.95600000  0.33770000  0.82050000  1
  C  C29  1  0.01850000  0.11260000  0.73150000  1
  C  C30  1  0.02160000  0.22200000  0.62190000  1
  C  C31  1  0.02360000  0.71660000  0.22520000  1
  C  C32  1  0.03810000  0.97080000  0.76480000  1
  C  C33  1  0.05130000  0.24450000  0.48910000  1
  C  C34  1  0.21810000  0.75740000  0.56330000  1
  C  C35  1  0.22150000  0.10420000  0.99180000  1
  C  C36  1  0.24990000  0.91730000  0.37540000  1
  C  C37  1  0.25340000  0.38220000  0.62990000  1
  C  C38  1  0.27120000  0.47680000  0.41930000  1
  C  C39  1  0.28000000  0.88840000  0.02940000  1
  C  C40  1  0.33640000  0.68150000  0.56260000  1
  C  C41  1  0.33980000  0.11060000  0.98790000  1
  C  C42  1  0.37030000  0.84760000  0.36780000  1
  C  C43  1  0.37830000  0.32540000  0.63900000  1
  C  C44  1  0.39640000  0.42470000  0.42010000  1
  C  C45  1  0.40250000  0.88540000  0.02620000  1
  C  C46  1  0.41580000  0.72710000  0.46440000  1
  C  C47  1  0.43530000  0.99850000  0.00300000  1
  C  C48  1  0.45230000  0.34280000  0.53260000  1
  C  C49  1  0.54770000  0.65720000  0.46740000  1
  C  C50  1  0.56470000  0.00150000  0.99700000  1
  C  C51  1  0.58420000  0.27290000  0.53560000  1
  C  C52  1  0.59750000  0.11460000  0.97380000  1
  C  C53  1  0.60360000  0.57530000  0.57990000  1
  C  C54  1  0.62170000  0.67460000  0.36100000  1
  C  C55  1  0.62970000  0.15240000  0.63220000  1
  C  C56  1  0.66020000  0.88940000  0.01210000  1
  C  C57  1  0.66360000  0.31850000  0.43740000  1
  C  C58  1  0.72000000  0.11160000  0.97060000  1
  C  C59  1  0.72880000  0.52320000  0.58070000  1
  C  C60  1  0.74660000  0.61780000  0.37010000  1
  C  C61  1  0.75010000  0.08270000  0.62460000  1
  C  C62  1  0.77850000  0.89580000  0.00820000  1
  C  C63  1  0.78190000  0.24260000  0.43670000  1
  C  C64  1  0.94870000  0.75550000  0.51090000  1
  C  C65  1  0.96190000  0.02920000  0.23520000  1
  C  C66  1  0.97640000  0.28340000  0.77480000  1
  C  C67  1  0.97840000  0.77800000  0.37810000  1
  C  C68  1  0.98150000  0.88740000  0.26850000  1
  N  N69  1  0.00570000  0.66980000  0.34800000  1
  N  N70  1  0.01040000  0.84570000  0.17120000  1
  N  N71  1  0.17420000  0.87500000  0.47240000  1
  N  N72  1  0.18980000  0.99750000  0.01060000  1
  N  N73  1  0.19900000  0.45430000  0.52150000  1
  N  N74  1  0.80100000  0.54570000  0.47850000  1
  N  N75  1  0.81020000  0.00250000  0.98940000  1
  N  N76  1  0.82580000  0.12500000  0.52760000  1
  N  N77  1  0.98960000  0.15430000  0.82880000  1
  N  N78  1  0.99430000  0.33020000  0.65200000  1
  O  O79  1  0.04180000  0.92470000  0.68620000  1
  O  O80  1  0.04550000  0.36230000  0.41530000  1
  O  O81  1  0.04830000  0.89830000  0.88100000  1
  O  O82  1  0.08140000  0.15100000  0.45420000  1
  O  O83  1  0.91860000  0.84900000  0.54580000  1
  O  O84  1  0.95170000  0.10170000  0.11900000  1
  O  O85  1  0.95450000  0.63770000  0.58470000  1
  O  O86  1  0.95820000  0.07530000  0.31380000  1
