# generated using pymatgen
data_Fe3H18C42S3O19
_symmetry_space_group_name_H-M   'P 1'
_cell_length_a   12.30810000
_cell_length_b   12.30810000
_cell_length_c   27.37500000
_cell_angle_alpha   90.00000000
_cell_angle_beta   90.00000000
_cell_angle_gamma   120.00000000
_symmetry_Int_Tables_number   1
_chemical_formula_structural   Fe3H18C42S3O19
_chemical_formula_sum   'Fe6 H36 C84 S6 O38'
_cell_volume   3591.42491991
_cell_formula_units_Z   2
loop_
 _symmetry_equiv_pos_site_id
 _symmetry_equiv_pos_as_xyz
  1  'x, y, z'
loop_
 _atom_site_type_symbol
 _atom_site_label
 _atom_site_symmetry_multiplicity
 _atom_site_fract_x
 _atom_site_fract_y
 _atom_site_fract_z
 _atom_site_occupancy
  Fe  Fe0  1  0.75680000  0.24320000  0.75000000  1
  Fe  Fe1  1  0.75680000  0.51359000  0.75000000  1
  Fe  Fe2  1  0.51359000  0.75680000  0.25000000  1
  Fe  Fe3  1  0.48641000  0.24321000  0.75000000  1
  Fe  Fe4  1  0.24320000  0.48641000  0.25000000  1
  Fe  Fe5  1  0.24320000  0.75680000  0.25000000  1
  H  H6  1  0.97470000  0.28220000  0.54360000  1
  H  H7  1  0.97470000  0.69250000  0.95640000  1
  H  H8  1  0.93370000  0.28960000  0.62650000  1
  H  H9  1  0.93370000  0.64410000  0.87350000  1
  H  H10  1  0.93140000  0.31640000  0.89410000  1
  H  H11  1  0.93140000  0.61500000  0.60590000  1
  H  H12  1  0.71780000  0.02530000  0.95640000  1
  H  H13  1  0.71780000  0.69250000  0.54360000  1
  H  H14  1  0.71040000  0.06630000  0.87350000  1
  H  H15  1  0.71040000  0.64410000  0.62650000  1
  H  H16  1  0.69250000  0.71780000  0.45640000  1
  H  H17  1  0.69250000  0.97470000  0.04360000  1
  H  H18  1  0.68360000  0.06860000  0.60590000  1
  H  H19  1  0.68360000  0.61500000  0.89410000  1
  H  H20  1  0.64410000  0.71040000  0.37350000  1
  H  H21  1  0.64410000  0.93370000  0.12650000  1
  H  H22  1  0.61500000  0.68360000  0.10590000  1
  H  H23  1  0.61500000  0.93140000  0.39410000  1
  H  H24  1  0.38500000  0.06860000  0.89410000  1
  H  H25  1  0.38500000  0.31640000  0.60590000  1
  H  H26  1  0.35590000  0.06630000  0.62650000  1
  H  H27  1  0.35590000  0.28960000  0.87350000  1
  H  H28  1  0.31640000  0.38500000  0.39410000  1
  H  H29  1  0.31640000  0.93140000  0.10590000  1
  H  H30  1  0.30750000  0.02530000  0.54360000  1
  H  H31  1  0.30750000  0.28220000  0.95640000  1
  H  H32  1  0.28960000  0.35590000  0.12650000  1
  H  H33  1  0.28960000  0.93370000  0.37350000  1
  H  H34  1  0.28220000  0.30750000  0.04360000  1
  H  H35  1  0.28220000  0.97470000  0.45640000  1
  H  H36  1  0.06860000  0.38500000  0.10590000  1
  H  H37  1  0.06860000  0.68360000  0.39410000  1
  H  H38  1  0.06630000  0.35590000  0.37350000  1
  H  H39  1  0.06630000  0.71040000  0.12650000  1
  H  H40  1  0.02530000  0.30750000  0.45640000  1
  H  H41  1  0.02530000  0.71780000  0.04360000  1
  C  C42  1  0.98370000  0.44750000  0.52651000  1
  C  C43  1  0.98370000  0.53620000  0.97349000  1
  C  C44  1  0.97150000  0.42690000  0.95498000  1
  C  C45  1  0.97150000  0.54460000  0.54502000  1
  C  C46  1  0.96760000  0.35020000  0.55631000  1
  C  C47  1  0.96760000  0.61740000  0.94369000  1
  C  C48  1  0.94080000  0.35360000  0.60508000  1
  C  C49  1  0.94080000  0.58720000  0.89492000  1
  C  C50  1  0.94050000  0.39290000  0.90613000  1
  C  C51  1  0.94050000  0.54760000  0.59387000  1
  C  C52  1  0.92350000  0.45290000  0.62376000  1
  C  C53  1  0.92350000  0.47060000  0.87624000  1
  C  C54  1  0.88810000  0.43830000  0.82351000  1
  C  C55  1  0.88810000  0.44980000  0.67649000  1
  C  C56  1  0.64980000  0.03240000  0.94369000  1
  C  C57  1  0.64980000  0.61740000  0.55631000  1
  C  C58  1  0.64640000  0.05920000  0.89492000  1
  C  C59  1  0.64640000  0.58720000  0.60508000  1
  C  C60  1  0.61740000  0.64980000  0.44369000  1
  C  C61  1  0.61740000  0.96760000  0.05631000  1
  C  C62  1  0.60710000  0.05950000  0.59387000  1
  C  C63  1  0.60710000  0.54760000  0.90613000  1
  C  C64  1  0.58720000  0.64640000  0.39492000  1
  C  C65  1  0.58720000  0.94080000  0.10508000  1
  C  C66  1  0.57310000  0.02850000  0.54502000  1
  C  C67  1  0.57310000  0.54460000  0.95498000  1
  C  C68  1  0.56170000  0.11190000  0.67649000  1
  C  C69  1  0.56170000  0.44980000  0.82351000  1
  C  C70  1  0.55250000  0.01630000  0.97349000  1
  C  C71  1  0.55250000  0.53620000  0.52651000  1
  C  C72  1  0.55020000  0.11190000  0.82351000  1
  C  C73  1  0.55020000  0.43830000  0.67649000  1
  C  C74  1  0.54760000  0.60710000  0.09387000  1
  C  C75  1  0.54760000  0.94050000  0.40613000  1
  C  C76  1  0.54710000  0.07650000  0.87624000  1
  C  C77  1  0.54710000  0.47060000  0.62376000  1
  C  C78  1  0.54460000  0.57310000  0.04502000  1
  C  C79  1  0.54460000  0.97150000  0.45498000  1
  C  C80  1  0.53620000  0.55250000  0.47349000  1
  C  C81  1  0.53620000  0.98370000  0.02651000  1
  C  C82  1  0.52940000  0.07650000  0.62376000  1
  C  C83  1  0.52940000  0.45290000  0.87624000  1
  C  C84  1  0.47060000  0.54710000  0.37624000  1
  C  C85  1  0.47060000  0.92350000  0.12376000  1
  C  C86  1  0.46380000  0.01630000  0.52651000  1
  C  C87  1  0.46380000  0.44750000  0.97349000  1
  C  C88  1  0.45540000  0.02850000  0.95498000  1
  C  C89  1  0.45540000  0.42690000  0.54502000  1
  C  C90  1  0.45290000  0.52940000  0.12376000  1
  C  C91  1  0.45290000  0.92350000  0.37624000  1
  C  C92  1  0.45240000  0.05950000  0.90613000  1
  C  C93  1  0.45240000  0.39290000  0.59387000  1
  C  C94  1  0.44980000  0.56170000  0.17649000  1
  C  C95  1  0.44980000  0.88810000  0.32351000  1
  C  C96  1  0.44750000  0.46380000  0.02651000  1
  C  C97  1  0.44750000  0.98370000  0.47349000  1
  C  C98  1  0.43830000  0.55020000  0.32351000  1
  C  C99  1  0.43830000  0.88810000  0.17649000  1
  C  C100  1  0.42690000  0.45540000  0.45498000  1
  C  C101  1  0.42690000  0.97150000  0.04502000  1
  C  C102  1  0.41280000  0.05920000  0.60508000  1
  C  C103  1  0.41280000  0.35360000  0.89492000  1
  C  C104  1  0.39290000  0.45240000  0.40613000  1
  C  C105  1  0.39290000  0.94050000  0.09387000  1
  C  C106  1  0.38260000  0.03240000  0.55631000  1
  C  C107  1  0.38260000  0.35020000  0.94369000  1
  C  C108  1  0.35360000  0.41280000  0.10508000  1
  C  C109  1  0.35360000  0.94080000  0.39492000  1
  C  C110  1  0.35020000  0.38260000  0.05631000  1
  C  C111  1  0.35020000  0.96760000  0.44369000  1
  C  C112  1  0.11190000  0.55020000  0.17649000  1
  C  C113  1  0.11190000  0.56170000  0.32351000  1
  C  C114  1  0.07650000  0.52940000  0.37624000  1
  C  C115  1  0.07650000  0.54710000  0.12376000  1
  C  C116  1  0.05950000  0.45240000  0.09387000  1
  C  C117  1  0.05950000  0.60710000  0.40613000  1
  C  C118  1  0.05920000  0.41280000  0.39492000  1
  C  C119  1  0.05920000  0.64640000  0.10508000  1
  C  C120  1  0.03240000  0.38260000  0.44369000  1
  C  C121  1  0.03240000  0.64980000  0.05631000  1
  C  C122  1  0.02850000  0.45540000  0.04502000  1
  C  C123  1  0.02850000  0.57310000  0.45498000  1
  C  C124  1  0.01630000  0.46380000  0.47349000  1
  C  C125  1  0.01630000  0.55250000  0.02651000  1
  S  S126  1  0.00000000  0.34079000  0.00000000  1
  S  S127  1  0.00000000  0.65921000  0.50000000  1
  S  S128  1  0.65921000  0.65921000  1.00000000  1
  S  S129  1  0.65921000  0.00000000  0.50000000  1
  S  S130  1  0.34079000  0.34079000  0.50000000  1
  S  S131  1  0.34079000  0.00000000  1.00000000  1
  O  O132  1  0.88760000  0.36330000  0.70308000  1
  O  O133  1  0.88760000  0.52430000  0.79692000  1
  O  O134  1  0.88520000  0.22430000  0.01129000  1
  O  O135  1  0.88520000  0.66090000  0.48871000  1
  O  O136  1  0.85420000  0.33010000  0.81129000  1
  O  O137  1  0.85420000  0.52410000  0.68871000  1
  O  O138  1  0.77570000  0.11480000  0.48871000  1
  O  O139  1  0.77570000  0.66090000  0.01129000  1
  O  O140  1  0.66990000  0.14580000  0.68871000  1
  O  O141  1  0.66990000  0.52410000  0.81129000  1
  O  O142  1  0.66666667  0.33333333  0.75000000  1
  O  O143  1  0.66090000  0.77570000  0.98871000  1
  O  O144  1  0.66090000  0.88520000  0.51129000  1
  O  O145  1  0.63670000  0.11240000  0.79692000  1
  O  O146  1  0.63670000  0.52430000  0.70308000  1
  O  O147  1  0.52430000  0.63670000  0.29692000  1
  O  O148  1  0.52430000  0.88760000  0.20308000  1
  O  O149  1  0.52410000  0.66990000  0.18871000  1
  O  O150  1  0.52410000  0.85420000  0.31129000  1
  O  O151  1  0.47590000  0.14580000  0.81129000  1
  O  O152  1  0.47590000  0.33010000  0.68871000  1
  O  O153  1  0.47570000  0.11240000  0.70308000  1
  O  O154  1  0.47570000  0.36330000  0.79692000  1
  O  O155  1  0.36330000  0.47570000  0.20308000  1
  O  O156  1  0.36330000  0.88760000  0.29692000  1
  O  O157  1  0.33910000  0.11480000  0.01129000  1
  O  O158  1  0.33910000  0.22430000  0.48871000  1
  O  O159  1  0.33333333  0.66666667  0.25000000  1
  O  O160  1  0.33010000  0.47590000  0.31129000  1
  O  O161  1  0.33010000  0.85420000  0.18871000  1
  O  O162  1  0.22430000  0.33910000  0.51129000  1
  O  O163  1  0.22430000  0.88520000  0.98871000  1
  O  O164  1  0.14580000  0.47590000  0.18871000  1
  O  O165  1  0.14580000  0.66990000  0.31129000  1
  O  O166  1  0.11480000  0.33910000  0.98871000  1
  O  O167  1  0.11480000  0.77570000  0.51129000  1
  O  O168  1  0.11240000  0.47570000  0.29692000  1
  O  O169  1  0.11240000  0.63670000  0.20308000  1
