# generated using pymatgen
data_Cu2H13C29NO9
_symmetry_space_group_name_H-M   'P 1'
_cell_length_a   30.98800000
_cell_length_b   30.98800000
_cell_length_c   45.96400000
_cell_angle_alpha   90.00000000
_cell_angle_beta   90.00000000
_cell_angle_gamma   90.00000000
_symmetry_Int_Tables_number   1
_chemical_formula_structural   Cu2H13C29NO9
_chemical_formula_sum   'Cu48 H312 C696 N24 O216'
_cell_volume   44137.21340282
_cell_formula_units_Z   24
loop_
 _symmetry_equiv_pos_site_id
 _symmetry_equiv_pos_as_xyz
  1  'x, y, z'
loop_
 _atom_site_type_symbol
 _atom_site_label
 _atom_site_symmetry_multiplicity
 _atom_site_fract_x
 _atom_site_fract_y
 _atom_site_fract_z
 _atom_site_occupancy
  Cu  Cu0  1  0.04365000  0.75396000  0.00000000  1
  Cu  Cu1  1  0.05901000  0.66935000  0.00000000  1
  Cu  Cu2  1  0.10332000  0.14538000  0.12778000  1
  Cu  Cu3  1  0.10332000  0.14538000  0.87222000  1
  Cu  Cu4  1  0.13894000  0.19599000  0.16779000  1
  Cu  Cu5  1  0.13894000  0.19599000  0.83221000  1
  Cu  Cu6  1  0.14538000  0.89668000  0.12778000  1
  Cu  Cu7  1  0.14538000  0.89668000  0.87222000  1
  Cu  Cu8  1  0.16935000  0.55901000  0.50000000  1
  Cu  Cu9  1  0.19599000  0.86106000  0.16779000  1
  Cu  Cu10  1  0.19599000  0.86106000  0.83221000  1
  Cu  Cu11  1  0.24604000  0.04365000  0.00000000  1
  Cu  Cu12  1  0.25396000  0.54365000  0.50000000  1
  Cu  Cu13  1  0.30401000  0.36106000  0.33221000  1
  Cu  Cu14  1  0.30401000  0.36106000  0.66779000  1
  Cu  Cu15  1  0.33065000  0.05901000  0.00000000  1
  Cu  Cu16  1  0.35462000  0.39668000  0.37222000  1
  Cu  Cu17  1  0.35462000  0.39668000  0.62778000  1
  Cu  Cu18  1  0.36106000  0.69599000  0.33221000  1
  Cu  Cu19  1  0.36106000  0.69599000  0.66779000  1
  Cu  Cu20  1  0.39668000  0.64538000  0.37222000  1
  Cu  Cu21  1  0.39668000  0.64538000  0.62778000  1
  Cu  Cu22  1  0.44099000  0.16935000  0.50000000  1
  Cu  Cu23  1  0.45635000  0.25396000  0.50000000  1
  Cu  Cu24  1  0.54365000  0.74604000  0.50000000  1
  Cu  Cu25  1  0.55901000  0.83065000  0.50000000  1
  Cu  Cu26  1  0.60332000  0.35462000  0.37222000  1
  Cu  Cu27  1  0.60332000  0.35462000  0.62778000  1
  Cu  Cu28  1  0.63894000  0.30401000  0.33221000  1
  Cu  Cu29  1  0.63894000  0.30401000  0.66779000  1
  Cu  Cu30  1  0.64538000  0.60332000  0.37222000  1
  Cu  Cu31  1  0.64538000  0.60332000  0.62778000  1
  Cu  Cu32  1  0.66935000  0.94099000  0.00000000  1
  Cu  Cu33  1  0.69599000  0.63894000  0.33221000  1
  Cu  Cu34  1  0.69599000  0.63894000  0.66779000  1
  Cu  Cu35  1  0.74604000  0.45635000  0.50000000  1
  Cu  Cu36  1  0.75396000  0.95635000  0.00000000  1
  Cu  Cu37  1  0.80401000  0.13894000  0.16779000  1
  Cu  Cu38  1  0.80401000  0.13894000  0.83221000  1
  Cu  Cu39  1  0.83065000  0.44099000  0.50000000  1
  Cu  Cu40  1  0.85462000  0.10332000  0.12778000  1
  Cu  Cu41  1  0.85462000  0.10332000  0.87222000  1
  Cu  Cu42  1  0.86106000  0.80401000  0.16779000  1
  Cu  Cu43  1  0.86106000  0.80401000  0.83221000  1
  Cu  Cu44  1  0.89668000  0.85462000  0.12778000  1
  Cu  Cu45  1  0.89668000  0.85462000  0.87222000  1
  Cu  Cu46  1  0.94099000  0.33065000  0.00000000  1
  Cu  Cu47  1  0.95635000  0.24604000  0.00000000  1
  H  H48  1  0.00000000  0.50000000  0.19130000  1
  H  H49  1  0.00000000  0.50000000  0.30870000  1
  H  H50  1  0.00000000  0.50000000  0.69130000  1
  H  H51  1  0.00000000  0.50000000  0.80870000  1
  H  H52  1  0.00680000  0.36430000  0.07560000  1
  H  H53  1  0.00680000  0.36430000  0.92440000  1
  H  H54  1  0.01930000  0.42500000  0.19390000  1
  H  H55  1  0.01930000  0.42500000  0.80610000  1
  H  H56  1  0.02000000  0.19470000  0.32690000  1
  H  H57  1  0.02000000  0.19470000  0.67310000  1
  H  H58  1  0.02290000  0.77740000  0.36670000  1
  H  H59  1  0.02290000  0.77740000  0.63330000  1
  H  H60  1  0.02320000  0.42410000  0.09240000  1
  H  H61  1  0.02320000  0.42410000  0.90760000  1
  H  H62  1  0.02430000  0.17570000  0.27950000  1
  H  H63  1  0.02430000  0.17570000  0.72050000  1
  H  H64  1  0.02520000  0.85120000  0.15880000  1
  H  H65  1  0.02520000  0.85120000  0.84120000  1
  H  H66  1  0.03350000  0.19380000  0.23130000  1
  H  H67  1  0.03350000  0.19380000  0.76870000  1
  H  H68  1  0.03910000  0.36180000  0.16840000  1
  H  H69  1  0.03910000  0.36180000  0.83160000  1
  H  H70  1  0.05120000  0.24090000  0.07110000  1
  H  H71  1  0.05120000  0.24090000  0.92890000  1
  H  H72  1  0.06210000  0.75390000  0.40980000  1
  H  H73  1  0.06210000  0.75390000  0.59020000  1
  H  H74  1  0.07500000  0.48070000  0.30610000  1
  H  H75  1  0.07500000  0.48070000  0.69390000  1
  H  H76  1  0.07590000  0.47680000  0.40760000  1
  H  H77  1  0.07590000  0.47680000  0.59240000  1
  H  H78  1  0.07870000  0.31470000  0.14130000  1
  H  H79  1  0.07870000  0.31470000  0.85870000  1
  H  H80  1  0.09290000  0.77100000  0.26490000  1
  H  H81  1  0.09290000  0.77100000  0.73510000  1
  H  H82  1  0.09660000  0.82210000  0.22960000  1
  H  H83  1  0.09660000  0.82210000  0.77040000  1
  H  H84  1  0.12420000  0.72130000  0.42860000  1
  H  H85  1  0.12420000  0.72130000  0.57140000  1
  H  H86  1  0.12680000  0.78930000  0.07110000  1
  H  H87  1  0.12680000  0.78930000  0.92890000  1
  H  H88  1  0.13570000  0.49320000  0.42440000  1
  H  H89  1  0.13570000  0.49320000  0.57560000  1
  H  H90  1  0.13820000  0.46090000  0.33160000  1
  H  H91  1  0.13820000  0.46090000  0.66840000  1
  H  H92  1  0.14880000  0.02520000  0.15880000  1
  H  H93  1  0.14880000  0.02520000  0.84120000  1
  H  H94  1  0.15870000  0.66280000  0.06430000  1
  H  H95  1  0.15870000  0.66280000  0.93570000  1
  H  H96  1  0.16280000  0.65870000  0.43570000  1
  H  H97  1  0.16280000  0.65870000  0.56430000  1
  H  H98  1  0.17460000  0.71240000  0.34840000  1
  H  H99  1  0.17460000  0.71240000  0.65160000  1
  H  H100  1  0.17570000  0.97570000  0.27950000  1
  H  H101  1  0.17570000  0.97570000  0.72050000  1
  H  H102  1  0.17790000  0.09660000  0.22960000  1
  H  H103  1  0.17790000  0.09660000  0.77040000  1
  H  H104  1  0.18530000  0.42130000  0.35870000  1
  H  H105  1  0.18530000  0.42130000  0.64130000  1
  H  H106  1  0.19380000  0.96650000  0.23130000  1
  H  H107  1  0.19380000  0.96650000  0.76870000  1
  H  H108  1  0.19470000  0.98000000  0.32690000  1
  H  H109  1  0.19470000  0.98000000  0.67310000  1
  H  H110  1  0.21040000  0.73590000  0.12780000  1
  H  H111  1  0.21040000  0.73590000  0.87220000  1
  H  H112  1  0.21070000  0.12680000  0.07110000  1
  H  H113  1  0.21070000  0.12680000  0.92890000  1
  H  H114  1  0.21240000  0.67460000  0.15160000  1
  H  H115  1  0.21240000  0.67460000  0.84840000  1
  H  H116  1  0.22130000  0.62420000  0.07140000  1
  H  H117  1  0.22130000  0.62420000  0.92860000  1
  H  H118  1  0.22260000  0.02290000  0.36670000  1
  H  H119  1  0.22260000  0.02290000  0.63330000  1
  H  H120  1  0.22900000  0.09290000  0.26490000  1
  H  H121  1  0.22900000  0.09290000  0.73510000  1
  H  H122  1  0.23590000  0.71040000  0.37220000  1
  H  H123  1  0.23590000  0.71040000  0.62780000  1
  H  H124  1  0.24090000  0.94880000  0.07110000  1
  H  H125  1  0.24090000  0.94880000  0.92890000  1
  H  H126  1  0.24610000  0.06210000  0.40980000  1
  H  H127  1  0.24610000  0.06210000  0.59020000  1
  H  H128  1  0.25390000  0.56210000  0.09020000  1
  H  H129  1  0.25390000  0.56210000  0.90980000  1
  H  H130  1  0.25910000  0.44880000  0.42890000  1
  H  H131  1  0.25910000  0.44880000  0.57110000  1
  H  H132  1  0.26410000  0.21040000  0.12780000  1
  H  H133  1  0.26410000  0.21040000  0.87220000  1
  H  H134  1  0.27100000  0.59290000  0.23510000  1
  H  H135  1  0.27100000  0.59290000  0.76490000  1
  H  H136  1  0.27740000  0.52290000  0.13330000  1
  H  H137  1  0.27740000  0.52290000  0.86670000  1
  H  H138  1  0.27870000  0.12420000  0.42860000  1
  H  H139  1  0.27870000  0.12420000  0.57140000  1
  H  H140  1  0.28760000  0.17460000  0.34840000  1
  H  H141  1  0.28760000  0.17460000  0.65160000  1
  H  H142  1  0.28930000  0.62680000  0.42890000  1
  H  H143  1  0.28930000  0.62680000  0.57110000  1
  H  H144  1  0.28960000  0.23590000  0.37220000  1
  H  H145  1  0.28960000  0.23590000  0.62780000  1
  H  H146  1  0.30530000  0.48000000  0.17310000  1
  H  H147  1  0.30530000  0.48000000  0.82690000  1
  H  H148  1  0.30620000  0.46650000  0.26870000  1
  H  H149  1  0.30620000  0.46650000  0.73130000  1
  H  H150  1  0.31470000  0.92130000  0.14130000  1
  H  H151  1  0.31470000  0.92130000  0.85870000  1
  H  H152  1  0.32210000  0.59660000  0.27040000  1
  H  H153  1  0.32210000  0.59660000  0.72960000  1
  H  H154  1  0.32430000  0.47570000  0.22050000  1
  H  H155  1  0.32430000  0.47570000  0.77950000  1
  H  H156  1  0.32540000  0.21240000  0.15160000  1
  H  H157  1  0.32540000  0.21240000  0.84840000  1
  H  H158  1  0.33720000  0.15870000  0.06430000  1
  H  H159  1  0.33720000  0.15870000  0.93570000  1
  H  H160  1  0.34130000  0.16280000  0.43570000  1
  H  H161  1  0.34130000  0.16280000  0.56430000  1
  H  H162  1  0.35120000  0.52520000  0.34120000  1
  H  H163  1  0.35120000  0.52520000  0.65880000  1
  H  H164  1  0.36180000  0.96090000  0.16840000  1
  H  H165  1  0.36180000  0.96090000  0.83160000  1
  H  H166  1  0.36430000  0.99320000  0.07560000  1
  H  H167  1  0.36430000  0.99320000  0.92440000  1
  H  H168  1  0.37320000  0.28930000  0.42890000  1
  H  H169  1  0.37320000  0.28930000  0.57110000  1
  H  H170  1  0.37580000  0.22130000  0.07140000  1
  H  H171  1  0.37580000  0.22130000  0.92860000  1
  H  H172  1  0.40340000  0.32210000  0.27040000  1
  H  H173  1  0.40340000  0.32210000  0.72960000  1
  H  H174  1  0.40710000  0.27100000  0.23510000  1
  H  H175  1  0.40710000  0.27100000  0.76490000  1
  H  H176  1  0.42130000  0.81470000  0.35870000  1
  H  H177  1  0.42130000  0.81470000  0.64130000  1
  H  H178  1  0.42410000  0.97680000  0.09240000  1
  H  H179  1  0.42410000  0.97680000  0.90760000  1
  H  H180  1  0.42500000  0.98070000  0.19390000  1
  H  H181  1  0.42500000  0.98070000  0.80610000  1
  H  H182  1  0.43790000  0.25390000  0.09020000  1
  H  H183  1  0.43790000  0.25390000  0.90980000  1
  H  H184  1  0.44880000  0.74090000  0.42890000  1
  H  H185  1  0.44880000  0.74090000  0.57110000  1
  H  H186  1  0.46090000  0.86180000  0.33160000  1
  H  H187  1  0.46090000  0.86180000  0.66840000  1
  H  H188  1  0.46650000  0.69380000  0.26870000  1
  H  H189  1  0.46650000  0.69380000  0.73130000  1
  H  H190  1  0.47480000  0.35120000  0.34120000  1
  H  H191  1  0.47480000  0.35120000  0.65880000  1
  H  H192  1  0.47570000  0.67570000  0.22050000  1
  H  H193  1  0.47570000  0.67570000  0.77950000  1
  H  H194  1  0.47680000  0.92410000  0.40760000  1
  H  H195  1  0.47680000  0.92410000  0.59240000  1
  H  H196  1  0.47710000  0.27740000  0.13330000  1
  H  H197  1  0.47710000  0.27740000  0.86670000  1
  H  H198  1  0.48000000  0.69470000  0.17310000  1
  H  H199  1  0.48000000  0.69470000  0.82690000  1
  H  H200  1  0.48070000  0.92500000  0.30610000  1
  H  H201  1  0.48070000  0.92500000  0.69390000  1
  H  H202  1  0.49320000  0.86430000  0.42440000  1
  H  H203  1  0.49320000  0.86430000  0.57560000  1
  H  H204  1  0.50000000  0.00000000  0.19130000  1
  H  H205  1  0.50000000  0.00000000  0.30870000  1
  H  H206  1  0.50000000  0.00000000  0.69130000  1
  H  H207  1  0.50000000  0.00000000  0.80870000  1
  H  H208  1  0.50680000  0.13570000  0.42440000  1
  H  H209  1  0.50680000  0.13570000  0.57560000  1
  H  H210  1  0.51930000  0.07500000  0.30610000  1
  H  H211  1  0.51930000  0.07500000  0.69390000  1
  H  H212  1  0.52000000  0.30530000  0.17310000  1
  H  H213  1  0.52000000  0.30530000  0.82690000  1
  H  H214  1  0.52290000  0.72260000  0.13330000  1
  H  H215  1  0.52290000  0.72260000  0.86670000  1
  H  H216  1  0.52320000  0.07590000  0.40760000  1
  H  H217  1  0.52320000  0.07590000  0.59240000  1
  H  H218  1  0.52430000  0.32430000  0.22050000  1
  H  H219  1  0.52430000  0.32430000  0.77950000  1
  H  H220  1  0.52520000  0.64880000  0.34120000  1
  H  H221  1  0.52520000  0.64880000  0.65880000  1
  H  H222  1  0.53350000  0.30620000  0.26870000  1
  H  H223  1  0.53350000  0.30620000  0.73130000  1
  H  H224  1  0.53910000  0.13820000  0.33160000  1
  H  H225  1  0.53910000  0.13820000  0.66840000  1
  H  H226  1  0.55120000  0.25910000  0.42890000  1
  H  H227  1  0.55120000  0.25910000  0.57110000  1
  H  H228  1  0.56210000  0.74610000  0.09020000  1
  H  H229  1  0.56210000  0.74610000  0.90980000  1
  H  H230  1  0.57500000  0.01930000  0.19390000  1
  H  H231  1  0.57500000  0.01930000  0.80610000  1
  H  H232  1  0.57590000  0.02320000  0.09240000  1
  H  H233  1  0.57590000  0.02320000  0.90760000  1
  H  H234  1  0.57870000  0.18530000  0.35870000  1
  H  H235  1  0.57870000  0.18530000  0.64130000  1
  H  H236  1  0.59290000  0.72900000  0.23510000  1
  H  H237  1  0.59290000  0.72900000  0.76490000  1
  H  H238  1  0.59660000  0.67790000  0.27040000  1
  H  H239  1  0.59660000  0.67790000  0.72960000  1
  H  H240  1  0.62420000  0.77870000  0.07140000  1
  H  H241  1  0.62420000  0.77870000  0.92860000  1
  H  H242  1  0.62680000  0.71070000  0.42890000  1
  H  H243  1  0.62680000  0.71070000  0.57110000  1
  H  H244  1  0.63570000  0.00680000  0.07560000  1
  H  H245  1  0.63570000  0.00680000  0.92440000  1
  H  H246  1  0.63820000  0.03910000  0.16840000  1
  H  H247  1  0.63820000  0.03910000  0.83160000  1
  H  H248  1  0.64880000  0.47480000  0.34120000  1
  H  H249  1  0.64880000  0.47480000  0.65880000  1
  H  H250  1  0.65870000  0.83720000  0.43570000  1
  H  H251  1  0.65870000  0.83720000  0.56430000  1
  H  H252  1  0.66280000  0.84130000  0.06430000  1
  H  H253  1  0.66280000  0.84130000  0.93570000  1
  H  H254  1  0.67460000  0.78760000  0.15160000  1
  H  H255  1  0.67460000  0.78760000  0.84840000  1
  H  H256  1  0.67570000  0.52430000  0.22050000  1
  H  H257  1  0.67570000  0.52430000  0.77950000  1
  H  H258  1  0.67790000  0.40340000  0.27040000  1
  H  H259  1  0.67790000  0.40340000  0.72960000  1
  H  H260  1  0.68530000  0.07870000  0.14130000  1
  H  H261  1  0.68530000  0.07870000  0.85870000  1
  H  H262  1  0.69380000  0.53350000  0.26870000  1
  H  H263  1  0.69380000  0.53350000  0.73130000  1
  H  H264  1  0.69470000  0.52000000  0.17310000  1
  H  H265  1  0.69470000  0.52000000  0.82690000  1
  H  H266  1  0.71040000  0.76410000  0.37220000  1
  H  H267  1  0.71040000  0.76410000  0.62780000  1
  H  H268  1  0.71070000  0.37320000  0.42890000  1
  H  H269  1  0.71070000  0.37320000  0.57110000  1
  H  H270  1  0.71240000  0.82540000  0.34840000  1
  H  H271  1  0.71240000  0.82540000  0.65160000  1
  H  H272  1  0.72130000  0.87580000  0.42860000  1
  H  H273  1  0.72130000  0.87580000  0.57140000  1
  H  H274  1  0.72260000  0.47710000  0.13330000  1
  H  H275  1  0.72260000  0.47710000  0.86670000  1
  H  H276  1  0.72900000  0.40710000  0.23510000  1
  H  H277  1  0.72900000  0.40710000  0.76490000  1
  H  H278  1  0.73590000  0.78960000  0.12780000  1
  H  H279  1  0.73590000  0.78960000  0.87220000  1
  H  H280  1  0.74090000  0.55120000  0.42890000  1
  H  H281  1  0.74090000  0.55120000  0.57110000  1
  H  H282  1  0.74610000  0.43790000  0.09020000  1
  H  H283  1  0.74610000  0.43790000  0.90980000  1
  H  H284  1  0.75390000  0.93790000  0.40980000  1
  H  H285  1  0.75390000  0.93790000  0.59020000  1
  H  H286  1  0.75910000  0.05120000  0.07110000  1
  H  H287  1  0.75910000  0.05120000  0.92890000  1
  H  H288  1  0.76410000  0.28960000  0.37220000  1
  H  H289  1  0.76410000  0.28960000  0.62780000  1
  H  H290  1  0.77100000  0.90710000  0.26490000  1
  H  H291  1  0.77100000  0.90710000  0.73510000  1
  H  H292  1  0.77740000  0.97710000  0.36670000  1
  H  H293  1  0.77740000  0.97710000  0.63330000  1
  H  H294  1  0.77870000  0.37580000  0.07140000  1
  H  H295  1  0.77870000  0.37580000  0.92860000  1
  H  H296  1  0.78760000  0.32540000  0.15160000  1
  H  H297  1  0.78760000  0.32540000  0.84840000  1
  H  H298  1  0.78930000  0.87320000  0.07110000  1
  H  H299  1  0.78930000  0.87320000  0.92890000  1
  H  H300  1  0.78960000  0.26410000  0.12780000  1
  H  H301  1  0.78960000  0.26410000  0.87220000  1
  H  H302  1  0.80530000  0.02000000  0.32690000  1
  H  H303  1  0.80530000  0.02000000  0.67310000  1
  H  H304  1  0.80620000  0.03350000  0.23130000  1
  H  H305  1  0.80620000  0.03350000  0.76870000  1
  H  H306  1  0.81470000  0.57870000  0.35870000  1
  H  H307  1  0.81470000  0.57870000  0.64130000  1
  H  H308  1  0.82210000  0.90340000  0.22960000  1
  H  H309  1  0.82210000  0.90340000  0.77040000  1
  H  H310  1  0.82430000  0.02430000  0.27950000  1
  H  H311  1  0.82430000  0.02430000  0.72050000  1
  H  H312  1  0.82540000  0.28760000  0.34840000  1
  H  H313  1  0.82540000  0.28760000  0.65160000  1
  H  H314  1  0.83720000  0.34130000  0.43570000  1
  H  H315  1  0.83720000  0.34130000  0.56430000  1
  H  H316  1  0.84130000  0.33720000  0.06430000  1
  H  H317  1  0.84130000  0.33720000  0.93570000  1
  H  H318  1  0.85120000  0.97480000  0.15880000  1
  H  H319  1  0.85120000  0.97480000  0.84120000  1
  H  H320  1  0.86180000  0.53910000  0.33160000  1
  H  H321  1  0.86180000  0.53910000  0.66840000  1
  H  H322  1  0.86430000  0.50680000  0.42440000  1
  H  H323  1  0.86430000  0.50680000  0.57560000  1
  H  H324  1  0.87320000  0.21070000  0.07110000  1
  H  H325  1  0.87320000  0.21070000  0.92890000  1
  H  H326  1  0.87580000  0.27870000  0.42860000  1
  H  H327  1  0.87580000  0.27870000  0.57140000  1
  H  H328  1  0.90340000  0.17790000  0.22960000  1
  H  H329  1  0.90340000  0.17790000  0.77040000  1
  H  H330  1  0.90710000  0.22900000  0.26490000  1
  H  H331  1  0.90710000  0.22900000  0.73510000  1
  H  H332  1  0.92130000  0.68530000  0.14130000  1
  H  H333  1  0.92130000  0.68530000  0.85870000  1
  H  H334  1  0.92410000  0.52320000  0.40760000  1
  H  H335  1  0.92410000  0.52320000  0.59240000  1
  H  H336  1  0.92500000  0.51930000  0.30610000  1
  H  H337  1  0.92500000  0.51930000  0.69390000  1
  H  H338  1  0.93790000  0.24610000  0.40980000  1
  H  H339  1  0.93790000  0.24610000  0.59020000  1
  H  H340  1  0.94880000  0.75910000  0.07110000  1
  H  H341  1  0.94880000  0.75910000  0.92890000  1
  H  H342  1  0.96090000  0.63820000  0.16840000  1
  H  H343  1  0.96090000  0.63820000  0.83160000  1
  H  H344  1  0.96650000  0.80620000  0.23130000  1
  H  H345  1  0.96650000  0.80620000  0.76870000  1
  H  H346  1  0.97480000  0.14880000  0.15880000  1
  H  H347  1  0.97480000  0.14880000  0.84120000  1
  H  H348  1  0.97570000  0.82430000  0.27950000  1
  H  H349  1  0.97570000  0.82430000  0.72050000  1
  H  H350  1  0.97680000  0.57590000  0.09240000  1
  H  H351  1  0.97680000  0.57590000  0.90760000  1
  H  H352  1  0.97710000  0.22260000  0.36670000  1
  H  H353  1  0.97710000  0.22260000  0.63330000  1
  H  H354  1  0.98000000  0.80530000  0.32690000  1
  H  H355  1  0.98000000  0.80530000  0.67310000  1
  H  H356  1  0.98070000  0.57500000  0.19390000  1
  H  H357  1  0.98070000  0.57500000  0.80610000  1
  H  H358  1  0.99320000  0.63570000  0.07560000  1
  H  H359  1  0.99320000  0.63570000  0.92440000  1
  C  C360  1  0.00000000  0.50000000  0.11215000  1
  C  C361  1  0.00000000  0.50000000  0.38785000  1
  C  C362  1  0.00000000  0.50000000  0.61215000  1
  C  C363  1  0.00000000  0.50000000  0.88785000  1
  C  C364  1  0.00074000  0.80999000  0.28645000  1
  C  C365  1  0.00074000  0.80999000  0.71355000  1
  C  C366  1  0.00170000  0.29587000  0.04087000  1
  C  C367  1  0.00170000  0.29587000  0.95913000  1
  C  C368  1  0.00400000  0.79986000  0.31455000  1
  C  C369  1  0.00400000  0.79986000  0.68545000  1
  C  C370  1  0.00789000  0.18549000  0.22143000  1
  C  C371  1  0.00789000  0.18549000  0.77857000  1
  C  C372  1  0.01060000  0.17161000  0.19256000  1
  C  C373  1  0.01060000  0.17161000  0.80744000  1
  C  C374  1  0.01079000  0.46353000  0.15828000  1
  C  C375  1  0.01079000  0.46353000  0.84172000  1
  C  C376  1  0.01213000  0.46304000  0.12820000  1
  C  C377  1  0.01213000  0.46304000  0.87180000  1
  C  C378  1  0.02047000  0.42541000  0.17323000  1
  C  C379  1  0.02047000  0.42541000  0.82677000  1
  C  C380  1  0.02206000  0.34089000  0.08415000  1
  C  C381  1  0.02206000  0.34089000  0.91585000  1
  C  C382  1  0.02300000  0.42415000  0.11311000  1
  C  C383  1  0.02300000  0.42415000  0.88689000  1
  C  C384  1  0.02596000  0.30146000  0.06899000  1
  C  C385  1  0.02596000  0.30146000  0.93101000  1
  C  C386  1  0.02686000  0.84091000  0.17818000  1
  C  C387  1  0.02686000  0.84091000  0.82182000  1
  C  C388  1  0.03196000  0.81264000  0.23623000  1
  C  C389  1  0.03196000  0.81264000  0.76377000  1
  C  C390  1  0.03205000  0.38715000  0.15783000  1
  C  C391  1  0.03205000  0.38715000  0.84217000  1
  C  C392  1  0.03329000  0.38621000  0.12796000  1
  C  C393  1  0.03329000  0.38621000  0.87204000  1
  C  C394  1  0.03485000  0.79945000  0.26684000  1
  C  C395  1  0.03485000  0.79945000  0.73316000  1
  C  C396  1  0.03647000  0.48921000  0.34172000  1
  C  C397  1  0.03647000  0.48921000  0.65828000  1
  C  C398  1  0.03696000  0.48787000  0.37180000  1
  C  C399  1  0.03696000  0.48787000  0.62820000  1
  C  C400  1  0.04055000  0.34559000  0.11170000  1
  C  C401  1  0.04055000  0.34559000  0.88830000  1
  C  C402  1  0.04214000  0.78108000  0.32710000  1
  C  C403  1  0.04214000  0.78108000  0.67290000  1
  C  C404  1  0.04866000  0.26760000  0.08120000  1
  C  C405  1  0.04866000  0.26760000  0.91880000  1
  C  C406  1  0.05261000  0.17055000  0.17696000  1
  C  C407  1  0.05261000  0.17055000  0.82304000  1
  C  C408  1  0.06445000  0.31141000  0.12308000  1
  C  C409  1  0.06445000  0.31141000  0.87692000  1
  C  C410  1  0.06640000  0.83845000  0.19189000  1
  C  C411  1  0.06640000  0.83845000  0.80811000  1
  C  C412  1  0.06769000  0.27293000  0.10825000  1
  C  C413  1  0.06769000  0.27293000  0.89175000  1
  C  C414  1  0.06913000  0.82414000  0.22049000  1
  C  C415  1  0.06913000  0.82414000  0.77951000  1
  C  C416  1  0.07022000  0.77885000  0.27774000  1
  C  C417  1  0.07022000  0.77885000  0.72226000  1
  C  C418  1  0.07416000  0.76901000  0.30696000  1
  C  C419  1  0.07416000  0.76901000  0.69304000  1
  C  C420  1  0.07459000  0.47953000  0.32677000  1
  C  C421  1  0.07459000  0.47953000  0.67323000  1
  C  C422  1  0.07585000  0.47700000  0.38689000  1
  C  C423  1  0.07585000  0.47700000  0.61311000  1
  C  C424  1  0.07986000  0.75105000  0.36711000  1
  C  C425  1  0.07986000  0.75105000  0.63289000  1
  C  C426  1  0.08435000  0.74487000  0.39701000  1
  C  C427  1  0.08435000  0.74487000  0.60299000  1
  C  C428  1  0.09054000  0.23469000  0.12207000  1
  C  C429  1  0.09054000  0.23469000  0.87793000  1
  C  C430  1  0.10601000  0.85175000  0.17516000  1
  C  C431  1  0.10601000  0.85175000  0.82484000  1
  C  C432  1  0.10653000  0.72048000  0.03938000  1
  C  C433  1  0.10653000  0.72048000  0.96062000  1
  C  C434  1  0.11285000  0.46795000  0.34217000  1
  C  C435  1  0.11285000  0.46795000  0.65783000  1
  C  C436  1  0.11379000  0.46671000  0.37204000  1
  C  C437  1  0.11379000  0.46671000  0.62796000  1
  C  C438  1  0.11407000  0.74822000  0.31805000  1
  C  C439  1  0.11407000  0.74822000  0.68195000  1
  C  C440  1  0.11533000  0.73935000  0.34873000  1
  C  C441  1  0.11533000  0.73935000  0.65127000  1
  C  C442  1  0.12165000  0.72532000  0.40818000  1
  C  C443  1  0.12165000  0.72532000  0.59182000  1
  C  C444  1  0.13799000  0.72597000  0.06395000  1
  C  C445  1  0.13799000  0.72597000  0.93605000  1
  C  C446  1  0.14224000  0.76485000  0.07797000  1
  C  C447  1  0.14224000  0.76485000  0.92203000  1
  C  C448  1  0.14825000  0.10601000  0.17516000  1
  C  C449  1  0.14825000  0.10601000  0.82484000  1
  C  C450  1  0.15128000  0.72019000  0.36071000  1
  C  C451  1  0.15128000  0.72019000  0.63929000  1
  C  C452  1  0.15441000  0.45945000  0.38830000  1
  C  C453  1  0.15441000  0.45945000  0.61170000  1
  C  C454  1  0.15443000  0.71197000  0.39050000  1
  C  C455  1  0.15443000  0.71197000  0.60950000  1
  C  C456  1  0.15909000  0.02686000  0.17818000  1
  C  C457  1  0.15909000  0.02686000  0.82182000  1
  C  C458  1  0.15911000  0.47794000  0.41585000  1
  C  C459  1  0.15911000  0.47794000  0.58415000  1
  C  C460  1  0.16140000  0.68983000  0.07393000  1
  C  C461  1  0.16140000  0.68983000  0.92607000  1
  C  C462  1  0.16155000  0.06640000  0.19189000  1
  C  C463  1  0.16155000  0.06640000  0.80811000  1
  C  C464  1  0.16876000  0.76874000  0.10195000  1
  C  C465  1  0.16876000  0.76874000  0.89805000  1
  C  C466  1  0.17055000  0.94739000  0.17696000  1
  C  C467  1  0.17055000  0.94739000  0.82304000  1
  C  C468  1  0.17057000  0.81093000  0.11836000  1
  C  C469  1  0.17057000  0.81093000  0.88164000  1
  C  C470  1  0.17161000  0.98940000  0.19256000  1
  C  C471  1  0.17161000  0.98940000  0.80744000  1
  C  C472  1  0.17586000  0.06913000  0.22049000  1
  C  C473  1  0.17586000  0.06913000  0.77951000  1
  C  C474  1  0.18549000  0.99211000  0.22143000  1
  C  C475  1  0.18549000  0.99211000  0.77857000  1
  C  C476  1  0.18736000  0.03196000  0.23623000  1
  C  C477  1  0.18736000  0.03196000  0.76377000  1
  C  C478  1  0.18838000  0.69401000  0.09783000  1
  C  C479  1  0.18838000  0.69401000  0.90217000  1
  C  C480  1  0.18859000  0.43555000  0.37692000  1
  C  C481  1  0.18859000  0.43555000  0.62308000  1
  C  C482  1  0.18907000  0.17057000  0.11836000  1
  C  C483  1  0.18907000  0.17057000  0.88164000  1
  C  C484  1  0.18983000  0.66140000  0.42607000  1
  C  C485  1  0.18983000  0.66140000  0.57393000  1
  C  C486  1  0.19001000  0.00074000  0.28645000  1
  C  C487  1  0.19001000  0.00074000  0.71355000  1
  C  C488  1  0.19185000  0.73311000  0.11150000  1
  C  C489  1  0.19185000  0.73311000  0.88850000  1
  C  C490  1  0.19401000  0.68838000  0.40217000  1
  C  C491  1  0.19401000  0.68838000  0.59783000  1
  C  C492  1  0.19854000  0.47404000  0.43101000  1
  C  C493  1  0.19854000  0.47404000  0.56899000  1
  C  C494  1  0.20014000  0.00400000  0.31455000  1
  C  C495  1  0.20014000  0.00400000  0.68545000  1
  C  C496  1  0.20055000  0.03485000  0.26684000  1
  C  C497  1  0.20055000  0.03485000  0.73316000  1
  C  C498  1  0.20413000  0.49830000  0.45913000  1
  C  C499  1  0.20413000  0.49830000  0.54087000  1
  C  C500  1  0.21197000  0.65443000  0.10950000  1
  C  C501  1  0.21197000  0.65443000  0.89050000  1
  C  C502  1  0.21892000  0.04214000  0.32710000  1
  C  C503  1  0.21892000  0.04214000  0.67290000  1
  C  C504  1  0.22019000  0.65128000  0.13929000  1
  C  C505  1  0.22019000  0.65128000  0.86071000  1
  C  C506  1  0.22048000  0.60653000  0.46062000  1
  C  C507  1  0.22048000  0.60653000  0.53938000  1
  C  C508  1  0.22115000  0.07022000  0.27774000  1
  C  C509  1  0.22115000  0.07022000  0.72226000  1
  C  C510  1  0.22532000  0.62165000  0.09182000  1
  C  C511  1  0.22532000  0.62165000  0.90818000  1
  C  C512  1  0.22597000  0.63799000  0.43605000  1
  C  C513  1  0.22597000  0.63799000  0.56395000  1
  C  C514  1  0.22707000  0.43231000  0.39175000  1
  C  C515  1  0.22707000  0.43231000  0.60825000  1
  C  C516  1  0.23099000  0.07416000  0.30696000  1
  C  C517  1  0.23099000  0.07416000  0.69304000  1
  C  C518  1  0.23126000  0.16876000  0.10195000  1
  C  C519  1  0.23126000  0.16876000  0.89805000  1
  C  C520  1  0.23240000  0.45134000  0.41880000  1
  C  C521  1  0.23240000  0.45134000  0.58120000  1
  C  C522  1  0.23311000  0.69185000  0.38850000  1
  C  C523  1  0.23311000  0.69185000  0.61150000  1
  C  C524  1  0.23469000  0.90946000  0.12207000  1
  C  C525  1  0.23469000  0.90946000  0.87793000  1
  C  C526  1  0.23515000  0.14224000  0.07797000  1
  C  C527  1  0.23515000  0.14224000  0.92203000  1
  C  C528  1  0.23935000  0.61533000  0.15127000  1
  C  C529  1  0.23935000  0.61533000  0.84873000  1
  C  C530  1  0.24487000  0.58435000  0.10299000  1
  C  C531  1  0.24487000  0.58435000  0.89701000  1
  C  C532  1  0.24822000  0.61407000  0.18195000  1
  C  C533  1  0.24822000  0.61407000  0.81805000  1
  C  C534  1  0.24895000  0.07986000  0.36711000  1
  C  C535  1  0.24895000  0.07986000  0.63289000  1
  C  C536  1  0.25105000  0.57986000  0.13289000  1
  C  C537  1  0.25105000  0.57986000  0.86711000  1
  C  C538  1  0.25178000  0.11407000  0.31805000  1
  C  C539  1  0.25178000  0.11407000  0.68195000  1
  C  C540  1  0.25513000  0.08435000  0.39701000  1
  C  C541  1  0.25513000  0.08435000  0.60299000  1
  C  C542  1  0.26065000  0.11533000  0.34873000  1
  C  C543  1  0.26065000  0.11533000  0.65127000  1
  C  C544  1  0.26485000  0.64224000  0.42203000  1
  C  C545  1  0.26485000  0.64224000  0.57797000  1
  C  C546  1  0.26531000  0.40946000  0.37793000  1
  C  C547  1  0.26531000  0.40946000  0.62207000  1
  C  C548  1  0.26689000  0.19185000  0.11150000  1
  C  C549  1  0.26689000  0.19185000  0.88850000  1
  C  C550  1  0.26760000  0.95134000  0.08120000  1
  C  C551  1  0.26760000  0.95134000  0.91880000  1
  C  C552  1  0.26874000  0.66876000  0.39805000  1
  C  C553  1  0.26874000  0.66876000  0.60195000  1
  C  C554  1  0.26901000  0.57416000  0.19304000  1
  C  C555  1  0.26901000  0.57416000  0.80696000  1
  C  C556  1  0.27293000  0.93231000  0.10825000  1
  C  C557  1  0.27293000  0.93231000  0.89175000  1
  C  C558  1  0.27403000  0.13799000  0.06395000  1
  C  C559  1  0.27403000  0.13799000  0.93605000  1
  C  C560  1  0.27468000  0.12165000  0.40818000  1
  C  C561  1  0.27468000  0.12165000  0.59182000  1
  C  C562  1  0.27885000  0.57022000  0.22226000  1
  C  C563  1  0.27885000  0.57022000  0.77774000  1
  C  C564  1  0.27952000  0.10653000  0.03938000  1
  C  C565  1  0.27952000  0.10653000  0.96062000  1
  C  C566  1  0.27981000  0.15128000  0.36071000  1
  C  C567  1  0.27981000  0.15128000  0.63929000  1
  C  C568  1  0.28108000  0.54214000  0.17290000  1
  C  C569  1  0.28108000  0.54214000  0.82710000  1
  C  C570  1  0.28803000  0.15443000  0.39050000  1
  C  C571  1  0.28803000  0.15443000  0.60950000  1
  C  C572  1  0.29587000  0.99830000  0.04087000  1
  C  C573  1  0.29587000  0.99830000  0.95913000  1
  C  C574  1  0.29945000  0.53485000  0.23316000  1
  C  C575  1  0.29945000  0.53485000  0.76684000  1
  C  C576  1  0.29986000  0.50400000  0.18545000  1
  C  C577  1  0.29986000  0.50400000  0.81455000  1
  C  C578  1  0.30146000  0.97404000  0.06899000  1
  C  C579  1  0.30146000  0.97404000  0.93101000  1
  C  C580  1  0.30599000  0.18838000  0.09783000  1
  C  C581  1  0.30599000  0.18838000  0.90217000  1
  C  C582  1  0.30815000  0.23311000  0.38850000  1
  C  C583  1  0.30815000  0.23311000  0.61150000  1
  C  C584  1  0.30999000  0.50074000  0.21355000  1
  C  C585  1  0.30999000  0.50074000  0.78645000  1
  C  C586  1  0.31017000  0.16140000  0.07393000  1
  C  C587  1  0.31017000  0.16140000  0.92607000  1
  C  C588  1  0.31093000  0.67057000  0.38164000  1
  C  C589  1  0.31093000  0.67057000  0.61836000  1
  C  C590  1  0.31141000  0.93555000  0.12308000  1
  C  C591  1  0.31141000  0.93555000  0.87692000  1
  C  C592  1  0.31162000  0.19401000  0.40217000  1
  C  C593  1  0.31162000  0.19401000  0.59783000  1
  C  C594  1  0.31264000  0.53196000  0.26377000  1
  C  C595  1  0.31264000  0.53196000  0.73623000  1
  C  C596  1  0.31451000  0.49211000  0.27857000  1
  C  C597  1  0.31451000  0.49211000  0.72143000  1
  C  C598  1  0.32414000  0.56913000  0.27951000  1
  C  C599  1  0.32414000  0.56913000  0.72049000  1
  C  C600  1  0.32839000  0.48940000  0.30744000  1
  C  C601  1  0.32839000  0.48940000  0.69256000  1
  C  C602  1  0.32943000  0.31093000  0.38164000  1
  C  C603  1  0.32943000  0.31093000  0.61836000  1
  C  C604  1  0.32945000  0.44739000  0.32304000  1
  C  C605  1  0.32945000  0.44739000  0.67696000  1
  C  C606  1  0.33124000  0.26874000  0.39805000  1
  C  C607  1  0.33124000  0.26874000  0.60195000  1
  C  C608  1  0.33845000  0.56640000  0.30811000  1
  C  C609  1  0.33845000  0.56640000  0.69189000  1
  C  C610  1  0.33860000  0.18983000  0.42607000  1
  C  C611  1  0.33860000  0.18983000  0.57393000  1
  C  C612  1  0.34089000  0.97794000  0.08415000  1
  C  C613  1  0.34089000  0.97794000  0.91585000  1
  C  C614  1  0.34091000  0.52686000  0.32182000  1
  C  C615  1  0.34091000  0.52686000  0.67818000  1
  C  C616  1  0.34557000  0.21197000  0.10950000  1
  C  C617  1  0.34557000  0.21197000  0.89050000  1
  C  C618  1  0.34559000  0.95945000  0.11170000  1
  C  C619  1  0.34559000  0.95945000  0.88830000  1
  C  C620  1  0.34872000  0.22019000  0.13929000  1
  C  C621  1  0.34872000  0.22019000  0.86071000  1
  C  C622  1  0.35175000  0.60601000  0.32484000  1
  C  C623  1  0.35175000  0.60601000  0.67516000  1
  C  C624  1  0.35776000  0.26485000  0.42203000  1
  C  C625  1  0.35776000  0.26485000  0.57797000  1
  C  C626  1  0.36201000  0.22597000  0.43605000  1
  C  C627  1  0.36201000  0.22597000  0.56395000  1
  C  C628  1  0.37835000  0.22532000  0.09182000  1
  C  C629  1  0.37835000  0.22532000  0.90818000  1
  C  C630  1  0.38467000  0.23935000  0.15127000  1
  C  C631  1  0.38467000  0.23935000  0.84873000  1
  C  C632  1  0.38593000  0.24822000  0.18195000  1
  C  C633  1  0.38593000  0.24822000  0.81805000  1
  C  C634  1  0.38621000  0.96671000  0.12796000  1
  C  C635  1  0.38621000  0.96671000  0.87204000  1
  C  C636  1  0.38715000  0.96795000  0.15783000  1
  C  C637  1  0.38715000  0.96795000  0.84217000  1
  C  C638  1  0.39347000  0.22048000  0.46062000  1
  C  C639  1  0.39347000  0.22048000  0.53938000  1
  C  C640  1  0.39399000  0.35175000  0.32484000  1
  C  C641  1  0.39399000  0.35175000  0.67516000  1
  C  C642  1  0.40946000  0.73469000  0.37793000  1
  C  C643  1  0.40946000  0.73469000  0.62207000  1
  C  C644  1  0.41565000  0.24487000  0.10299000  1
  C  C645  1  0.41565000  0.24487000  0.89701000  1
  C  C646  1  0.42014000  0.25105000  0.13289000  1
  C  C647  1  0.42014000  0.25105000  0.86711000  1
  C  C648  1  0.42415000  0.97700000  0.11311000  1
  C  C649  1  0.42415000  0.97700000  0.88689000  1
  C  C650  1  0.42541000  0.97953000  0.17323000  1
  C  C651  1  0.42541000  0.97953000  0.82677000  1
  C  C652  1  0.42584000  0.26901000  0.19304000  1
  C  C653  1  0.42584000  0.26901000  0.80696000  1
  C  C654  1  0.42978000  0.27885000  0.22226000  1
  C  C655  1  0.42978000  0.27885000  0.77774000  1
  C  C656  1  0.43087000  0.32414000  0.27951000  1
  C  C657  1  0.43087000  0.32414000  0.72049000  1
  C  C658  1  0.43231000  0.77293000  0.39175000  1
  C  C659  1  0.43231000  0.77293000  0.60825000  1
  C  C660  1  0.43360000  0.33845000  0.30811000  1
  C  C661  1  0.43360000  0.33845000  0.69189000  1
  C  C662  1  0.43555000  0.81141000  0.37692000  1
  C  C663  1  0.43555000  0.81141000  0.62308000  1
  C  C664  1  0.44739000  0.67055000  0.32304000  1
  C  C665  1  0.44739000  0.67055000  0.67696000  1
  C  C666  1  0.45134000  0.76760000  0.41880000  1
  C  C667  1  0.45134000  0.76760000  0.58120000  1
  C  C668  1  0.45786000  0.28108000  0.17290000  1
  C  C669  1  0.45786000  0.28108000  0.82710000  1
  C  C670  1  0.45945000  0.84559000  0.38830000  1
  C  C671  1  0.45945000  0.84559000  0.61170000  1
  C  C672  1  0.46304000  0.98787000  0.12820000  1
  C  C673  1  0.46304000  0.98787000  0.87180000  1
  C  C674  1  0.46353000  0.98921000  0.15828000  1
  C  C675  1  0.46353000  0.98921000  0.84172000  1
  C  C676  1  0.46515000  0.29945000  0.23316000  1
  C  C677  1  0.46515000  0.29945000  0.76684000  1
  C  C678  1  0.46671000  0.88621000  0.37204000  1
  C  C679  1  0.46671000  0.88621000  0.62796000  1
  C  C680  1  0.46795000  0.88715000  0.34217000  1
  C  C681  1  0.46795000  0.88715000  0.65783000  1
  C  C682  1  0.46804000  0.31264000  0.26377000  1
  C  C683  1  0.46804000  0.31264000  0.73623000  1
  C  C684  1  0.47314000  0.34091000  0.32182000  1
  C  C685  1  0.47314000  0.34091000  0.67818000  1
  C  C686  1  0.47404000  0.80146000  0.43101000  1
  C  C687  1  0.47404000  0.80146000  0.56899000  1
  C  C688  1  0.47700000  0.92415000  0.38689000  1
  C  C689  1  0.47700000  0.92415000  0.61311000  1
  C  C690  1  0.47794000  0.84089000  0.41585000  1
  C  C691  1  0.47794000  0.84089000  0.58415000  1
  C  C692  1  0.47953000  0.92541000  0.32677000  1
  C  C693  1  0.47953000  0.92541000  0.67323000  1
  C  C694  1  0.48787000  0.96304000  0.37180000  1
  C  C695  1  0.48787000  0.96304000  0.62820000  1
  C  C696  1  0.48921000  0.96353000  0.34172000  1
  C  C697  1  0.48921000  0.96353000  0.65828000  1
  C  C698  1  0.48940000  0.67161000  0.30744000  1
  C  C699  1  0.48940000  0.67161000  0.69256000  1
  C  C700  1  0.49211000  0.68549000  0.27857000  1
  C  C701  1  0.49211000  0.68549000  0.72143000  1
  C  C702  1  0.49600000  0.29986000  0.18545000  1
  C  C703  1  0.49600000  0.29986000  0.81455000  1
  C  C704  1  0.49830000  0.79587000  0.45913000  1
  C  C705  1  0.49830000  0.79587000  0.54087000  1
  C  C706  1  0.49926000  0.30999000  0.21355000  1
  C  C707  1  0.49926000  0.30999000  0.78645000  1
  C  C708  1  0.50000000  0.00000000  0.11215000  1
  C  C709  1  0.50000000  0.00000000  0.38785000  1
  C  C710  1  0.50000000  0.00000000  0.61215000  1
  C  C711  1  0.50000000  0.00000000  0.88785000  1
  C  C712  1  0.50074000  0.69001000  0.21355000  1
  C  C713  1  0.50074000  0.69001000  0.78645000  1
  C  C714  1  0.50170000  0.20413000  0.45913000  1
  C  C715  1  0.50170000  0.20413000  0.54087000  1
  C  C716  1  0.50400000  0.70014000  0.18545000  1
  C  C717  1  0.50400000  0.70014000  0.81455000  1
  C  C718  1  0.50789000  0.31451000  0.27857000  1
  C  C719  1  0.50789000  0.31451000  0.72143000  1
  C  C720  1  0.51060000  0.32839000  0.30744000  1
  C  C721  1  0.51060000  0.32839000  0.69256000  1
  C  C722  1  0.51079000  0.03647000  0.34172000  1
  C  C723  1  0.51079000  0.03647000  0.65828000  1
  C  C724  1  0.51213000  0.03696000  0.37180000  1
  C  C725  1  0.51213000  0.03696000  0.62820000  1
  C  C726  1  0.52047000  0.07459000  0.32677000  1
  C  C727  1  0.52047000  0.07459000  0.67323000  1
  C  C728  1  0.52206000  0.15911000  0.41585000  1
  C  C729  1  0.52206000  0.15911000  0.58415000  1
  C  C730  1  0.52300000  0.07585000  0.38689000  1
  C  C731  1  0.52300000  0.07585000  0.61311000  1
  C  C732  1  0.52596000  0.19854000  0.43101000  1
  C  C733  1  0.52596000  0.19854000  0.56899000  1
  C  C734  1  0.52686000  0.65909000  0.32182000  1
  C  C735  1  0.52686000  0.65909000  0.67818000  1
  C  C736  1  0.53196000  0.68736000  0.26377000  1
  C  C737  1  0.53196000  0.68736000  0.73623000  1
  C  C738  1  0.53205000  0.11285000  0.34217000  1
  C  C739  1  0.53205000  0.11285000  0.65783000  1
  C  C740  1  0.53329000  0.11379000  0.37204000  1
  C  C741  1  0.53329000  0.11379000  0.62796000  1
  C  C742  1  0.53485000  0.70055000  0.23316000  1
  C  C743  1  0.53485000  0.70055000  0.76684000  1
  C  C744  1  0.53647000  0.01079000  0.15828000  1
  C  C745  1  0.53647000  0.01079000  0.84172000  1
  C  C746  1  0.53696000  0.01213000  0.12820000  1
  C  C747  1  0.53696000  0.01213000  0.87180000  1
  C  C748  1  0.54055000  0.15441000  0.38830000  1
  C  C749  1  0.54055000  0.15441000  0.61170000  1
  C  C750  1  0.54214000  0.71892000  0.17290000  1
  C  C751  1  0.54214000  0.71892000  0.82710000  1
  C  C752  1  0.54866000  0.23240000  0.41880000  1
  C  C753  1  0.54866000  0.23240000  0.58120000  1
  C  C754  1  0.55261000  0.32945000  0.32304000  1
  C  C755  1  0.55261000  0.32945000  0.67696000  1
  C  C756  1  0.56445000  0.18859000  0.37692000  1
  C  C757  1  0.56445000  0.18859000  0.62308000  1
  C  C758  1  0.56640000  0.66155000  0.30811000  1
  C  C759  1  0.56640000  0.66155000  0.69189000  1
  C  C760  1  0.56769000  0.22707000  0.39175000  1
  C  C761  1  0.56769000  0.22707000  0.60825000  1
  C  C762  1  0.56913000  0.67586000  0.27951000  1
  C  C763  1  0.56913000  0.67586000  0.72049000  1
  C  C764  1  0.57022000  0.72115000  0.22226000  1
  C  C765  1  0.57022000  0.72115000  0.77774000  1
  C  C766  1  0.57416000  0.73099000  0.19304000  1
  C  C767  1  0.57416000  0.73099000  0.80696000  1
  C  C768  1  0.57459000  0.02047000  0.17323000  1
  C  C769  1  0.57459000  0.02047000  0.82677000  1
  C  C770  1  0.57585000  0.02300000  0.11311000  1
  C  C771  1  0.57585000  0.02300000  0.88689000  1
  C  C772  1  0.57986000  0.74895000  0.13289000  1
  C  C773  1  0.57986000  0.74895000  0.86711000  1
  C  C774  1  0.58435000  0.75513000  0.10299000  1
  C  C775  1  0.58435000  0.75513000  0.89701000  1
  C  C776  1  0.59054000  0.26531000  0.37793000  1
  C  C777  1  0.59054000  0.26531000  0.62207000  1
  C  C778  1  0.60601000  0.64825000  0.32484000  1
  C  C779  1  0.60601000  0.64825000  0.67516000  1
  C  C780  1  0.60653000  0.77952000  0.46062000  1
  C  C781  1  0.60653000  0.77952000  0.53938000  1
  C  C782  1  0.61285000  0.03205000  0.15783000  1
  C  C783  1  0.61285000  0.03205000  0.84217000  1
  C  C784  1  0.61379000  0.03329000  0.12796000  1
  C  C785  1  0.61379000  0.03329000  0.87204000  1
  C  C786  1  0.61407000  0.75178000  0.18195000  1
  C  C787  1  0.61407000  0.75178000  0.81805000  1
  C  C788  1  0.61533000  0.76065000  0.15127000  1
  C  C789  1  0.61533000  0.76065000  0.84873000  1
  C  C790  1  0.62165000  0.77468000  0.09182000  1
  C  C791  1  0.62165000  0.77468000  0.90818000  1
  C  C792  1  0.63799000  0.77403000  0.43605000  1
  C  C793  1  0.63799000  0.77403000  0.56395000  1
  C  C794  1  0.64224000  0.73515000  0.42203000  1
  C  C795  1  0.64224000  0.73515000  0.57797000  1
  C  C796  1  0.64825000  0.39399000  0.32484000  1
  C  C797  1  0.64825000  0.39399000  0.67516000  1
  C  C798  1  0.65128000  0.77981000  0.13929000  1
  C  C799  1  0.65128000  0.77981000  0.86071000  1
  C  C800  1  0.65441000  0.04055000  0.11170000  1
  C  C801  1  0.65441000  0.04055000  0.88830000  1
  C  C802  1  0.65443000  0.78803000  0.10950000  1
  C  C803  1  0.65443000  0.78803000  0.89050000  1
  C  C804  1  0.65909000  0.47314000  0.32182000  1
  C  C805  1  0.65909000  0.47314000  0.67818000  1
  C  C806  1  0.65911000  0.02206000  0.08415000  1
  C  C807  1  0.65911000  0.02206000  0.91585000  1
  C  C808  1  0.66140000  0.81017000  0.42607000  1
  C  C809  1  0.66140000  0.81017000  0.57393000  1
  C  C810  1  0.66155000  0.43360000  0.30811000  1
  C  C811  1  0.66155000  0.43360000  0.69189000  1
  C  C812  1  0.66876000  0.73126000  0.39805000  1
  C  C813  1  0.66876000  0.73126000  0.60195000  1
  C  C814  1  0.67055000  0.55261000  0.32304000  1
  C  C815  1  0.67055000  0.55261000  0.67696000  1
  C  C816  1  0.67057000  0.68907000  0.38164000  1
  C  C817  1  0.67057000  0.68907000  0.61836000  1
  C  C818  1  0.67161000  0.51060000  0.30744000  1
  C  C819  1  0.67161000  0.51060000  0.69256000  1
  C  C820  1  0.67586000  0.43087000  0.27951000  1
  C  C821  1  0.67586000  0.43087000  0.72049000  1
  C  C822  1  0.68549000  0.50789000  0.27857000  1
  C  C823  1  0.68549000  0.50789000  0.72143000  1
  C  C824  1  0.68736000  0.46804000  0.26377000  1
  C  C825  1  0.68736000  0.46804000  0.73623000  1
  C  C826  1  0.68838000  0.80599000  0.40217000  1
  C  C827  1  0.68838000  0.80599000  0.59783000  1
  C  C828  1  0.68859000  0.06445000  0.12308000  1
  C  C829  1  0.68859000  0.06445000  0.87692000  1
  C  C830  1  0.68907000  0.32943000  0.38164000  1
  C  C831  1  0.68907000  0.32943000  0.61836000  1
  C  C832  1  0.68983000  0.83860000  0.07393000  1
  C  C833  1  0.68983000  0.83860000  0.92607000  1
  C  C834  1  0.69001000  0.49926000  0.21355000  1
  C  C835  1  0.69001000  0.49926000  0.78645000  1
  C  C836  1  0.69185000  0.76689000  0.38850000  1
  C  C837  1  0.69185000  0.76689000  0.61150000  1
  C  C838  1  0.69401000  0.81162000  0.09783000  1
  C  C839  1  0.69401000  0.81162000  0.90217000  1
  C  C840  1  0.69854000  0.02596000  0.06899000  1
  C  C841  1  0.69854000  0.02596000  0.93101000  1
  C  C842  1  0.70014000  0.49600000  0.18545000  1
  C  C843  1  0.70014000  0.49600000  0.81455000  1
  C  C844  1  0.70055000  0.46515000  0.23316000  1
  C  C845  1  0.70055000  0.46515000  0.76684000  1
  C  C846  1  0.70413000  0.00170000  0.04087000  1
  C  C847  1  0.70413000  0.00170000  0.95913000  1
  C  C848  1  0.71197000  0.84557000  0.39050000  1
  C  C849  1  0.71197000  0.84557000  0.60950000  1
  C  C850  1  0.71892000  0.45786000  0.17290000  1
  C  C851  1  0.71892000  0.45786000  0.82710000  1
  C  C852  1  0.72019000  0.84872000  0.36071000  1
  C  C853  1  0.72019000  0.84872000  0.63929000  1
  C  C854  1  0.72048000  0.89347000  0.03938000  1
  C  C855  1  0.72048000  0.89347000  0.96062000  1
  C  C856  1  0.72115000  0.42978000  0.22226000  1
  C  C857  1  0.72115000  0.42978000  0.77774000  1
  C  C858  1  0.72532000  0.87835000  0.40818000  1
  C  C859  1  0.72532000  0.87835000  0.59182000  1
  C  C860  1  0.72597000  0.86201000  0.06395000  1
  C  C861  1  0.72597000  0.86201000  0.93605000  1
  C  C862  1  0.72707000  0.06769000  0.10825000  1
  C  C863  1  0.72707000  0.06769000  0.89175000  1
  C  C864  1  0.73099000  0.42584000  0.19304000  1
  C  C865  1  0.73099000  0.42584000  0.80696000  1
  C  C866  1  0.73126000  0.33124000  0.39805000  1
  C  C867  1  0.73126000  0.33124000  0.60195000  1
  C  C868  1  0.73240000  0.04866000  0.08120000  1
  C  C869  1  0.73240000  0.04866000  0.91880000  1
  C  C870  1  0.73311000  0.80815000  0.11150000  1
  C  C871  1  0.73311000  0.80815000  0.88850000  1
  C  C872  1  0.73469000  0.59054000  0.37793000  1
  C  C873  1  0.73469000  0.59054000  0.62207000  1
  C  C874  1  0.73515000  0.35776000  0.42203000  1
  C  C875  1  0.73515000  0.35776000  0.57797000  1
  C  C876  1  0.73935000  0.88467000  0.34873000  1
  C  C877  1  0.73935000  0.88467000  0.65127000  1
  C  C878  1  0.74487000  0.91565000  0.39701000  1
  C  C879  1  0.74487000  0.91565000  0.60299000  1
  C  C880  1  0.74822000  0.88593000  0.31805000  1
  C  C881  1  0.74822000  0.88593000  0.68195000  1
  C  C882  1  0.74895000  0.42014000  0.13289000  1
  C  C883  1  0.74895000  0.42014000  0.86711000  1
  C  C884  1  0.75105000  0.92014000  0.36711000  1
  C  C885  1  0.75105000  0.92014000  0.63289000  1
  C  C886  1  0.75178000  0.38593000  0.18195000  1
  C  C887  1  0.75178000  0.38593000  0.81805000  1
  C  C888  1  0.75513000  0.41565000  0.10299000  1
  C  C889  1  0.75513000  0.41565000  0.89701000  1
  C  C890  1  0.76065000  0.38467000  0.15127000  1
  C  C891  1  0.76065000  0.38467000  0.84873000  1
  C  C892  1  0.76485000  0.85776000  0.07797000  1
  C  C893  1  0.76485000  0.85776000  0.92203000  1
  C  C894  1  0.76531000  0.09054000  0.12207000  1
  C  C895  1  0.76531000  0.09054000  0.87793000  1
  C  C896  1  0.76689000  0.30815000  0.38850000  1
  C  C897  1  0.76689000  0.30815000  0.61150000  1
  C  C898  1  0.76760000  0.54866000  0.41880000  1
  C  C899  1  0.76760000  0.54866000  0.58120000  1
  C  C900  1  0.76874000  0.83124000  0.10195000  1
  C  C901  1  0.76874000  0.83124000  0.89805000  1
  C  C902  1  0.76901000  0.92584000  0.30696000  1
  C  C903  1  0.76901000  0.92584000  0.69304000  1
  C  C904  1  0.77293000  0.56769000  0.39175000  1
  C  C905  1  0.77293000  0.56769000  0.60825000  1
  C  C906  1  0.77403000  0.36201000  0.43605000  1
  C  C907  1  0.77403000  0.36201000  0.56395000  1
  C  C908  1  0.77468000  0.37835000  0.09182000  1
  C  C909  1  0.77468000  0.37835000  0.90818000  1
  C  C910  1  0.77885000  0.92978000  0.27774000  1
  C  C911  1  0.77885000  0.92978000  0.72226000  1
  C  C912  1  0.77952000  0.39347000  0.46062000  1
  C  C913  1  0.77952000  0.39347000  0.53938000  1
  C  C914  1  0.77981000  0.34872000  0.13929000  1
  C  C915  1  0.77981000  0.34872000  0.86071000  1
  C  C916  1  0.78108000  0.95786000  0.32710000  1
  C  C917  1  0.78108000  0.95786000  0.67290000  1
  C  C918  1  0.78803000  0.34557000  0.10950000  1
  C  C919  1  0.78803000  0.34557000  0.89050000  1
  C  C920  1  0.79587000  0.50170000  0.45913000  1
  C  C921  1  0.79587000  0.50170000  0.54087000  1
  C  C922  1  0.79945000  0.96515000  0.26684000  1
  C  C923  1  0.79945000  0.96515000  0.73316000  1
  C  C924  1  0.79986000  0.99600000  0.31455000  1
  C  C925  1  0.79986000  0.99600000  0.68545000  1
  C  C926  1  0.80146000  0.52596000  0.43101000  1
  C  C927  1  0.80146000  0.52596000  0.56899000  1
  C  C928  1  0.80599000  0.31162000  0.40217000  1
  C  C929  1  0.80599000  0.31162000  0.59783000  1
  C  C930  1  0.80815000  0.26689000  0.11150000  1
  C  C931  1  0.80815000  0.26689000  0.88850000  1
  C  C932  1  0.80999000  0.99926000  0.28645000  1
  C  C933  1  0.80999000  0.99926000  0.71355000  1
  C  C934  1  0.81017000  0.33860000  0.42607000  1
  C  C935  1  0.81017000  0.33860000  0.57393000  1
  C  C936  1  0.81093000  0.82943000  0.11836000  1
  C  C937  1  0.81093000  0.82943000  0.88164000  1
  C  C938  1  0.81141000  0.56445000  0.37692000  1
  C  C939  1  0.81141000  0.56445000  0.62308000  1
  C  C940  1  0.81162000  0.30599000  0.09783000  1
  C  C941  1  0.81162000  0.30599000  0.90217000  1
  C  C942  1  0.81264000  0.96804000  0.23623000  1
  C  C943  1  0.81264000  0.96804000  0.76377000  1
  C  C944  1  0.81451000  0.00789000  0.22143000  1
  C  C945  1  0.81451000  0.00789000  0.77857000  1
  C  C946  1  0.82414000  0.93087000  0.22049000  1
  C  C947  1  0.82414000  0.93087000  0.77951000  1
  C  C948  1  0.82839000  0.01060000  0.19256000  1
  C  C949  1  0.82839000  0.01060000  0.80744000  1
  C  C950  1  0.82943000  0.18907000  0.11836000  1
  C  C951  1  0.82943000  0.18907000  0.88164000  1
  C  C952  1  0.82945000  0.05261000  0.17696000  1
  C  C953  1  0.82945000  0.05261000  0.82304000  1
  C  C954  1  0.83124000  0.23126000  0.10195000  1
  C  C955  1  0.83124000  0.23126000  0.89805000  1
  C  C956  1  0.83845000  0.93360000  0.19189000  1
  C  C957  1  0.83845000  0.93360000  0.80811000  1
  C  C958  1  0.83860000  0.31017000  0.07393000  1
  C  C959  1  0.83860000  0.31017000  0.92607000  1
  C  C960  1  0.84089000  0.52206000  0.41585000  1
  C  C961  1  0.84089000  0.52206000  0.58415000  1
  C  C962  1  0.84091000  0.97314000  0.17818000  1
  C  C963  1  0.84091000  0.97314000  0.82182000  1
  C  C964  1  0.84557000  0.28803000  0.39050000  1
  C  C965  1  0.84557000  0.28803000  0.60950000  1
  C  C966  1  0.84559000  0.54055000  0.38830000  1
  C  C967  1  0.84559000  0.54055000  0.61170000  1
  C  C968  1  0.84872000  0.27981000  0.36071000  1
  C  C969  1  0.84872000  0.27981000  0.63929000  1
  C  C970  1  0.85175000  0.89399000  0.17516000  1
  C  C971  1  0.85175000  0.89399000  0.82484000  1
  C  C972  1  0.85776000  0.23515000  0.07797000  1
  C  C973  1  0.85776000  0.23515000  0.92203000  1
  C  C974  1  0.86201000  0.27403000  0.06395000  1
  C  C975  1  0.86201000  0.27403000  0.93605000  1
  C  C976  1  0.87835000  0.27468000  0.40818000  1
  C  C977  1  0.87835000  0.27468000  0.59182000  1
  C  C978  1  0.88467000  0.26065000  0.34873000  1
  C  C979  1  0.88467000  0.26065000  0.65127000  1
  C  C980  1  0.88593000  0.25178000  0.31805000  1
  C  C981  1  0.88593000  0.25178000  0.68195000  1
  C  C982  1  0.88621000  0.53329000  0.37204000  1
  C  C983  1  0.88621000  0.53329000  0.62796000  1
  C  C984  1  0.88715000  0.53205000  0.34217000  1
  C  C985  1  0.88715000  0.53205000  0.65783000  1
  C  C986  1  0.89347000  0.27952000  0.03938000  1
  C  C987  1  0.89347000  0.27952000  0.96062000  1
  C  C988  1  0.89399000  0.14825000  0.17516000  1
  C  C989  1  0.89399000  0.14825000  0.82484000  1
  C  C990  1  0.90946000  0.76531000  0.12207000  1
  C  C991  1  0.90946000  0.76531000  0.87793000  1
  C  C992  1  0.91565000  0.25513000  0.39701000  1
  C  C993  1  0.91565000  0.25513000  0.60299000  1
  C  C994  1  0.92014000  0.24895000  0.36711000  1
  C  C995  1  0.92014000  0.24895000  0.63289000  1
  C  C996  1  0.92415000  0.52300000  0.38689000  1
  C  C997  1  0.92415000  0.52300000  0.61311000  1
  C  C998  1  0.92541000  0.52047000  0.32677000  1
  C  C999  1  0.92541000  0.52047000  0.67323000  1
  C  C1000  1  0.92584000  0.23099000  0.30696000  1
  C  C1001  1  0.92584000  0.23099000  0.69304000  1
  C  C1002  1  0.92978000  0.22115000  0.27774000  1
  C  C1003  1  0.92978000  0.22115000  0.72226000  1
  C  C1004  1  0.93087000  0.17586000  0.22049000  1
  C  C1005  1  0.93087000  0.17586000  0.77951000  1
  C  C1006  1  0.93231000  0.72707000  0.10825000  1
  C  C1007  1  0.93231000  0.72707000  0.89175000  1
  C  C1008  1  0.93360000  0.16155000  0.19189000  1
  C  C1009  1  0.93360000  0.16155000  0.80811000  1
  C  C1010  1  0.93555000  0.68859000  0.12308000  1
  C  C1011  1  0.93555000  0.68859000  0.87692000  1
  C  C1012  1  0.94739000  0.82945000  0.17696000  1
  C  C1013  1  0.94739000  0.82945000  0.82304000  1
  C  C1014  1  0.95134000  0.73240000  0.08120000  1
  C  C1015  1  0.95134000  0.73240000  0.91880000  1
  C  C1016  1  0.95786000  0.21892000  0.32710000  1
  C  C1017  1  0.95786000  0.21892000  0.67290000  1
  C  C1018  1  0.95945000  0.65441000  0.11170000  1
  C  C1019  1  0.95945000  0.65441000  0.88830000  1
  C  C1020  1  0.96304000  0.51213000  0.37180000  1
  C  C1021  1  0.96304000  0.51213000  0.62820000  1
  C  C1022  1  0.96353000  0.51079000  0.34172000  1
  C  C1023  1  0.96353000  0.51079000  0.65828000  1
  C  C1024  1  0.96515000  0.20055000  0.26684000  1
  C  C1025  1  0.96515000  0.20055000  0.73316000  1
  C  C1026  1  0.96671000  0.61379000  0.12796000  1
  C  C1027  1  0.96671000  0.61379000  0.87204000  1
  C  C1028  1  0.96795000  0.61285000  0.15783000  1
  C  C1029  1  0.96795000  0.61285000  0.84217000  1
  C  C1030  1  0.96804000  0.18736000  0.23623000  1
  C  C1031  1  0.96804000  0.18736000  0.76377000  1
  C  C1032  1  0.97314000  0.15909000  0.17818000  1
  C  C1033  1  0.97314000  0.15909000  0.82182000  1
  C  C1034  1  0.97404000  0.69854000  0.06899000  1
  C  C1035  1  0.97404000  0.69854000  0.93101000  1
  C  C1036  1  0.97700000  0.57585000  0.11311000  1
  C  C1037  1  0.97700000  0.57585000  0.88689000  1
  C  C1038  1  0.97794000  0.65911000  0.08415000  1
  C  C1039  1  0.97794000  0.65911000  0.91585000  1
  C  C1040  1  0.97953000  0.57459000  0.17323000  1
  C  C1041  1  0.97953000  0.57459000  0.82677000  1
  C  C1042  1  0.98787000  0.53696000  0.12820000  1
  C  C1043  1  0.98787000  0.53696000  0.87180000  1
  C  C1044  1  0.98921000  0.53647000  0.15828000  1
  C  C1045  1  0.98921000  0.53647000  0.84172000  1
  C  C1046  1  0.98940000  0.82839000  0.19256000  1
  C  C1047  1  0.98940000  0.82839000  0.80744000  1
  C  C1048  1  0.99211000  0.81451000  0.22143000  1
  C  C1049  1  0.99211000  0.81451000  0.77857000  1
  C  C1050  1  0.99600000  0.20014000  0.31455000  1
  C  C1051  1  0.99600000  0.20014000  0.68545000  1
  C  C1052  1  0.99830000  0.70413000  0.04087000  1
  C  C1053  1  0.99830000  0.70413000  0.95913000  1
  C  C1054  1  0.99926000  0.19001000  0.28645000  1
  C  C1055  1  0.99926000  0.19001000  0.71355000  1
  N  N1056  1  0.00000000  0.50000000  0.17218000  1
  N  N1057  1  0.00000000  0.50000000  0.32782000  1
  N  N1058  1  0.00000000  0.50000000  0.67218000  1
  N  N1059  1  0.00000000  0.50000000  0.82782000  1
  N  N1060  1  0.04477000  0.77095000  0.35528000  1
  N  N1061  1  0.04477000  0.77095000  0.64472000  1
  N  N1062  1  0.22905000  0.04477000  0.35528000  1
  N  N1063  1  0.22905000  0.04477000  0.64472000  1
  N  N1064  1  0.27095000  0.54477000  0.14472000  1
  N  N1065  1  0.27095000  0.54477000  0.85528000  1
  N  N1066  1  0.45523000  0.27095000  0.14472000  1
  N  N1067  1  0.45523000  0.27095000  0.85528000  1
  N  N1068  1  0.50000000  0.00000000  0.17218000  1
  N  N1069  1  0.50000000  0.00000000  0.32782000  1
  N  N1070  1  0.50000000  0.00000000  0.67218000  1
  N  N1071  1  0.50000000  0.00000000  0.82782000  1
  N  N1072  1  0.54477000  0.72905000  0.14472000  1
  N  N1073  1  0.54477000  0.72905000  0.85528000  1
  N  N1074  1  0.72905000  0.45523000  0.14472000  1
  N  N1075  1  0.72905000  0.45523000  0.85528000  1
  N  N1076  1  0.77095000  0.95523000  0.35528000  1
  N  N1077  1  0.77095000  0.95523000  0.64472000  1
  N  N1078  1  0.95523000  0.22905000  0.35528000  1
  N  N1079  1  0.95523000  0.22905000  0.64472000  1
  O  O1080  1  0.00000000  0.50000000  0.08480000  1
  O  O1081  1  0.00000000  0.50000000  0.41520000  1
  O  O1082  1  0.00000000  0.50000000  0.58480000  1
  O  O1083  1  0.00000000  0.50000000  0.91520000  1
  O  O1084  1  0.00133000  0.74099000  0.03070000  1
  O  O1085  1  0.00133000  0.74099000  0.96930000  1
  O  O1086  1  0.01482000  0.66920000  0.03066000  1
  O  O1087  1  0.01482000  0.66920000  0.96934000  1
  O  O1088  1  0.05279000  0.15178000  0.15233000  1
  O  O1089  1  0.05279000  0.15178000  0.84767000  1
  O  O1090  1  0.08455000  0.18819000  0.18910000  1
  O  O1091  1  0.08455000  0.18819000  0.81090000  1
  O  O1092  1  0.08745000  0.19918000  0.10877000  1
  O  O1093  1  0.08745000  0.19918000  0.89123000  1
  O  O1094  1  0.08813000  0.75352000  0.03016000  1
  O  O1095  1  0.08813000  0.75352000  0.96984000  1
  O  O1096  1  0.09999000  0.87460000  0.15310000  1
  O  O1097  1  0.09999000  0.87460000  0.84690000  1
  O  O1098  1  0.10223000  0.68221000  0.02948000  1
  O  O1099  1  0.10223000  0.68221000  0.97052000  1
  O  O1100  1  0.11060000  0.24148000  0.14523000  1
  O  O1101  1  0.11060000  0.24148000  0.85477000  1
  O  O1102  1  0.12540000  0.09999000  0.15310000  1
  O  O1103  1  0.12540000  0.09999000  0.84690000  1
  O  O1104  1  0.14222000  0.84041000  0.18538000  1
  O  O1105  1  0.14222000  0.84041000  0.81462000  1
  O  O1106  1  0.14331000  0.73904000  0.30191000  1
  O  O1107  1  0.14331000  0.73904000  0.69809000  1
  O  O1108  1  0.14730000  0.84094000  0.10845000  1
  O  O1109  1  0.14730000  0.84094000  0.89155000  1
  O  O1110  1  0.15178000  0.94721000  0.15233000  1
  O  O1111  1  0.15178000  0.94721000  0.84767000  1
  O  O1112  1  0.15906000  0.14730000  0.10845000  1
  O  O1113  1  0.15906000  0.14730000  0.89155000  1
  O  O1114  1  0.15959000  0.14222000  0.18538000  1
  O  O1115  1  0.15959000  0.14222000  0.81462000  1
  O  O1116  1  0.16920000  0.51482000  0.46934000  1
  O  O1117  1  0.16920000  0.51482000  0.53066000  1
  O  O1118  1  0.18221000  0.60223000  0.47052000  1
  O  O1119  1  0.18221000  0.60223000  0.52948000  1
  O  O1120  1  0.18719000  0.19421000  0.14058000  1
  O  O1121  1  0.18719000  0.19421000  0.85942000  1
  O  O1122  1  0.18819000  0.91545000  0.18910000  1
  O  O1123  1  0.18819000  0.91545000  0.81090000  1
  O  O1124  1  0.19421000  0.81281000  0.14058000  1
  O  O1125  1  0.19421000  0.81281000  0.85942000  1
  O  O1126  1  0.19918000  0.91255000  0.10877000  1
  O  O1127  1  0.19918000  0.91255000  0.89123000  1
  O  O1128  1  0.23904000  0.64331000  0.19809000  1
  O  O1129  1  0.23904000  0.64331000  0.80191000  1
  O  O1130  1  0.24099000  0.50133000  0.46930000  1
  O  O1131  1  0.24099000  0.50133000  0.53070000  1
  O  O1132  1  0.24148000  0.88940000  0.14523000  1
  O  O1133  1  0.24148000  0.88940000  0.85477000  1
  O  O1134  1  0.24648000  0.08813000  0.03016000  1
  O  O1135  1  0.24648000  0.08813000  0.96984000  1
  O  O1136  1  0.25352000  0.58813000  0.46984000  1
  O  O1137  1  0.25352000  0.58813000  0.53016000  1
  O  O1138  1  0.25852000  0.38940000  0.35477000  1
  O  O1139  1  0.25852000  0.38940000  0.64523000  1
  O  O1140  1  0.25901000  0.00133000  0.03070000  1
  O  O1141  1  0.25901000  0.00133000  0.96930000  1
  O  O1142  1  0.26096000  0.14331000  0.30191000  1
  O  O1143  1  0.26096000  0.14331000  0.69809000  1
  O  O1144  1  0.30082000  0.41255000  0.39123000  1
  O  O1145  1  0.30082000  0.41255000  0.60877000  1
  O  O1146  1  0.30579000  0.31281000  0.35942000  1
  O  O1147  1  0.30579000  0.31281000  0.64058000  1
  O  O1148  1  0.31181000  0.41545000  0.31090000  1
  O  O1149  1  0.31181000  0.41545000  0.68910000  1
  O  O1150  1  0.31281000  0.69421000  0.35942000  1
  O  O1151  1  0.31281000  0.69421000  0.64058000  1
  O  O1152  1  0.31779000  0.10223000  0.02948000  1
  O  O1153  1  0.31779000  0.10223000  0.97052000  1
  O  O1154  1  0.33080000  0.01482000  0.03066000  1
  O  O1155  1  0.33080000  0.01482000  0.96934000  1
  O  O1156  1  0.34041000  0.64222000  0.31462000  1
  O  O1157  1  0.34041000  0.64222000  0.68538000  1
  O  O1158  1  0.34094000  0.64730000  0.39155000  1
  O  O1159  1  0.34094000  0.64730000  0.60845000  1
  O  O1160  1  0.34822000  0.44721000  0.34767000  1
  O  O1161  1  0.34822000  0.44721000  0.65233000  1
  O  O1162  1  0.35270000  0.34094000  0.39155000  1
  O  O1163  1  0.35270000  0.34094000  0.60845000  1
  O  O1164  1  0.35669000  0.23904000  0.19809000  1
  O  O1165  1  0.35669000  0.23904000  0.80191000  1
  O  O1166  1  0.35778000  0.34041000  0.31462000  1
  O  O1167  1  0.35778000  0.34041000  0.68538000  1
  O  O1168  1  0.37460000  0.59999000  0.34690000  1
  O  O1169  1  0.37460000  0.59999000  0.65310000  1
  O  O1170  1  0.38940000  0.74148000  0.35477000  1
  O  O1171  1  0.38940000  0.74148000  0.64523000  1
  O  O1172  1  0.39777000  0.18221000  0.47052000  1
  O  O1173  1  0.39777000  0.18221000  0.52948000  1
  O  O1174  1  0.40001000  0.37460000  0.34690000  1
  O  O1175  1  0.40001000  0.37460000  0.65310000  1
  O  O1176  1  0.41187000  0.25352000  0.46984000  1
  O  O1177  1  0.41187000  0.25352000  0.53016000  1
  O  O1178  1  0.41255000  0.69918000  0.39123000  1
  O  O1179  1  0.41255000  0.69918000  0.60877000  1
  O  O1180  1  0.41545000  0.68819000  0.31090000  1
  O  O1181  1  0.41545000  0.68819000  0.68910000  1
  O  O1182  1  0.44721000  0.65178000  0.34767000  1
  O  O1183  1  0.44721000  0.65178000  0.65233000  1
  O  O1184  1  0.48518000  0.16920000  0.46934000  1
  O  O1185  1  0.48518000  0.16920000  0.53066000  1
  O  O1186  1  0.49867000  0.24099000  0.46930000  1
  O  O1187  1  0.49867000  0.24099000  0.53070000  1
  O  O1188  1  0.50000000  0.00000000  0.08480000  1
  O  O1189  1  0.50000000  0.00000000  0.41520000  1
  O  O1190  1  0.50000000  0.00000000  0.58480000  1
  O  O1191  1  0.50000000  0.00000000  0.91520000  1
  O  O1192  1  0.50133000  0.75901000  0.46930000  1
  O  O1193  1  0.50133000  0.75901000  0.53070000  1
  O  O1194  1  0.51482000  0.83080000  0.46934000  1
  O  O1195  1  0.51482000  0.83080000  0.53066000  1
  O  O1196  1  0.55279000  0.34822000  0.34767000  1
  O  O1197  1  0.55279000  0.34822000  0.65233000  1
  O  O1198  1  0.58455000  0.31181000  0.31090000  1
  O  O1199  1  0.58455000  0.31181000  0.68910000  1
  O  O1200  1  0.58745000  0.30082000  0.39123000  1
  O  O1201  1  0.58745000  0.30082000  0.60877000  1
  O  O1202  1  0.58813000  0.74648000  0.46984000  1
  O  O1203  1  0.58813000  0.74648000  0.53016000  1
  O  O1204  1  0.59999000  0.62540000  0.34690000  1
  O  O1205  1  0.59999000  0.62540000  0.65310000  1
  O  O1206  1  0.60223000  0.81779000  0.47052000  1
  O  O1207  1  0.60223000  0.81779000  0.52948000  1
  O  O1208  1  0.61060000  0.25852000  0.35477000  1
  O  O1209  1  0.61060000  0.25852000  0.64523000  1
  O  O1210  1  0.62540000  0.40001000  0.34690000  1
  O  O1211  1  0.62540000  0.40001000  0.65310000  1
  O  O1212  1  0.64222000  0.65959000  0.31462000  1
  O  O1213  1  0.64222000  0.65959000  0.68538000  1
  O  O1214  1  0.64331000  0.76096000  0.19809000  1
  O  O1215  1  0.64331000  0.76096000  0.80191000  1
  O  O1216  1  0.64730000  0.65906000  0.39155000  1
  O  O1217  1  0.64730000  0.65906000  0.60845000  1
  O  O1218  1  0.65178000  0.55279000  0.34767000  1
  O  O1219  1  0.65178000  0.55279000  0.65233000  1
  O  O1220  1  0.65906000  0.35270000  0.39155000  1
  O  O1221  1  0.65906000  0.35270000  0.60845000  1
  O  O1222  1  0.65959000  0.35778000  0.31462000  1
  O  O1223  1  0.65959000  0.35778000  0.68538000  1
  O  O1224  1  0.66920000  0.98518000  0.03066000  1
  O  O1225  1  0.66920000  0.98518000  0.96934000  1
  O  O1226  1  0.68221000  0.89777000  0.02948000  1
  O  O1227  1  0.68221000  0.89777000  0.97052000  1
  O  O1228  1  0.68719000  0.30579000  0.35942000  1
  O  O1229  1  0.68719000  0.30579000  0.64058000  1
  O  O1230  1  0.68819000  0.58455000  0.31090000  1
  O  O1231  1  0.68819000  0.58455000  0.68910000  1
  O  O1232  1  0.69421000  0.68719000  0.35942000  1
  O  O1233  1  0.69421000  0.68719000  0.64058000  1
  O  O1234  1  0.69918000  0.58745000  0.39123000  1
  O  O1235  1  0.69918000  0.58745000  0.60877000  1
  O  O1236  1  0.73904000  0.85669000  0.30191000  1
  O  O1237  1  0.73904000  0.85669000  0.69809000  1
  O  O1238  1  0.74099000  0.99867000  0.03070000  1
  O  O1239  1  0.74099000  0.99867000  0.96930000  1
  O  O1240  1  0.74148000  0.61060000  0.35477000  1
  O  O1241  1  0.74148000  0.61060000  0.64523000  1
  O  O1242  1  0.74648000  0.41187000  0.46984000  1
  O  O1243  1  0.74648000  0.41187000  0.53016000  1
  O  O1244  1  0.75352000  0.91187000  0.03016000  1
  O  O1245  1  0.75352000  0.91187000  0.96984000  1
  O  O1246  1  0.75852000  0.11060000  0.14523000  1
  O  O1247  1  0.75852000  0.11060000  0.85477000  1
  O  O1248  1  0.75901000  0.49867000  0.46930000  1
  O  O1249  1  0.75901000  0.49867000  0.53070000  1
  O  O1250  1  0.76096000  0.35669000  0.19809000  1
  O  O1251  1  0.76096000  0.35669000  0.80191000  1
  O  O1252  1  0.80082000  0.08745000  0.10877000  1
  O  O1253  1  0.80082000  0.08745000  0.89123000  1
  O  O1254  1  0.80579000  0.18719000  0.14058000  1
  O  O1255  1  0.80579000  0.18719000  0.85942000  1
  O  O1256  1  0.81181000  0.08455000  0.18910000  1
  O  O1257  1  0.81181000  0.08455000  0.81090000  1
  O  O1258  1  0.81281000  0.80579000  0.14058000  1
  O  O1259  1  0.81281000  0.80579000  0.85942000  1
  O  O1260  1  0.81779000  0.39777000  0.47052000  1
  O  O1261  1  0.81779000  0.39777000  0.52948000  1
  O  O1262  1  0.83080000  0.48518000  0.46934000  1
  O  O1263  1  0.83080000  0.48518000  0.53066000  1
  O  O1264  1  0.84041000  0.85778000  0.18538000  1
  O  O1265  1  0.84041000  0.85778000  0.81462000  1
  O  O1266  1  0.84094000  0.85270000  0.10845000  1
  O  O1267  1  0.84094000  0.85270000  0.89155000  1
  O  O1268  1  0.84822000  0.05279000  0.15233000  1
  O  O1269  1  0.84822000  0.05279000  0.84767000  1
  O  O1270  1  0.85270000  0.15906000  0.10845000  1
  O  O1271  1  0.85270000  0.15906000  0.89155000  1
  O  O1272  1  0.85669000  0.26096000  0.30191000  1
  O  O1273  1  0.85669000  0.26096000  0.69809000  1
  O  O1274  1  0.85778000  0.15959000  0.18538000  1
  O  O1275  1  0.85778000  0.15959000  0.81462000  1
  O  O1276  1  0.87460000  0.90001000  0.15310000  1
  O  O1277  1  0.87460000  0.90001000  0.84690000  1
  O  O1278  1  0.88940000  0.75852000  0.14523000  1
  O  O1279  1  0.88940000  0.75852000  0.85477000  1
  O  O1280  1  0.89777000  0.31779000  0.02948000  1
  O  O1281  1  0.89777000  0.31779000  0.97052000  1
  O  O1282  1  0.90001000  0.12540000  0.15310000  1
  O  O1283  1  0.90001000  0.12540000  0.84690000  1
  O  O1284  1  0.91187000  0.24648000  0.03016000  1
  O  O1285  1  0.91187000  0.24648000  0.96984000  1
  O  O1286  1  0.91255000  0.80082000  0.10877000  1
  O  O1287  1  0.91255000  0.80082000  0.89123000  1
  O  O1288  1  0.91545000  0.81181000  0.18910000  1
  O  O1289  1  0.91545000  0.81181000  0.81090000  1
  O  O1290  1  0.94721000  0.84822000  0.15233000  1
  O  O1291  1  0.94721000  0.84822000  0.84767000  1
  O  O1292  1  0.98518000  0.33080000  0.03066000  1
  O  O1293  1  0.98518000  0.33080000  0.96934000  1
  O  O1294  1  0.99867000  0.25901000  0.03070000  1
  O  O1295  1  0.99867000  0.25901000  0.96930000  1
