# generated using pymatgen
data_ZnH6(CO)8
_symmetry_space_group_name_H-M   'P 1'
_cell_length_a   8.94000000
_cell_length_b   12.48000000
_cell_length_c   14.02000000
_cell_angle_alpha   90.00000000
_cell_angle_beta   90.00000000
_cell_angle_gamma   91.73000000
_symmetry_Int_Tables_number   1
_chemical_formula_structural   ZnH6(CO)8
_chemical_formula_sum   'Zn4 H24 C32 O32'
_cell_volume   1563.51523297
_cell_formula_units_Z   4
loop_
 _symmetry_equiv_pos_site_id
 _symmetry_equiv_pos_as_xyz
  1  'x, y, z'
loop_
 _atom_site_type_symbol
 _atom_site_label
 _atom_site_symmetry_multiplicity
 _atom_site_fract_x
 _atom_site_fract_y
 _atom_site_fract_z
 _atom_site_occupancy
  Zn  Zn0  1  0.25000000  0.75000000  0.16126000  1
  Zn  Zn1  1  0.25000000  0.75000000  0.67367000  1
  Zn  Zn2  1  0.75000000  0.25000000  0.32633000  1
  Zn  Zn3  1  0.75000000  0.25000000  0.83874000  1
  H  H4  1  0.02580000  0.49760000  0.66220000  1
  H  H5  1  0.04890000  0.14430000  0.09390000  1
  H  H6  1  0.05900000  0.03540000  0.15250000  1
  H  H7  1  0.06480000  0.38070000  0.62470000  1
  H  H8  1  0.12220000  0.04680000  0.94440000  1
  H  H9  1  0.15090000  0.49130000  0.46740000  1
  H  H10  1  0.34910000  0.00870000  0.46740000  1
  H  H11  1  0.37780000  0.45320000  0.94440000  1
  H  H12  1  0.43520000  0.11930000  0.62470000  1
  H  H13  1  0.44100000  0.46460000  0.15250000  1
  H  H14  1  0.45110000  0.35570000  0.09390000  1
  H  H15  1  0.47420000  0.00240000  0.66220000  1
  H  H16  1  0.52580000  0.99760000  0.33780000  1
  H  H17  1  0.54890000  0.64430000  0.90610000  1
  H  H18  1  0.55900000  0.53540000  0.84750000  1
  H  H19  1  0.56480000  0.88070000  0.37530000  1
  H  H20  1  0.62220000  0.54680000  0.05560000  1
  H  H21  1  0.65090000  0.99130000  0.53260000  1
  H  H22  1  0.84910000  0.50870000  0.53260000  1
  H  H23  1  0.87780000  0.95320000  0.05560000  1
  H  H24  1  0.93520000  0.61930000  0.37530000  1
  H  H25  1  0.94100000  0.96460000  0.84750000  1
  H  H26  1  0.95110000  0.85570000  0.90610000  1
  H  H27  1  0.97420000  0.50240000  0.33780000  1
  C  C28  1  0.01050000  0.91850000  0.88250000  1
  C  C29  1  0.01540000  0.56640000  0.37160000  1
  C  C30  1  0.05840000  0.53420000  0.47230000  1
  C  C31  1  0.06820000  0.98100000  0.96870000  1
  C  C32  1  0.09580000  0.62950000  0.53280000  1
  C  C33  1  0.12430000  0.87830000  0.81170000  1
  C  C34  1  0.14610000  0.61510000  0.31280000  1
  C  C35  1  0.18120000  0.91680000  0.02670000  1
  C  C36  1  0.31880000  0.58320000  0.02670000  1
  C  C37  1  0.35390000  0.88490000  0.31280000  1
  C  C38  1  0.37570000  0.62170000  0.81170000  1
  C  C39  1  0.40420000  0.87050000  0.53280000  1
  C  C40  1  0.43180000  0.51900000  0.96870000  1
  C  C41  1  0.44160000  0.96580000  0.47230000  1
  C  C42  1  0.48460000  0.93360000  0.37160000  1
  C  C43  1  0.48950000  0.58150000  0.88250000  1
  C  C44  1  0.51050000  0.41850000  0.11750000  1
  C  C45  1  0.51540000  0.06640000  0.62840000  1
  C  C46  1  0.55840000  0.03420000  0.52770000  1
  C  C47  1  0.56820000  0.48100000  0.03130000  1
  C  C48  1  0.59580000  0.12950000  0.46720000  1
  C  C49  1  0.62430000  0.37830000  0.18830000  1
  C  C50  1  0.64610000  0.11510000  0.68720000  1
  C  C51  1  0.68120000  0.41680000  0.97330000  1
  C  C52  1  0.81880000  0.08320000  0.97330000  1
  C  C53  1  0.85390000  0.38490000  0.68720000  1
  C  C54  1  0.87570000  0.12170000  0.18830000  1
  C  C55  1  0.90420000  0.37050000  0.46720000  1
  C  C56  1  0.93180000  0.01900000  0.03130000  1
  C  C57  1  0.94160000  0.46580000  0.52770000  1
  C  C58  1  0.98460000  0.43360000  0.62840000  1
  C  C59  1  0.98950000  0.08150000  0.11750000  1
  O  O60  1  0.01120000  0.70660000  0.53750000  1
  O  O61  1  0.08480000  0.80310000  0.75460000  1
  O  O62  1  0.10040000  0.66470000  0.23080000  1
  O  O63  1  0.12270000  0.83660000  0.07770000  1
  O  O64  1  0.18580000  0.56060000  0.02630000  1
  O  O65  1  0.21550000  0.62800000  0.58540000  1
  O  O66  1  0.22660000  0.89320000  0.33170000  1
  O  O67  1  0.24500000  0.57480000  0.80660000  1
  O  O68  1  0.25500000  0.92520000  0.80660000  1
  O  O69  1  0.27340000  0.60680000  0.33170000  1
  O  O70  1  0.28450000  0.87200000  0.58540000  1
  O  O71  1  0.31420000  0.93940000  0.02630000  1
  O  O72  1  0.37730000  0.66340000  0.07770000  1
  O  O73  1  0.39960000  0.83530000  0.23080000  1
  O  O74  1  0.41520000  0.69690000  0.75460000  1
  O  O75  1  0.48880000  0.79340000  0.53750000  1
  O  O76  1  0.51120000  0.20660000  0.46250000  1
  O  O77  1  0.58480000  0.30310000  0.24540000  1
  O  O78  1  0.60040000  0.16470000  0.76920000  1
  O  O79  1  0.62270000  0.33660000  0.92230000  1
  O  O80  1  0.68580000  0.06060000  0.97370000  1
  O  O81  1  0.71550000  0.12800000  0.41460000  1
  O  O82  1  0.72660000  0.39320000  0.66830000  1
  O  O83  1  0.74500000  0.07480000  0.19340000  1
  O  O84  1  0.75500000  0.42520000  0.19340000  1
  O  O85  1  0.77340000  0.10680000  0.66830000  1
  O  O86  1  0.78450000  0.37200000  0.41460000  1
  O  O87  1  0.81420000  0.43940000  0.97370000  1
  O  O88  1  0.87730000  0.16340000  0.92230000  1
  O  O89  1  0.89960000  0.33530000  0.76920000  1
  O  O90  1  0.91520000  0.19690000  0.24540000  1
  O  O91  1  0.98880000  0.29340000  0.46250000  1
