# generated using pymatgen
data_CoH5(C2O)4
_symmetry_space_group_name_H-M   'P 1'
_cell_length_a   6.12100000
_cell_length_b   10.78100000
_cell_length_c   13.98700000
_cell_angle_alpha   98.90100000
_cell_angle_beta   96.71500000
_cell_angle_gamma   103.86100000
_symmetry_Int_Tables_number   1
_chemical_formula_structural   CoH5(C2O)4
_chemical_formula_sum   'Co4 H20 C32 O16'
_cell_volume   873.85394601
_cell_formula_units_Z   4
loop_
 _symmetry_equiv_pos_site_id
 _symmetry_equiv_pos_as_xyz
  1  'x, y, z'
loop_
 _atom_site_type_symbol
 _atom_site_label
 _atom_site_symmetry_multiplicity
 _atom_site_fract_x
 _atom_site_fract_y
 _atom_site_fract_z
 _atom_site_occupancy
  Co  Co0  1  0.35132000  0.72333000  0.55691000  1
  Co  Co1  1  0.40069000  0.47772000  0.38638000  1
  Co  Co2  1  0.59931000  0.52228000  0.61362000  1
  Co  Co3  1  0.64868000  0.27667000  0.44309000  1
  H  H4  1  0.08950000  0.89760000  0.98460000  1
  H  H5  1  0.12730000  0.81330000  0.82880000  1
  H  H6  1  0.17310000  0.26990000  0.73900000  1
  H  H7  1  0.19400000  0.47300000  0.53000000  1
  H  H8  1  0.24900000  0.08320000  0.28350000  1
  H  H9  1  0.25090000  0.96750000  0.55260000  1
  H  H10  1  0.31100000  0.00650000  0.14970000  1
  H  H11  1  0.34630000  0.30500000  0.06450000  1
  H  H12  1  0.37240000  0.20970000  0.90860000  1
  H  H13  1  0.47390000  0.93320000  0.19880000  1
  H  H14  1  0.52610000  0.06680000  0.80120000  1
  H  H15  1  0.62760000  0.79030000  0.09140000  1
  H  H16  1  0.65370000  0.69500000  0.93550000  1
  H  H17  1  0.68900000  0.99350000  0.85030000  1
  H  H18  1  0.74910000  0.03250000  0.44740000  1
  H  H19  1  0.75100000  0.91680000  0.71650000  1
  H  H20  1  0.80600000  0.52700000  0.47000000  1
  H  H21  1  0.82690000  0.73010000  0.26100000  1
  H  H22  1  0.87270000  0.18670000  0.17120000  1
  H  H23  1  0.91050000  0.10240000  0.01540000  1
  C  C24  1  0.00930000  0.07920000  0.37200000  1
  C  C25  1  0.05270000  0.89950000  0.25910000  1
  C  C26  1  0.09380000  0.22210000  0.41550000  1
  C  C27  1  0.12430000  0.02920000  0.30170000  1
  C  C28  1  0.12710000  0.18180000  0.71110000  1
  C  C29  1  0.17290000  0.00110000  0.59910000  1
  C  C30  1  0.20770000  0.85890000  0.97510000  1
  C  C31  1  0.22850000  0.80710000  0.88170000  1
  C  C32  1  0.23790000  0.13260000  0.64020000  1
  C  C33  1  0.33540000  0.92160000  0.15310000  1
  C  C34  1  0.35650000  0.85470000  0.05400000  1
  C  C35  1  0.39740000  0.74630000  0.86590000  1
  C  C36  1  0.41850000  0.22580000  0.60390000  1
  C  C37  1  0.42140000  0.69350000  0.76300000  1
  C  C38  1  0.45860000  0.26150000  0.05530000  1
  C  C39  1  0.47610000  0.20580000  0.96150000  1
  C  C40  1  0.52390000  0.79420000  0.03850000  1
  C  C41  1  0.54140000  0.73850000  0.94470000  1
  C  C42  1  0.57860000  0.30650000  0.23700000  1
  C  C43  1  0.58150000  0.77420000  0.39610000  1
  C  C44  1  0.60260000  0.25370000  0.13410000  1
  C  C45  1  0.64350000  0.14530000  0.94600000  1
  C  C46  1  0.66460000  0.07840000  0.84690000  1
  C  C47  1  0.76210000  0.86740000  0.35980000  1
  C  C48  1  0.77150000  0.19290000  0.11830000  1
  C  C49  1  0.79230000  0.14110000  0.02490000  1
  C  C50  1  0.82710000  0.99890000  0.40090000  1
  C  C51  1  0.87290000  0.81820000  0.28890000  1
  C  C52  1  0.87570000  0.97080000  0.69830000  1
  C  C53  1  0.90620000  0.77790000  0.58450000  1
  C  C54  1  0.94730000  0.10050000  0.74090000  1
  C  C55  1  0.99070000  0.92080000  0.62800000  1
  O  O56  1  0.02000000  0.72330000  0.53084000  1
  O  O57  1  0.14670000  0.84240000  0.18510000  1
  O  O58  1  0.28240000  0.28160000  0.39653000  1
  O  O59  1  0.31170000  0.53450000  0.52170000  1
  O  O60  1  0.34350000  0.75050000  0.69890000  1
  O  O61  1  0.45430000  0.34300000  0.63960000  1
  O  O62  1  0.48310000  0.82150000  0.46145000  1
  O  O63  1  0.48770000  0.39720000  0.25290000  1
  O  O64  1  0.51230000  0.60280000  0.74710000  1
  O  O65  1  0.51690000  0.17850000  0.53855000  1
  O  O66  1  0.54570000  0.65700000  0.36040000  1
  O  O67  1  0.65650000  0.24950000  0.30110000  1
  O  O68  1  0.68830000  0.46550000  0.47830000  1
  O  O69  1  0.71760000  0.71840000  0.60347000  1
  O  O70  1  0.85330000  0.15760000  0.81490000  1
  O  O71  1  0.98000000  0.27670000  0.46916000  1
