# generated using pymatgen
data_Cu2P3H17C19N2O9
_symmetry_space_group_name_H-M   'P 1'
_cell_length_a   7.91720000
_cell_length_b   17.77680000
_cell_length_c   20.38540000
_cell_angle_alpha   90.00000000
_cell_angle_beta   90.00000000
_cell_angle_gamma   90.00000000
_symmetry_Int_Tables_number   1
_chemical_formula_structural   Cu2P3H17C19N2O9
_chemical_formula_sum   'Cu8 P12 H68 C76 N8 O36'
_cell_volume   2869.09177136
_cell_formula_units_Z   4
loop_
 _symmetry_equiv_pos_site_id
 _symmetry_equiv_pos_as_xyz
  1  'x, y, z'
loop_
 _atom_site_type_symbol
 _atom_site_label
 _atom_site_symmetry_multiplicity
 _atom_site_fract_x
 _atom_site_fract_y
 _atom_site_fract_z
 _atom_site_occupancy
  Cu  Cu0  1  0.83031000  0.89378000  0.54861000  1
  Cu  Cu1  1  0.83031000  0.10622000  0.54861000  1
  Cu  Cu2  1  0.66969000  0.89378000  0.04861000  1
  Cu  Cu3  1  0.66969000  0.10622000  0.04861000  1
  Cu  Cu4  1  0.33031000  0.89378000  0.95139000  1
  Cu  Cu5  1  0.33031000  0.10622000  0.95139000  1
  Cu  Cu6  1  0.16969000  0.89378000  0.45139000  1
  Cu  Cu7  1  0.16969000  0.10622000  0.45139000  1
  P  P8  1  0.88030000  1.00000000  0.42845000  1
  P  P9  1  0.77112000  0.84486000  0.69935000  1
  P  P10  1  0.77112000  0.15514000  0.69935000  1
  P  P11  1  0.72888000  0.84486000  0.19935000  1
  P  P12  1  0.72888000  0.15514000  0.19935000  1
  P  P13  1  0.61970000  0.00000000  0.92845000  1
  P  P14  1  0.38030000  0.00000000  0.07155000  1
  P  P15  1  0.27112000  0.84486000  0.80065000  1
  P  P16  1  0.27112000  0.15514000  0.80065000  1
  P  P17  1  0.22888000  0.84486000  0.30065000  1
  P  P18  1  0.22888000  0.15514000  0.30065000  1
  P  P19  1  0.11970000  1.00000000  0.57155000  1
  H  H20  1  0.97090000  0.81240000  0.21030000  1
  H  H21  1  0.97090000  0.18760000  0.21030000  1
  H  H22  1  0.96610000  0.56970000  0.03970000  1
  H  H23  1  0.96610000  0.43030000  0.03970000  1
  H  H24  1  0.92410000  0.70380000  0.89990000  1
  H  H25  1  0.92410000  0.29620000  0.89990000  1
  H  H26  1  0.89210000  0.56730000  0.90800000  1
  H  H27  1  0.89210000  0.43270000  0.90800000  1
  H  H28  1  0.80900000  1.00000000  0.67400000  1
  H  H29  1  0.80450000  0.73100000  0.60300000  1
  H  H30  1  0.80450000  0.26900000  0.60300000  1
  H  H31  1  0.80390000  0.88560000  0.33420000  1
  H  H32  1  0.80390000  0.11440000  0.33420000  1
  H  H33  1  0.79900000  0.81800000  0.93200000  1
  H  H34  1  0.79900000  0.18200000  0.93200000  1
  H  H35  1  0.76170000  0.61250000  0.56670000  1
  H  H36  1  0.76170000  0.38750000  0.56670000  1
  H  H37  1  0.73830000  0.61250000  0.06670000  1
  H  H38  1  0.73830000  0.38750000  0.06670000  1
  H  H39  1  0.70100000  0.81800000  0.43200000  1
  H  H40  1  0.70100000  0.18200000  0.43200000  1
  H  H41  1  0.69610000  0.88560000  0.83420000  1
  H  H42  1  0.69610000  0.11440000  0.83420000  1
  H  H43  1  0.69550000  0.73100000  0.10300000  1
  H  H44  1  0.69550000  0.26900000  0.10300000  1
  H  H45  1  0.69100000  1.00000000  0.17400000  1
  H  H46  1  0.60790000  0.56730000  0.40800000  1
  H  H47  1  0.60790000  0.43270000  0.40800000  1
  H  H48  1  0.57590000  0.70380000  0.39990000  1
  H  H49  1  0.57590000  0.29620000  0.39990000  1
  H  H50  1  0.53390000  0.56970000  0.53970000  1
  H  H51  1  0.53390000  0.43030000  0.53970000  1
  H  H52  1  0.52910000  0.81240000  0.71030000  1
  H  H53  1  0.52910000  0.18760000  0.71030000  1
  H  H54  1  0.47090000  0.81240000  0.28970000  1
  H  H55  1  0.47090000  0.18760000  0.28970000  1
  H  H56  1  0.46610000  0.56970000  0.46030000  1
  H  H57  1  0.46610000  0.43030000  0.46030000  1
  H  H58  1  0.42410000  0.70380000  0.60010000  1
  H  H59  1  0.42410000  0.29620000  0.60010000  1
  H  H60  1  0.39210000  0.56730000  0.59200000  1
  H  H61  1  0.39210000  0.43270000  0.59200000  1
  H  H62  1  0.30900000  1.00000000  0.82600000  1
  H  H63  1  0.30450000  0.73100000  0.89700000  1
  H  H64  1  0.30450000  0.26900000  0.89700000  1
  H  H65  1  0.30390000  0.88560000  0.16580000  1
  H  H66  1  0.30390000  0.11440000  0.16580000  1
  H  H67  1  0.29900000  0.81800000  0.56800000  1
  H  H68  1  0.29900000  0.18200000  0.56800000  1
  H  H69  1  0.26170000  0.61250000  0.93330000  1
  H  H70  1  0.26170000  0.38750000  0.93330000  1
  H  H71  1  0.23830000  0.61250000  0.43330000  1
  H  H72  1  0.23830000  0.38750000  0.43330000  1
  H  H73  1  0.20100000  0.81800000  0.06800000  1
  H  H74  1  0.20100000  0.18200000  0.06800000  1
  H  H75  1  0.19610000  0.88560000  0.66580000  1
  H  H76  1  0.19610000  0.11440000  0.66580000  1
  H  H77  1  0.19550000  0.73100000  0.39700000  1
  H  H78  1  0.19550000  0.26900000  0.39700000  1
  H  H79  1  0.19100000  1.00000000  0.32600000  1
  H  H80  1  0.10790000  0.56730000  0.09200000  1
  H  H81  1  0.10790000  0.43270000  0.09200000  1
  H  H82  1  0.07590000  0.70380000  0.10010000  1
  H  H83  1  0.07590000  0.29620000  0.10010000  1
  H  H84  1  0.03390000  0.56970000  0.96030000  1
  H  H85  1  0.03390000  0.43030000  0.96030000  1
  H  H86  1  0.02910000  0.81240000  0.78970000  1
  H  H87  1  0.02910000  0.18760000  0.78970000  1
  C  C88  1  0.91400000  0.57020000  0.95430000  1
  C  C89  1  0.91400000  0.42980000  0.95430000  1
  C  C90  1  0.86000000  0.70670000  0.93980000  1
  C  C91  1  0.86000000  0.29330000  0.93980000  1
  C  C92  1  0.84340000  0.64410000  0.97970000  1
  C  C93  1  0.84340000  0.35590000  0.97970000  1
  C  C94  1  0.83900000  0.50000000  0.98790000  1
  C  C95  1  0.81330000  1.00000000  0.34390000  1
  C  C96  1  0.79170000  0.93230000  0.31100000  1
  C  C97  1  0.79170000  0.06770000  0.31100000  1
  C  C98  1  0.78300000  0.72260000  0.55730000  1
  C  C99  1  0.78300000  0.27740000  0.55730000  1
  C  C100  1  0.77950000  0.77600000  0.95740000  1
  C  C101  1  0.77950000  0.22400000  0.95740000  1
  C  C102  1  0.76800000  1.00000000  0.71150000  1
  C  C103  1  0.76500000  0.65460000  0.03910000  1
  C  C104  1  0.76500000  0.34540000  0.03910000  1
  C  C105  1  0.75160000  0.93190000  0.24410000  1
  C  C106  1  0.75160000  0.06810000  0.24410000  1
  C  C107  1  0.74840000  0.93190000  0.74410000  1
  C  C108  1  0.74840000  0.06810000  0.74410000  1
  C  C109  1  0.73500000  0.65460000  0.53910000  1
  C  C110  1  0.73500000  0.34540000  0.53910000  1
  C  C111  1  0.73200000  1.00000000  0.21150000  1
  C  C112  1  0.72050000  0.77600000  0.45740000  1
  C  C113  1  0.72050000  0.22400000  0.45740000  1
  C  C114  1  0.71700000  0.72260000  0.05730000  1
  C  C115  1  0.71700000  0.27740000  0.05730000  1
  C  C116  1  0.70830000  0.93230000  0.81100000  1
  C  C117  1  0.70830000  0.06770000  0.81100000  1
  C  C118  1  0.68670000  1.00000000  0.84390000  1
  C  C119  1  0.66100000  0.50000000  0.48790000  1
  C  C120  1  0.65660000  0.64410000  0.47970000  1
  C  C121  1  0.65660000  0.35590000  0.47970000  1
  C  C122  1  0.64000000  0.70670000  0.43980000  1
  C  C123  1  0.64000000  0.29330000  0.43980000  1
  C  C124  1  0.58600000  0.57020000  0.45430000  1
  C  C125  1  0.58600000  0.42980000  0.45430000  1
  C  C126  1  0.41400000  0.57020000  0.54570000  1
  C  C127  1  0.41400000  0.42980000  0.54570000  1
  C  C128  1  0.36000000  0.70670000  0.56020000  1
  C  C129  1  0.36000000  0.29330000  0.56020000  1
  C  C130  1  0.34340000  0.64410000  0.52030000  1
  C  C131  1  0.34340000  0.35590000  0.52030000  1
  C  C132  1  0.33900000  0.50000000  0.51210000  1
  C  C133  1  0.31330000  0.00000000  0.15610000  1
  C  C134  1  0.29170000  0.93230000  0.18900000  1
  C  C135  1  0.29170000  0.06770000  0.18900000  1
  C  C136  1  0.28300000  0.72260000  0.94270000  1
  C  C137  1  0.28300000  0.27740000  0.94270000  1
  C  C138  1  0.27950000  0.77600000  0.54260000  1
  C  C139  1  0.27950000  0.22400000  0.54260000  1
  C  C140  1  0.26800000  1.00000000  0.78850000  1
  C  C141  1  0.26500000  0.65460000  0.46090000  1
  C  C142  1  0.26500000  0.34540000  0.46090000  1
  C  C143  1  0.25160000  0.93190000  0.25590000  1
  C  C144  1  0.25160000  0.06810000  0.25590000  1
  C  C145  1  0.24840000  0.93190000  0.75590000  1
  C  C146  1  0.24840000  0.06810000  0.75590000  1
  C  C147  1  0.23500000  0.65460000  0.96090000  1
  C  C148  1  0.23500000  0.34540000  0.96090000  1
  C  C149  1  0.23200000  1.00000000  0.28850000  1
  C  C150  1  0.22050000  0.77600000  0.04260000  1
  C  C151  1  0.22050000  0.22400000  0.04260000  1
  C  C152  1  0.21700000  0.72260000  0.44270000  1
  C  C153  1  0.21700000  0.27740000  0.44270000  1
  C  C154  1  0.20830000  0.93230000  0.68900000  1
  C  C155  1  0.20830000  0.06770000  0.68900000  1
  C  C156  1  0.18670000  1.00000000  0.65610000  1
  C  C157  1  0.16100000  0.50000000  0.01210000  1
  C  C158  1  0.15660000  0.64410000  0.02030000  1
  C  C159  1  0.15660000  0.35590000  0.02030000  1
  C  C160  1  0.14000000  0.70670000  0.06020000  1
  C  C161  1  0.14000000  0.29330000  0.06020000  1
  C  C162  1  0.08600000  0.57020000  0.04570000  1
  C  C163  1  0.08600000  0.42980000  0.04570000  1
  N  N164  1  0.78960000  0.78750000  0.51700000  1
  N  N165  1  0.78960000  0.21250000  0.51700000  1
  N  N166  1  0.71040000  0.78750000  0.01700000  1
  N  N167  1  0.71040000  0.21250000  0.01700000  1
  N  N168  1  0.28960000  0.78750000  0.98300000  1
  N  N169  1  0.28960000  0.21250000  0.98300000  1
  N  N170  1  0.21040000  0.78750000  0.48300000  1
  N  N171  1  0.21040000  0.21250000  0.48300000  1
  O  O172  1  0.92440000  1.00000000  0.57007000  1
  O  O173  1  0.91160000  0.82165000  0.17710000  1
  O  O174  1  0.91160000  0.17835000  0.17710000  1
  O  O175  1  0.86920000  0.86097000  0.63714000  1
  O  O176  1  0.86920000  0.13903000  0.63714000  1
  O  O177  1  0.84950000  0.78660000  0.74365000  1
  O  O178  1  0.84950000  0.21340000  0.74365000  1
  O  O179  1  0.81700000  0.92770000  0.45871000  1
  O  O180  1  0.81700000  0.07230000  0.45871000  1
  O  O181  1  0.68300000  0.92770000  0.95871000  1
  O  O182  1  0.68300000  0.07230000  0.95871000  1
  O  O183  1  0.65050000  0.78660000  0.24365000  1
  O  O184  1  0.65050000  0.21340000  0.24365000  1
  O  O185  1  0.63080000  0.86097000  0.13714000  1
  O  O186  1  0.63080000  0.13903000  0.13714000  1
  O  O187  1  0.58840000  0.82165000  0.67710000  1
  O  O188  1  0.58840000  0.17835000  0.67710000  1
  O  O189  1  0.57560000  1.00000000  0.07007000  1
  O  O190  1  0.42440000  1.00000000  0.92993000  1
  O  O191  1  0.41160000  0.82165000  0.32290000  1
  O  O192  1  0.41160000  0.17835000  0.32290000  1
  O  O193  1  0.36920000  0.86097000  0.86286000  1
  O  O194  1  0.36920000  0.13903000  0.86286000  1
  O  O195  1  0.34950000  0.78660000  0.75635000  1
  O  O196  1  0.34950000  0.21340000  0.75635000  1
  O  O197  1  0.31700000  0.92770000  0.04129000  1
  O  O198  1  0.31700000  0.07230000  0.04129000  1
  O  O199  1  0.18300000  0.92770000  0.54129000  1
  O  O200  1  0.18300000  0.07230000  0.54129000  1
  O  O201  1  0.15050000  0.78660000  0.25635000  1
  O  O202  1  0.15050000  0.21340000  0.25635000  1
  O  O203  1  0.13080000  0.86097000  0.36286000  1
  O  O204  1  0.13080000  0.13903000  0.36286000  1
  O  O205  1  0.08840000  0.82165000  0.82290000  1
  O  O206  1  0.08840000  0.17835000  0.82290000  1
  O  O207  1  0.07560000  1.00000000  0.42993000  1
