# generated using pymatgen
data_CuH33C42(NO3)3
_symmetry_space_group_name_H-M   'P 1'
_cell_length_a   20.77060000
_cell_length_b   28.91230000
_cell_length_c   29.72840000
_cell_angle_alpha   101.22400000
_cell_angle_beta   90.00000000
_cell_angle_gamma   90.00000000
_symmetry_Int_Tables_number   1
_chemical_formula_structural   CuH33C42(NO3)3
_chemical_formula_sum   'Cu8 H264 C336 N24 O72'
_cell_volume   17511.21633714
_cell_formula_units_Z   8
loop_
 _symmetry_equiv_pos_site_id
 _symmetry_equiv_pos_as_xyz
  1  'x, y, z'
loop_
 _atom_site_type_symbol
 _atom_site_label
 _atom_site_symmetry_multiplicity
 _atom_site_fract_x
 _atom_site_fract_y
 _atom_site_fract_z
 _atom_site_occupancy
  Cu  Cu0  1  0.45068000  0.76140000  0.92716000  1
  Cu  Cu1  1  0.04932000  0.76140000  0.42716000  1
  Cu  Cu2  1  0.99631000  0.74012000  0.06474000  1
  Cu  Cu3  1  0.50369000  0.74012000  0.56474000  1
  Cu  Cu4  1  0.49631000  0.25988000  0.43526000  1
  Cu  Cu5  1  0.00369000  0.25988000  0.93526000  1
  Cu  Cu6  1  0.95068000  0.23860000  0.57284000  1
  Cu  Cu7  1  0.54932000  0.23860000  0.07284000  1
  H  H8  1  0.92870000  0.99250000  0.20000000  1
  H  H9  1  0.57130000  0.99250000  0.70000000  1
  H  H10  1  0.91080000  0.97610000  0.73550000  1
  H  H11  1  0.58920000  0.97610000  0.23550000  1
  H  H12  1  0.82020000  0.97070000  0.94630000  1
  H  H13  1  0.67980000  0.97070000  0.44630000  1
  H  H14  1  0.80120000  0.96580000  0.26750000  1
  H  H15  1  0.69880000  0.96580000  0.76750000  1
  H  H16  1  0.25850000  0.96180000  0.71610000  1
  H  H17  1  0.24150000  0.96180000  0.21610000  1
  H  H18  1  0.78740000  0.95990000  0.99190000  1
  H  H19  1  0.71260000  0.95990000  0.49190000  1
  H  H20  1  0.86050000  0.95930000  0.23260000  1
  H  H21  1  0.63950000  0.95930000  0.73260000  1
  H  H22  1  0.46120000  0.95790000  0.30270000  1
  H  H23  1  0.03880000  0.95790000  0.80270000  1
  H  H24  1  0.80510000  0.95770000  0.74140000  1
  H  H25  1  0.69490000  0.95770000  0.24140000  1
  H  H26  1  0.83840000  0.94420000  0.05460000  1
  H  H27  1  0.66160000  0.94420000  0.55460000  1
  H  H28  1  0.97180000  0.94170000  0.73150000  1
  H  H29  1  0.52820000  0.94170000  0.23150000  1
  H  H30  1  0.85830000  0.94080000  0.97770000  1
  H  H31  1  0.64170000  0.94080000  0.47770000  1
  H  H32  1  0.89230000  0.93330000  0.16450000  1
  H  H33  1  0.60770000  0.93330000  0.66450000  1
  H  H34  1  0.90760000  0.92910000  0.75630000  1
  H  H35  1  0.59240000  0.92910000  0.25630000  1
  H  H36  1  0.43760000  0.91930000  0.36640000  1
  H  H37  1  0.06240000  0.91930000  0.86640000  1
  H  H38  1  0.99580000  0.91350000  0.53130000  1
  H  H39  1  0.50420000  0.91350000  0.03130000  1
  H  H40  1  0.87270000  0.90340000  0.11540000  1
  H  H41  1  0.62730000  0.90340000  0.61540000  1
  H  H42  1  0.95240000  0.90220000  0.03750000  1
  H  H43  1  0.54760000  0.90220000  0.53750000  1
  H  H44  1  0.76230000  0.89320000  0.09330000  1
  H  H45  1  0.73770000  0.89320000  0.59330000  1
  H  H46  1  0.39580000  0.88640000  0.28950000  1
  H  H47  1  0.10420000  0.88640000  0.78950000  1
  H  H48  1  0.44730000  0.86150000  0.97510000  1
  H  H49  1  0.05270000  0.86150000  0.47510000  1
  H  H50  1  0.39200000  0.85750000  0.68470000  1
  H  H51  1  0.10800000  0.85750000  0.18470000  1
  H  H52  1  0.93870000  0.83800000  0.07160000  1
  H  H53  1  0.56130000  0.83800000  0.57160000  1
  H  H54  1  0.42120000  0.82700000  0.44990000  1
  H  H55  1  0.07880000  0.82700000  0.94990000  1
  H  H56  1  0.33780000  0.82630000  0.31090000  1
  H  H57  1  0.16220000  0.82630000  0.81090000  1
  H  H58  1  0.47970000  0.81660000  0.64780000  1
  H  H59  1  0.02030000  0.81660000  0.14780000  1
  H  H60  1  0.87330000  0.80620000  0.54100000  1
  H  H61  1  0.62670000  0.80620000  0.04100000  1
  H  H62  1  0.38640000  0.80270000  0.27130000  1
  H  H63  1  0.11360000  0.80270000  0.77130000  1
  H  H64  1  0.32240000  0.77530000  0.28090000  1
  H  H65  1  0.17760000  0.77530000  0.78090000  1
  H  H66  1  0.27440000  0.77290000  0.59600000  1
  H  H67  1  0.22560000  0.77290000  0.09600000  1
  H  H68  1  0.43980000  0.76340000  0.48460000  1
  H  H69  1  0.06020000  0.76340000  0.98460000  1
  H  H70  1  0.93450000  0.75750000  0.48540000  1
  H  H71  1  0.56550000  0.75750000  0.98540000  1
  H  H72  1  0.88030000  0.74810000  0.01090000  1
  H  H73  1  0.61970000  0.74810000  0.51090000  1
  H  H74  1  0.36960000  0.74450000  0.00470000  1
  H  H75  1  0.13040000  0.74450000  0.50470000  1
  H  H76  1  0.36520000  0.73310000  0.56310000  1
  H  H77  1  0.13480000  0.73310000  0.06310000  1
  H  H78  1  0.34420000  0.71310000  0.21300000  1
  H  H79  1  0.15580000  0.71310000  0.71300000  1
  H  H80  1  0.46440000  0.71230000  0.83040000  1
  H  H81  1  0.03560000  0.71230000  0.33040000  1
  H  H82  1  0.32670000  0.70950000  0.91990000  1
  H  H83  1  0.17330000  0.70950000  0.41990000  1
  H  H84  1  0.81950000  0.70350000  0.95290000  1
  H  H85  1  0.68050000  0.70350000  0.45290000  1
  H  H86  1  0.40900000  0.68840000  0.22550000  1
  H  H87  1  0.09100000  0.68840000  0.72550000  1
  H  H88  1  0.34860000  0.68430000  0.04480000  1
  H  H89  1  0.15140000  0.68430000  0.54480000  1
  H  H90  1  0.98340000  0.67460000  0.44260000  1
  H  H91  1  0.51660000  0.67460000  0.94260000  1
  H  H92  1  0.36740000  0.66440000  0.18190000  1
  H  H93  1  0.13260000  0.66440000  0.68190000  1
  H  H94  1  0.26380000  0.66020000  0.86590000  1
  H  H95  1  0.23620000  0.66020000  0.36590000  1
  H  H96  1  0.40730000  0.65930000  0.77410000  1
  H  H97  1  0.09270000  0.65930000  0.27410000  1
  H  H98  1  0.48980000  0.64710000  0.50190000  1
  H  H99  1  0.01020000  0.64710000  0.00190000  1
  H  H100  1  0.81370000  0.61980000  0.73870000  1
  H  H101  1  0.68630000  0.61980000  0.23870000  1
  H  H102  1  0.99640000  0.61520000  0.48410000  1
  H  H103  1  0.50360000  0.61520000  0.98410000  1
  H  H104  1  0.82110000  0.61470000  0.40440000  1
  H  H105  1  0.67890000  0.61470000  0.90440000  1
  H  H106  1  0.88830000  0.61330000  0.74940000  1
  H  H107  1  0.61170000  0.61330000  0.24940000  1
  H  H108  1  0.42730000  0.60840000  0.20010000  1
  H  H109  1  0.07270000  0.60840000  0.70010000  1
  H  H110  1  0.93620000  0.60460000  0.38180000  1
  H  H111  1  0.56380000  0.60460000  0.88180000  1
  H  H112  1  0.95640000  0.60100000  0.94100000  1
  H  H113  1  0.54360000  0.60100000  0.44100000  1
  H  H114  1  0.91070000  0.57510000  0.52430000  1
  H  H115  1  0.58930000  0.57510000  0.02430000  1
  H  H116  1  0.48490000  0.57460000  0.12690000  1
  H  H117  1  0.01510000  0.57460000  0.62690000  1
  H  H118  1  0.95470000  0.57110000  0.33420000  1
  H  H119  1  0.54530000  0.57110000  0.83420000  1
  H  H120  1  0.90090000  0.57010000  0.44690000  1
  H  H121  1  0.59910000  0.57010000  0.94690000  1
  H  H122  1  0.84160000  0.56840000  0.73970000  1
  H  H123  1  0.65840000  0.56840000  0.23970000  1
  H  H124  1  0.76380000  0.56190000  0.25150000  1
  H  H125  1  0.73620000  0.56190000  0.75150000  1
  H  H126  1  0.84040000  0.55520000  0.50920000  1
  H  H127  1  0.65960000  0.55520000  0.00920000  1
  H  H128  1  0.87100000  0.54670000  0.55630000  1
  H  H129  1  0.62900000  0.54670000  0.05630000  1
  H  H130  1  0.92630000  0.54500000  0.26860000  1
  H  H131  1  0.57370000  0.54500000  0.76860000  1
  H  H132  1  0.99170000  0.54430000  0.69390000  1
  H  H133  1  0.50830000  0.54430000  0.19390000  1
  H  H134  1  0.87050000  0.54190000  0.23090000  1
  H  H135  1  0.62950000  0.54190000  0.73090000  1
  H  H136  1  0.29530000  0.52430000  0.28270000  1
  H  H137  1  0.20470000  0.52430000  0.78270000  1
  H  H138  1  0.98530000  0.50730000  0.30080000  1
  H  H139  1  0.51470000  0.50730000  0.80080000  1
  H  H140  1  0.48530000  0.49270000  0.19920000  1
  H  H141  1  0.01470000  0.49270000  0.69920000  1
  H  H142  1  0.79530000  0.47570000  0.21730000  1
  H  H143  1  0.70470000  0.47570000  0.71730000  1
  H  H144  1  0.37050000  0.45810000  0.26910000  1
  H  H145  1  0.12950000  0.45810000  0.76910000  1
  H  H146  1  0.49170000  0.45570000  0.80610000  1
  H  H147  1  0.00830000  0.45570000  0.30610000  1
  H  H148  1  0.42630000  0.45500000  0.23140000  1
  H  H149  1  0.07370000  0.45500000  0.73140000  1
  H  H150  1  0.37100000  0.45330000  0.94370000  1
  H  H151  1  0.12900000  0.45330000  0.44370000  1
  H  H152  1  0.34040000  0.44480000  0.99080000  1
  H  H153  1  0.15960000  0.44480000  0.49080000  1
  H  H154  1  0.26380000  0.43810000  0.24850000  1
  H  H155  1  0.23620000  0.43810000  0.74850000  1
  H  H156  1  0.34160000  0.43160000  0.76030000  1
  H  H157  1  0.15840000  0.43160000  0.26030000  1
  H  H158  1  0.40090000  0.42990000  0.05310000  1
  H  H159  1  0.09910000  0.42990000  0.55310000  1
  H  H160  1  0.45470000  0.42890000  0.16580000  1
  H  H161  1  0.04530000  0.42890000  0.66580000  1
  H  H162  1  0.98490000  0.42540000  0.37310000  1
  H  H163  1  0.51510000  0.42540000  0.87310000  1
  H  H164  1  0.41070000  0.42490000  0.97570000  1
  H  H165  1  0.08930000  0.42490000  0.47570000  1
  H  H166  1  0.45640000  0.39900000  0.55900000  1
  H  H167  1  0.04360000  0.39900000  0.05900000  1
  H  H168  1  0.43620000  0.39540000  0.11820000  1
  H  H169  1  0.06380000  0.39540000  0.61820000  1
  H  H170  1  0.92730000  0.39160000  0.29990000  1
  H  H171  1  0.57270000  0.39160000  0.79990000  1
  H  H172  1  0.38830000  0.38670000  0.75060000  1
  H  H173  1  0.11170000  0.38670000  0.25060000  1
  H  H174  1  0.32110000  0.38530000  0.09560000  1
  H  H175  1  0.17890000  0.38530000  0.59560000  1
  H  H176  1  0.49640000  0.38480000  0.01590000  1
  H  H177  1  0.00360000  0.38480000  0.51590000  1
  H  H178  1  0.31370000  0.38020000  0.76130000  1
  H  H179  1  0.18630000  0.38020000  0.26130000  1
  H  H180  1  0.98980000  0.35290000  0.99810000  1
  H  H181  1  0.51020000  0.35290000  0.49810000  1
  H  H182  1  0.90730000  0.34070000  0.72590000  1
  H  H183  1  0.59270000  0.34070000  0.22590000  1
  H  H184  1  0.76380000  0.33980000  0.63410000  1
  H  H185  1  0.73620000  0.33980000  0.13410000  1
  H  H186  1  0.86740000  0.33560000  0.31810000  1
  H  H187  1  0.63260000  0.33560000  0.81810000  1
  H  H188  1  0.48340000  0.32540000  0.05740000  1
  H  H189  1  0.01660000  0.32540000  0.55740000  1
  H  H190  1  0.84860000  0.31570000  0.45520000  1
  H  H191  1  0.65140000  0.31570000  0.95520000  1
  H  H192  1  0.90900000  0.31160000  0.27450000  1
  H  H193  1  0.59100000  0.31160000  0.77450000  1
  H  H194  1  0.31950000  0.29650000  0.54710000  1
  H  H195  1  0.18050000  0.29650000  0.04710000  1
  H  H196  1  0.82670000  0.29050000  0.58010000  1
  H  H197  1  0.67330000  0.29050000  0.08010000  1
  H  H198  1  0.96440000  0.28770000  0.66960000  1
  H  H199  1  0.53560000  0.28770000  0.16960000  1
  H  H200  1  0.84420000  0.28690000  0.28700000  1
  H  H201  1  0.65580000  0.28690000  0.78700000  1
  H  H202  1  0.86520000  0.26690000  0.93690000  1
  H  H203  1  0.63480000  0.26690000  0.43690000  1
  H  H204  1  0.86960000  0.25550000  0.49530000  1
  H  H205  1  0.63040000  0.25550000  0.99530000  1
  H  H206  1  0.38030000  0.25190000  0.48910000  1
  H  H207  1  0.11970000  0.25190000  0.98910000  1
  H  H208  1  0.43450000  0.24250000  0.01460000  1
  H  H209  1  0.06550000  0.24250000  0.51460000  1
  H  H210  1  0.93980000  0.23660000  0.01540000  1
  H  H211  1  0.56020000  0.23660000  0.51540000  1
  H  H212  1  0.77440000  0.22710000  0.90400000  1
  H  H213  1  0.72560000  0.22710000  0.40400000  1
  H  H214  1  0.82240000  0.22470000  0.21910000  1
  H  H215  1  0.67760000  0.22470000  0.71910000  1
  H  H216  1  0.88640000  0.19730000  0.22870000  1
  H  H217  1  0.61360000  0.19730000  0.72870000  1
  H  H218  1  0.37330000  0.19380000  0.95900000  1
  H  H219  1  0.12670000  0.19380000  0.45900000  1
  H  H220  1  0.97970000  0.18340000  0.85220000  1
  H  H221  1  0.52030000  0.18340000  0.35220000  1
  H  H222  1  0.83780000  0.17370000  0.18910000  1
  H  H223  1  0.66220000  0.17370000  0.68910000  1
  H  H224  1  0.92120000  0.17300000  0.05010000  1
  H  H225  1  0.57880000  0.17300000  0.55010000  1
  H  H226  1  0.43870000  0.16200000  0.42840000  1
  H  H227  1  0.06130000  0.16200000  0.92840000  1
  H  H228  1  0.89200000  0.14250000  0.81530000  1
  H  H229  1  0.60800000  0.14250000  0.31530000  1
  H  H230  1  0.94730000  0.13850000  0.52490000  1
  H  H231  1  0.55270000  0.13850000  0.02490000  1
  H  H232  1  0.89580000  0.11360000  0.21050000  1
  H  H233  1  0.60420000  0.11360000  0.71050000  1
  H  H234  1  0.26230000  0.10680000  0.40670000  1
  H  H235  1  0.23770000  0.10680000  0.90670000  1
  H  H236  1  0.45240000  0.09780000  0.46250000  1
  H  H237  1  0.04760000  0.09780000  0.96250000  1
  H  H238  1  0.37270000  0.09660000  0.38460000  1
  H  H239  1  0.12730000  0.09660000  0.88460000  1
  H  H240  1  0.49580000  0.08650000  0.96870000  1
  H  H241  1  0.00420000  0.08650000  0.46870000  1
  H  H242  1  0.93760000  0.08070000  0.13360000  1
  H  H243  1  0.56240000  0.08070000  0.63360000  1
  H  H244  1  0.40760000  0.07090000  0.74370000  1
  H  H245  1  0.09240000  0.07090000  0.24370000  1
  H  H246  1  0.39230000  0.06670000  0.33550000  1
  H  H247  1  0.10770000  0.06670000  0.83550000  1
  H  H248  1  0.35830000  0.05920000  0.52230000  1
  H  H249  1  0.14170000  0.05920000  0.02230000  1
  H  H250  1  0.47180000  0.05830000  0.76850000  1
  H  H251  1  0.02820000  0.05830000  0.26850000  1
  H  H252  1  0.33840000  0.05580000  0.44540000  1
  H  H253  1  0.16160000  0.05580000  0.94540000  1
  H  H254  1  0.30510000  0.04230000  0.75860000  1
  H  H255  1  0.19490000  0.04230000  0.25860000  1
  H  H256  1  0.96120000  0.04210000  0.19730000  1
  H  H257  1  0.53880000  0.04210000  0.69730000  1
  H  H258  1  0.36050000  0.04070000  0.26740000  1
  H  H259  1  0.13950000  0.04070000  0.76740000  1
  H  H260  1  0.28740000  0.04010000  0.50810000  1
  H  H261  1  0.21260000  0.04010000  0.00810000  1
  H  H262  1  0.75850000  0.03820000  0.78390000  1
  H  H263  1  0.74150000  0.03820000  0.28390000  1
  H  H264  1  0.30120000  0.03420000  0.23250000  1
  H  H265  1  0.19880000  0.03420000  0.73250000  1
  H  H266  1  0.32020000  0.02930000  0.55370000  1
  H  H267  1  0.17980000  0.02930000  0.05370000  1
  H  H268  1  0.41080000  0.02390000  0.76450000  1
  H  H269  1  0.08920000  0.02390000  0.26450000  1
  H  H270  1  0.42870000  0.00750000  0.30000000  1
  H  H271  1  0.07130000  0.00750000  0.80000000  1
  C  C272  1  0.37000000  0.99150000  0.45150000  1
  C  C273  1  0.13000000  0.99150000  0.95150000  1
  C  C274  1  0.40440000  0.98390000  0.35920000  1
  C  C275  1  0.09560000  0.98390000  0.85920000  1
  C  C276  1  0.42110000  0.97660000  0.30860000  1
  C  C277  1  0.07890000  0.97660000  0.80860000  1
  C  C278  1  0.87580000  0.97480000  0.11690000  1
  C  C279  1  0.62420000  0.97480000  0.61690000  1
  C  C280  1  0.32050000  0.97370000  0.25800000  1
  C  C281  1  0.17950000  0.97370000  0.75800000  1
  C  C282  1  0.81670000  0.97270000  0.23800000  1
  C  C283  1  0.68330000  0.97270000  0.73800000  1
  C  C284  1  0.85850000  0.97200000  0.07080000  1
  C  C285  1  0.64150000  0.97200000  0.57080000  1
  C  C286  1  0.82810000  0.96680000  0.97790000  1
  C  C287  1  0.67190000  0.96680000  0.47790000  1
  C  C288  1  0.40080000  0.95130000  0.42700000  1
  C  C289  1  0.09920000  0.95130000  0.92700000  1
  C  C290  1  0.36700000  0.95100000  0.27930000  1
  C  C291  1  0.13300000  0.95100000  0.77930000  1
  C  C292  1  0.77260000  0.94810000  0.19970000  1
  C  C293  1  0.72740000  0.94810000  0.69970000  1
  C  C294  1  0.41730000  0.94720000  0.38210000  1
  C  C295  1  0.08270000  0.94720000  0.88210000  1
  C  C296  1  0.27280000  0.94690000  0.23170000  1
  C  C297  1  0.22720000  0.94690000  0.73170000  1
  C  C298  1  0.79150000  0.94460000  0.71110000  1
  C  C299  1  0.70850000  0.94460000  0.21110000  1
  C  C300  1  0.92460000  0.94320000  0.73130000  1
  C  C301  1  0.57540000  0.94320000  0.23130000  1
  C  C302  1  0.86280000  0.93230000  0.13820000  1
  C  C303  1  0.63720000  0.93230000  0.63820000  1
  C  C304  1  0.79300000  0.92920000  0.15500000  1
  C  C305  1  0.70700000  0.92920000  0.65500000  1
  C  C306  1  0.83710000  0.92230000  0.67930000  1
  C  C307  1  0.66290000  0.92230000  0.17930000  1
  C  C308  1  0.47250000  0.91420000  0.47060000  1
  C  C309  1  0.02750000  0.91420000  0.97060000  1
  C  C310  1  0.75120000  0.90650000  0.62350000  1
  C  C311  1  0.74880000  0.90650000  0.12350000  1
  C  C312  1  0.81530000  0.90280000  0.63570000  1
  C  C313  1  0.68470000  0.90280000  0.13570000  1
  C  C314  1  0.36380000  0.90200000  0.27520000  1
  C  C315  1  0.13620000  0.90200000  0.77520000  1
  C  C316  1  0.27160000  0.89910000  0.22850000  1
  C  C317  1  0.22840000  0.89910000  0.72850000  1
  C  C318  1  0.89170000  0.89840000  0.57710000  1
  C  C319  1  0.60830000  0.89840000  0.07710000  1
  C  C320  1  0.98220000  0.88160000  0.52220000  1
  C  C321  1  0.51780000  0.88160000  0.02220000  1
  C  C322  1  0.31520000  0.87580000  0.25090000  1
  C  C323  1  0.18480000  0.87580000  0.75090000  1
  C  C324  1  0.97580000  0.87400000  0.02660000  1
  C  C325  1  0.52420000  0.87400000  0.52660000  1
  C  C326  1  0.48200000  0.87180000  0.49100000  1
  C  C327  1  0.01800000  0.87180000  0.99100000  1
  C  C328  1  0.92810000  0.86520000  0.54190000  1
  C  C329  1  0.57190000  0.86520000  0.04190000  1
  C  C330  1  0.48390000  0.85030000  0.98890000  1
  C  C331  1  0.01610000  0.85030000  0.48890000  1
  C  C332  1  0.26650000  0.84650000  0.66410000  1
  C  C333  1  0.23350000  0.84650000  0.16410000  1
  C  C334  1  0.96740000  0.83570000  0.04640000  1
  C  C335  1  0.53260000  0.83570000  0.54640000  1
  C  C336  1  0.38560000  0.83240000  0.65920000  1
  C  C337  1  0.11440000  0.83240000  0.15920000  1
  C  C338  1  0.45020000  0.82980000  0.47490000  1
  C  C339  1  0.04980000  0.82980000  0.97490000  1
  C  C340  1  0.32410000  0.82010000  0.64320000  1
  C  C341  1  0.17590000  0.82010000  0.14320000  1
  C  C342  1  0.91000000  0.81830000  0.52800000  1
  C  C343  1  0.59000000  0.81830000  0.02800000  1
  C  C344  1  0.43750000  0.80750000  0.63740000  1
  C  C345  1  0.06250000  0.80750000  0.13740000  1
  C  C346  1  0.34110000  0.80630000  0.28030000  1
  C  C347  1  0.15890000  0.80630000  0.78030000  1
  C  C348  1  0.46140000  0.79230000  0.49580000  1
  C  C349  1  0.03860000  0.79230000  0.99580000  1
  C  C350  1  0.94670000  0.78960000  0.49490000  1
  C  C351  1  0.55330000  0.78960000  0.99490000  1
  C  C352  1  0.31610000  0.78250000  0.60720000  1
  C  C353  1  0.18390000  0.78250000  0.10720000  1
  C  C354  1  0.37060000  0.75900000  0.58780000  1
  C  C355  1  0.12940000  0.75900000  0.08780000  1
  C  C356  1  0.89500000  0.71750000  0.99710000  1
  C  C357  1  0.60500000  0.71750000  0.49710000  1
  C  C358  1  0.39620000  0.71730000  0.99970000  1
  C  C359  1  0.10380000  0.71730000  0.49970000  1
  C  C360  1  0.42310000  0.70150000  0.83760000  1
  C  C361  1  0.07690000  0.70150000  0.33760000  1
  C  C362  1  0.34260000  0.70020000  0.88950000  1
  C  C363  1  0.15740000  0.70020000  0.38950000  1
  C  C364  1  0.85870000  0.69130000  0.96230000  1
  C  C365  1  0.64130000  0.69130000  0.46230000  1
  C  C366  1  0.36530000  0.68280000  0.21320000  1
  C  C367  1  0.13470000  0.68280000  0.71320000  1
  C  C368  1  0.38450000  0.68220000  0.02470000  1
  C  C369  1  0.11550000  0.68220000  0.52470000  1
  C  C370  1  0.48240000  0.67670000  0.96410000  1
  C  C371  1  0.01760000  0.67670000  0.46410000  1
  C  C372  1  0.30500000  0.67040000  0.85790000  1
  C  C373  1  0.19500000  0.67040000  0.35790000  1
  C  C374  1  0.38930000  0.67020000  0.80360000  1
  C  C375  1  0.11070000  0.67020000  0.30360000  1
  C  C376  1  0.97130000  0.65850000  0.99130000  1
  C  C377  1  0.52870000  0.65850000  0.49130000  1
  C  C378  1  0.32970000  0.65590000  0.81450000  1
  C  C379  1  0.17030000  0.65590000  0.31450000  1
  C  C380  1  0.88040000  0.64710000  0.94130000  1
  C  C381  1  0.61960000  0.64710000  0.44130000  1
  C  C382  1  0.42560000  0.64470000  0.02000000  1
  C  C383  1  0.07440000  0.64470000  0.52000000  1
  C  C384  1  0.47510000  0.64140000  0.98870000  1
  C  C385  1  0.02490000  0.64140000  0.48870000  1
  C  C386  1  0.93930000  0.63060000  0.95570000  1
  C  C387  1  0.56070000  0.63060000  0.45570000  1
  C  C388  1  0.29120000  0.62510000  0.77820000  1
  C  C389  1  0.20880000  0.62510000  0.27820000  1
  C  C390  1  0.84310000  0.61520000  0.90490000  1
  C  C391  1  0.65690000  0.61520000  0.40490000  1
  C  C392  1  0.34740000  0.61260000  0.24000000  1
  C  C393  1  0.15260000  0.61260000  0.74000000  1
  C  C394  1  0.75070000  0.61080000  0.85840000  1
  C  C395  1  0.74930000  0.61080000  0.35840000  1
  C  C396  1  0.41300000  0.60790000  0.04710000  1
  C  C397  1  0.08700000  0.60790000  0.54710000  1
  C  C398  1  0.81000000  0.60370000  0.37310000  1
  C  C399  1  0.69000000  0.60370000  0.87310000  1
  C  C400  1  0.84460000  0.60200000  0.75350000  1
  C  C401  1  0.65540000  0.60200000  0.25350000  1
  C  C402  1  0.76950000  0.59680000  0.81310000  1
  C  C403  1  0.73050000  0.59680000  0.31310000  1
  C  C404  1  0.40020000  0.59090000  0.21640000  1
  C  C405  1  0.09980000  0.59090000  0.71640000  1
  C  C406  1  0.31060000  0.58730000  0.26480000  1
  C  C407  1  0.18940000  0.58730000  0.76480000  1
  C  C408  1  0.85600000  0.58040000  0.34250000  1
  C  C409  1  0.64400000  0.58040000  0.84250000  1
  C  C410  1  0.92440000  0.57510000  0.36040000  1
  C  C411  1  0.57560000  0.57510000  0.86040000  1
  C  C412  1  0.77540000  0.57250000  0.28270000  1
  C  C413  1  0.72460000  0.57250000  0.78270000  1
  C  C414  1  0.83710000  0.56360000  0.29700000  1
  C  C415  1  0.66290000  0.56360000  0.79700000  1
  C  C416  1  0.88040000  0.54910000  0.52450000  1
  C  C417  1  0.61960000  0.54910000  0.02450000  1
  C  C418  1  0.46670000  0.54540000  0.11230000  1
  C  C419  1  0.03330000  0.54540000  0.61230000  1
  C  C420  1  0.41430000  0.54300000  0.21600000  1
  C  C421  1  0.08570000  0.54300000  0.71600000  1
  C  C422  1  0.32210000  0.54090000  0.26530000  1
  C  C423  1  0.17790000  0.54090000  0.76530000  1
  C  C424  1  0.91700000  0.54040000  0.43170000  1
  C  C425  1  0.58300000  0.54040000  0.93170000  1
  C  C426  1  0.44940000  0.53900000  0.06780000  1
  C  C427  1  0.05060000  0.53900000  0.56780000  1
  C  C428  1  0.88110000  0.53530000  0.26150000  1
  C  C429  1  0.61890000  0.53530000  0.76150000  1
  C  C430  1  0.93320000  0.53390000  0.38490000  1
  C  C431  1  0.56680000  0.53390000  0.88490000  1
  C  C432  1  0.47200000  0.52160000  0.18850000  1
  C  C433  1  0.02800000  0.52160000  0.68850000  1
  C  C434  1  0.37470000  0.51760000  0.23970000  1
  C  C435  1  0.12530000  0.51760000  0.73970000  1
  C  C436  1  0.45810000  0.50950000  0.13770000  1
  C  C437  1  0.04190000  0.50950000  0.63770000  1
  C  C438  1  0.92410000  0.50440000  0.45630000  1
  C  C439  1  0.57590000  0.50440000  0.95630000  1
  C  C440  1  0.42410000  0.49560000  0.04370000  1
  C  C441  1  0.07590000  0.49560000  0.54370000  1
  C  C442  1  0.95810000  0.49050000  0.36230000  1
  C  C443  1  0.54190000  0.49050000  0.86230000  1
  C  C444  1  0.87470000  0.48240000  0.26030000  1
  C  C445  1  0.62530000  0.48240000  0.76030000  1
  C  C446  1  0.97200000  0.47840000  0.31150000  1
  C  C447  1  0.52800000  0.47840000  0.81150000  1
  C  C448  1  0.43320000  0.46610000  0.11510000  1
  C  C449  1  0.06680000  0.46610000  0.61510000  1
  C  C450  1  0.38110000  0.46470000  0.23850000  1
  C  C451  1  0.11890000  0.46470000  0.73850000  1
  C  C452  1  0.94940000  0.46100000  0.43220000  1
  C  C453  1  0.55060000  0.46100000  0.93220000  1
  C  C454  1  0.41700000  0.45960000  0.06830000  1
  C  C455  1  0.08300000  0.45960000  0.56830000  1
  C  C456  1  0.82210000  0.45910000  0.23470000  1
  C  C457  1  0.67790000  0.45910000  0.73470000  1
  C  C458  1  0.91430000  0.45700000  0.28400000  1
  C  C459  1  0.58570000  0.45700000  0.78400000  1
  C  C460  1  0.96670000  0.45460000  0.38770000  1
  C  C461  1  0.53330000  0.45460000  0.88770000  1
  C  C462  1  0.38040000  0.45090000  0.97550000  1
  C  C463  1  0.11960000  0.45090000  0.47550000  1
  C  C464  1  0.33710000  0.43640000  0.20300000  1
  C  C465  1  0.16290000  0.43640000  0.70300000  1
  C  C466  1  0.27540000  0.42750000  0.21730000  1
  C  C467  1  0.22460000  0.42750000  0.71730000  1
  C  C468  1  0.42440000  0.42490000  0.13960000  1
  C  C469  1  0.07560000  0.42490000  0.63960000  1
  C  C470  1  0.35600000  0.41960000  0.15750000  1
  C  C471  1  0.14400000  0.41960000  0.65750000  1
  C  C472  1  0.81060000  0.41270000  0.23520000  1
  C  C473  1  0.68940000  0.41270000  0.73520000  1
  C  C474  1  0.90020000  0.40910000  0.28360000  1
  C  C475  1  0.59980000  0.40910000  0.78360000  1
  C  C476  1  0.26950000  0.40320000  0.68690000  1
  C  C477  1  0.23050000  0.40320000  0.18690000  1
  C  C478  1  0.34460000  0.39800000  0.74650000  1
  C  C479  1  0.15540000  0.39800000  0.24650000  1
  C  C480  1  0.31000000  0.39630000  0.12690000  1
  C  C481  1  0.19000000  0.39630000  0.62690000  1
  C  C482  1  0.91300000  0.39210000  0.45290000  1
  C  C483  1  0.58700000  0.39210000  0.95290000  1
  C  C484  1  0.25070000  0.38920000  0.64160000  1
  C  C485  1  0.24930000  0.38920000  0.14160000  1
  C  C486  1  0.84740000  0.38740000  0.26000000  1
  C  C487  1  0.65260000  0.38740000  0.76000000  1
  C  C488  1  0.34310000  0.38480000  0.59510000  1
  C  C489  1  0.15690000  0.38480000  0.09510000  1
  C  C490  1  0.79120000  0.37490000  0.72180000  1
  C  C491  1  0.70880000  0.37490000  0.22180000  1
  C  C492  1  0.43930000  0.36940000  0.54430000  1
  C  C493  1  0.06070000  0.36940000  0.04430000  1
  C  C494  1  0.97510000  0.35860000  0.51130000  1
  C  C495  1  0.52490000  0.35860000  0.01130000  1
  C  C496  1  0.92560000  0.35530000  0.48000000  1
  C  C497  1  0.57440000  0.35530000  0.98000000  1
  C  C498  1  0.38040000  0.35290000  0.55870000  1
  C  C499  1  0.11960000  0.35290000  0.05870000  1
  C  C500  1  0.82970000  0.34410000  0.68550000  1
  C  C501  1  0.67030000  0.34410000  0.18550000  1
  C  C502  1  0.47130000  0.34150000  0.50870000  1
  C  C503  1  0.02870000  0.34150000  0.00870000  1
  C  C504  1  0.88930000  0.32980000  0.69640000  1
  C  C505  1  0.61070000  0.32980000  0.19640000  1
  C  C506  1  0.80500000  0.32960000  0.64210000  1
  C  C507  1  0.69500000  0.32960000  0.14210000  1
  C  C508  1  0.98240000  0.32330000  0.53590000  1
  C  C509  1  0.51760000  0.32330000  0.03590000  1
  C  C510  1  0.88450000  0.31780000  0.47530000  1
  C  C511  1  0.61550000  0.31780000  0.97530000  1
  C  C512  1  0.86530000  0.31720000  0.28680000  1
  C  C513  1  0.63470000  0.31720000  0.78680000  1
  C  C514  1  0.35870000  0.30870000  0.53770000  1
  C  C515  1  0.14130000  0.30870000  0.03770000  1
  C  C516  1  0.84260000  0.29980000  0.61050000  1
  C  C517  1  0.65740000  0.29980000  0.11050000  1
  C  C518  1  0.92310000  0.29850000  0.66240000  1
  C  C519  1  0.57690000  0.29850000  0.16240000  1
  C  C520  1  0.89620000  0.28270000  0.50030000  1
  C  C521  1  0.60380000  0.28270000  0.00030000  1
  C  C522  1  0.39500000  0.28250000  0.50290000  1
  C  C523  1  0.10500000  0.28250000  0.00290000  1
  C  C524  1  0.87060000  0.24100000  0.91220000  1
  C  C525  1  0.62940000  0.24100000  0.41220000  1
  C  C526  1  0.81610000  0.21750000  0.89280000  1
  C  C527  1  0.68390000  0.21750000  0.39280000  1
  C  C528  1  0.44670000  0.21040000  0.00510000  1
  C  C529  1  0.05330000  0.21040000  0.50510000  1
  C  C530  1  0.96140000  0.20770000  0.00420000  1
  C  C531  1  0.53860000  0.20770000  0.50420000  1
  C  C532  1  0.84110000  0.19370000  0.21970000  1
  C  C533  1  0.65890000  0.19370000  0.71970000  1
  C  C534  1  0.93750000  0.19250000  0.86260000  1
  C  C535  1  0.56250000  0.19250000  0.36260000  1
  C  C536  1  0.41000000  0.18170000  0.97200000  1
  C  C537  1  0.09000000  0.18170000  0.47200000  1
  C  C538  1  0.82410000  0.17990000  0.85680000  1
  C  C539  1  0.67590000  0.17990000  0.35680000  1
  C  C540  1  0.95020000  0.17020000  0.02510000  1
  C  C541  1  0.54980000  0.17020000  0.52510000  1
  C  C542  1  0.88560000  0.16760000  0.84080000  1
  C  C543  1  0.61440000  0.16760000  0.34080000  1
  C  C544  1  0.46740000  0.16430000  0.45360000  1
  C  C545  1  0.03260000  0.16430000  0.95360000  1
  C  C546  1  0.76650000  0.15350000  0.83590000  1
  C  C547  1  0.73350000  0.15350000  0.33590000  1
  C  C548  1  0.98390000  0.14970000  0.51110000  1
  C  C549  1  0.51610000  0.14970000  0.01110000  1
  C  C550  1  0.42810000  0.13480000  0.95810000  1
  C  C551  1  0.07190000  0.13480000  0.45810000  1
  C  C552  1  0.98200000  0.12820000  0.00900000  1
  C  C553  1  0.51800000  0.12820000  0.50900000  1
  C  C554  1  0.47580000  0.12600000  0.47340000  1
  C  C555  1  0.02420000  0.12600000  0.97340000  1
  C  C556  1  0.81520000  0.12420000  0.24910000  1
  C  C557  1  0.68480000  0.12420000  0.74910000  1
  C  C558  1  0.48220000  0.11840000  0.97780000  1
  C  C559  1  0.01780000  0.11840000  0.47780000  1
  C  C560  1  0.39170000  0.10160000  0.92290000  1
  C  C561  1  0.10830000  0.10160000  0.42290000  1
  C  C562  1  0.77160000  0.10090000  0.27150000  1
  C  C563  1  0.72840000  0.10090000  0.77150000  1
  C  C564  1  0.86380000  0.09800000  0.22480000  1
  C  C565  1  0.63620000  0.09800000  0.72480000  1
  C  C566  1  0.31530000  0.09720000  0.86430000  1
  C  C567  1  0.18470000  0.09720000  0.36430000  1
  C  C568  1  0.25120000  0.09350000  0.87650000  1
  C  C569  1  0.24880000  0.09350000  0.37650000  1
  C  C570  1  0.97250000  0.08580000  0.02940000  1
  C  C571  1  0.52750000  0.08580000  0.52940000  1
  C  C572  1  0.33710000  0.07770000  0.82070000  1
  C  C573  1  0.16290000  0.07770000  0.32070000  1
  C  C574  1  0.29300000  0.07080000  0.34500000  1
  C  C575  1  0.20700000  0.07080000  0.84500000  1
  C  C576  1  0.36280000  0.06770000  0.36180000  1
  C  C577  1  0.13720000  0.06770000  0.86180000  1
  C  C578  1  0.42460000  0.05680000  0.76870000  1
  C  C579  1  0.07540000  0.05680000  0.26870000  1
  C  C580  1  0.29150000  0.05540000  0.78890000  1
  C  C581  1  0.20850000  0.05540000  0.28890000  1
  C  C582  1  0.77280000  0.05310000  0.26830000  1
  C  C583  1  0.72720000  0.05310000  0.76830000  1
  C  C584  1  0.91730000  0.05280000  0.11790000  1
  C  C585  1  0.58270000  0.05280000  0.61790000  1
  C  C586  1  0.27260000  0.05190000  0.30030000  1
  C  C587  1  0.22740000  0.05190000  0.80030000  1
  C  C588  1  0.86700000  0.04900000  0.22070000  1
  C  C589  1  0.63300000  0.04900000  0.72070000  1
  C  C590  1  0.90080000  0.04870000  0.07300000  1
  C  C591  1  0.59920000  0.04870000  0.57300000  1
  C  C592  1  0.32810000  0.03320000  0.52210000  1
  C  C593  1  0.17190000  0.03320000  0.02210000  1
  C  C594  1  0.35850000  0.02800000  0.42920000  1
  C  C595  1  0.14150000  0.02800000  0.92920000  1
  C  C596  1  0.31670000  0.02730000  0.26200000  1
  C  C597  1  0.18330000  0.02730000  0.76200000  1
  C  C598  1  0.82050000  0.02630000  0.24200000  1
  C  C599  1  0.67950000  0.02630000  0.74200000  1
  C  C600  1  0.37580000  0.02520000  0.38310000  1
  C  C601  1  0.12420000  0.02520000  0.88310000  1
  C  C602  1  0.92110000  0.02340000  0.19140000  1
  C  C603  1  0.57890000  0.02340000  0.69140000  1
  C  C604  1  0.90440000  0.01610000  0.14080000  1
  C  C605  1  0.59560000  0.01610000  0.64080000  1
  C  C606  1  0.87000000  0.00850000  0.04850000  1
  C  C607  1  0.63000000  0.00850000  0.54850000  1
  N  N608  1  0.99900000  0.80539000  0.47569000  1
  N  N609  1  0.50100000  0.80539000  0.97569000  1
  N  N610  1  0.99840000  0.79490000  0.03160000  1
  N  N611  1  0.50160000  0.79490000  0.53160000  1
  N  N612  1  0.43070000  0.77110000  0.60240000  1
  N  N613  1  0.06930000  0.77110000  0.10240000  1
  N  N614  1  0.39950000  0.71670000  0.87953000  1
  N  N615  1  0.10050000  0.71670000  0.37953000  1
  N  N616  1  0.44300000  0.71390000  0.96930000  1
  N  N617  1  0.05700000  0.71390000  0.46930000  1
  N  N618  1  0.94960000  0.70170000  0.01220000  1
  N  N619  1  0.55040000  0.70170000  0.51220000  1
  N  N620  1  0.44960000  0.29830000  0.48780000  1
  N  N621  1  0.05040000  0.29830000  0.98780000  1
  N  N622  1  0.94300000  0.28610000  0.53070000  1
  N  N623  1  0.55700000  0.28610000  0.03070000  1
  N  N624  1  0.89950000  0.28330000  0.62047000  1
  N  N625  1  0.60050000  0.28330000  0.12047000  1
  N  N626  1  0.93070000  0.22890000  0.89760000  1
  N  N627  1  0.56930000  0.22890000  0.39760000  1
  N  N628  1  0.49840000  0.20510000  0.46840000  1
  N  N629  1  0.00160000  0.20510000  0.96840000  1
  N  N630  1  0.49900000  0.19461000  0.02431000  1
  N  N631  1  0.00100000  0.19461000  0.52431000  1
  O  O632  1  0.35500000  0.99029000  0.49601000  1
  O  O633  1  0.14500000  0.99029000  0.99601000  1
  O  O634  1  0.98960000  0.94560000  0.97230000  1
  O  O635  1  0.51040000  0.94560000  0.47230000  1
  O  O636  1  0.89320000  0.94079000  0.58110000  1
  O  O637  1  0.60680000  0.94079000  0.08110000  1
  O  O638  1  0.90060000  0.91740000  0.68800000  1
  O  O639  1  0.59940000  0.91740000  0.18800000  1
  O  O640  1  0.41450000  0.91304000  0.44940000  1
  O  O641  1  0.08550000  0.91304000  0.94940000  1
  O  O642  1  0.85700000  0.87580000  0.60400000  1
  O  O643  1  0.64300000  0.87580000  0.10400000  1
  O  O644  1  0.28000000  0.87315000  0.70475000  1
  O  O645  1  0.22000000  0.87315000  0.20475000  1
  O  O646  1  0.28530000  0.84480000  0.14580000  1
  O  O647  1  0.21470000  0.84480000  0.64580000  1
  O  O648  1  0.30630000  0.82810000  0.24770000  1
  O  O649  1  0.19370000  0.82810000  0.74770000  1
  O  O650  1  0.33010000  0.65790000  0.24070000  1
  O  O651  1  0.16990000  0.65790000  0.74070000  1
  O  O652  1  0.79350000  0.63808000  0.89049000  1
  O  O653  1  0.70650000  0.63808000  0.39049000  1
  O  O654  1  0.30710000  0.61420000  0.73810000  1
  O  O655  1  0.19290000  0.61420000  0.23810000  1
  O  O656  1  0.26390000  0.61130000  0.29500000  1
  O  O657  1  0.23610000  0.61130000  0.79500000  1
  O  O658  1  0.83020000  0.60870000  0.80200000  1
  O  O659  1  0.66980000  0.60870000  0.30200000  1
  O  O660  1  0.36610000  0.60620000  0.06940000  1
  O  O661  1  0.13390000  0.60620000  0.56940000  1
  O  O662  1  0.45860000  0.57531000  0.04287000  1
  O  O663  1  0.04140000  0.57531000  0.54287000  1
  O  O664  1  0.85580000  0.57450000  0.89120000  1
  O  O665  1  0.64420000  0.57450000  0.39120000  1
  O  O666  1  0.90820000  0.50614000  0.50098000  1
  O  O667  1  0.59180000  0.50614000  0.00098000  1
  O  O668  1  0.40820000  0.49386000  0.99902000  1
  O  O669  1  0.09180000  0.49386000  0.49902000  1
  O  O670  1  0.35580000  0.42550000  0.60880000  1
  O  O671  1  0.14420000  0.42550000  0.10880000  1
  O  O672  1  0.95860000  0.42469000  0.45713000  1
  O  O673  1  0.54140000  0.42469000  0.95713000  1
  O  O674  1  0.86610000  0.39380000  0.43060000  1
  O  O675  1  0.63390000  0.39380000  0.93060000  1
  O  O676  1  0.33020000  0.39130000  0.69800000  1
  O  O677  1  0.16980000  0.39130000  0.19800000  1
  O  O678  1  0.76390000  0.38870000  0.20500000  1
  O  O679  1  0.73610000  0.38870000  0.70500000  1
  O  O680  1  0.80710000  0.38580000  0.76190000  1
  O  O681  1  0.69290000  0.38580000  0.26190000  1
  O  O682  1  0.29350000  0.36192000  0.60951000  1
  O  O683  1  0.20650000  0.36192000  0.10951000  1
  O  O684  1  0.83010000  0.34210000  0.25930000  1
  O  O685  1  0.66990000  0.34210000  0.75930000  1
  O  O686  1  0.80630000  0.17190000  0.25230000  1
  O  O687  1  0.69370000  0.17190000  0.75230000  1
  O  O688  1  0.78530000  0.15520000  0.35420000  1
  O  O689  1  0.71470000  0.15520000  0.85420000  1
  O  O690  1  0.78000000  0.12685000  0.79525000  1
  O  O691  1  0.72000000  0.12685000  0.29525000  1
  O  O692  1  0.35700000  0.12420000  0.89600000  1
  O  O693  1  0.14300000  0.12420000  0.39600000  1
  O  O694  1  0.91450000  0.08696000  0.05060000  1
  O  O695  1  0.58550000  0.08696000  0.55060000  1
  O  O696  1  0.40060000  0.08260000  0.81200000  1
  O  O697  1  0.09940000  0.08260000  0.31200000  1
  O  O698  1  0.39320000  0.05921000  0.91890000  1
  O  O699  1  0.10680000  0.05921000  0.41890000  1
  O  O700  1  0.48960000  0.05440000  0.52770000  1
  O  O701  1  0.01040000  0.05440000  0.02770000  1
  O  O702  1  0.85500000  0.00971000  0.00399000  1
  O  O703  1  0.64500000  0.00971000  0.50399000  1
