# generated using pymatgen
data_ZnH14C18(NO2)2
_symmetry_space_group_name_H-M   'P 1'
_cell_length_a   12.47100000
_cell_length_b   13.30600000
_cell_length_c   15.71100000
_cell_angle_alpha   90.00000000
_cell_angle_beta   90.00000000
_cell_angle_gamma   90.00000000
_symmetry_Int_Tables_number   1
_chemical_formula_structural   ZnH14C18(NO2)2
_chemical_formula_sum   'Zn4 H56 C72 N8 O16'
_cell_volume   2607.06960859
_cell_formula_units_Z   4
loop_
 _symmetry_equiv_pos_site_id
 _symmetry_equiv_pos_as_xyz
  1  'x, y, z'
loop_
 _atom_site_type_symbol
 _atom_site_label
 _atom_site_symmetry_multiplicity
 _atom_site_fract_x
 _atom_site_fract_y
 _atom_site_fract_z
 _atom_site_occupancy
  Zn  Zn0  1  0.14991000  0.75000000  0.75000000  1
  Zn  Zn1  1  0.35009000  0.25000000  0.75000000  1
  Zn  Zn2  1  0.64991000  0.75000000  0.25000000  1
  Zn  Zn3  1  0.85009000  0.25000000  0.25000000  1
  H  H4  1  0.01780000  0.05810000  0.06860000  1
  H  H5  1  0.01780000  0.44190000  0.43140000  1
  H  H6  1  0.06450000  0.50430000  0.69880000  1
  H  H7  1  0.06450000  0.99570000  0.80120000  1
  H  H8  1  0.06740000  0.14460000  0.47280000  1
  H  H9  1  0.06740000  0.35540000  0.02720000  1
  H  H10  1  0.08100000  0.00030000  0.56490000  1
  H  H11  1  0.08100000  0.49970000  0.93510000  1
  H  H12  1  0.14450000  0.14310000  0.01160000  1
  H  H13  1  0.14450000  0.35690000  0.48840000  1
  H  H14  1  0.18200000  0.08880000  0.72900000  1
  H  H15  1  0.18200000  0.41120000  0.77100000  1
  H  H16  1  0.23260000  0.73460000  0.56510000  1
  H  H17  1  0.23260000  0.76540000  0.93490000  1
  H  H18  1  0.26740000  0.23460000  0.93490000  1
  H  H19  1  0.26740000  0.26540000  0.56510000  1
  H  H20  1  0.31800000  0.58880000  0.77100000  1
  H  H21  1  0.31800000  0.91120000  0.72900000  1
  H  H22  1  0.35550000  0.64310000  0.48840000  1
  H  H23  1  0.35550000  0.85690000  0.01160000  1
  H  H24  1  0.41900000  0.50030000  0.93510000  1
  H  H25  1  0.41900000  0.99970000  0.56490000  1
  H  H26  1  0.43260000  0.64460000  0.02720000  1
  H  H27  1  0.43260000  0.85540000  0.47280000  1
  H  H28  1  0.43550000  0.00430000  0.80120000  1
  H  H29  1  0.43550000  0.49570000  0.69880000  1
  H  H30  1  0.48220000  0.55810000  0.43140000  1
  H  H31  1  0.48220000  0.94190000  0.06860000  1
  H  H32  1  0.51780000  0.05810000  0.93140000  1
  H  H33  1  0.51780000  0.44190000  0.56860000  1
  H  H34  1  0.56450000  0.50430000  0.30120000  1
  H  H35  1  0.56450000  0.99570000  0.19880000  1
  H  H36  1  0.56740000  0.14460000  0.52720000  1
  H  H37  1  0.56740000  0.35540000  0.97280000  1
  H  H38  1  0.58100000  0.00030000  0.43510000  1
  H  H39  1  0.58100000  0.49970000  0.06490000  1
  H  H40  1  0.64450000  0.14310000  0.98840000  1
  H  H41  1  0.64450000  0.35690000  0.51160000  1
  H  H42  1  0.68200000  0.08880000  0.27100000  1
  H  H43  1  0.68200000  0.41120000  0.22900000  1
  H  H44  1  0.73260000  0.73460000  0.43490000  1
  H  H45  1  0.73260000  0.76540000  0.06510000  1
  H  H46  1  0.76740000  0.23460000  0.06510000  1
  H  H47  1  0.76740000  0.26540000  0.43490000  1
  H  H48  1  0.81800000  0.58880000  0.22900000  1
  H  H49  1  0.81800000  0.91120000  0.27100000  1
  H  H50  1  0.85550000  0.64310000  0.51160000  1
  H  H51  1  0.85550000  0.85690000  0.98840000  1
  H  H52  1  0.91900000  0.50030000  0.06490000  1
  H  H53  1  0.91900000  0.99970000  0.43510000  1
  H  H54  1  0.93260000  0.64460000  0.97280000  1
  H  H55  1  0.93260000  0.85540000  0.52720000  1
  H  H56  1  0.93550000  0.00430000  0.19880000  1
  H  H57  1  0.93550000  0.49570000  0.30120000  1
  H  H58  1  0.98220000  0.55810000  0.56860000  1
  H  H59  1  0.98220000  0.94190000  0.93140000  1
  C  C60  1  0.01070000  0.11790000  0.44180000  1
  C  C61  1  0.01070000  0.38210000  0.05820000  1
  C  C62  1  0.01370000  0.50550000  0.53870000  1
  C  C63  1  0.01370000  0.99450000  0.96130000  1
  C  C64  1  0.02400000  0.52820000  0.96470000  1
  C  C65  1  0.02400000  0.97180000  0.53530000  1
  C  C66  1  0.03220000  0.68030000  0.87090000  1
  C  C67  1  0.03220000  0.81970000  0.62910000  1
  C  C68  1  0.09260000  0.05890000  0.91380000  1
  C  C69  1  0.09260000  0.44110000  0.58620000  1
  C  C70  1  0.10480000  0.04420000  0.82940000  1
  C  C71  1  0.10480000  0.45580000  0.67060000  1
  C  C72  1  0.15290000  0.13140000  0.95360000  1
  C  C73  1  0.15290000  0.36860000  0.54640000  1
  C  C74  1  0.17560000  0.10030000  0.78720000  1
  C  C75  1  0.17560000  0.39970000  0.71280000  1
  C  C76  1  0.22600000  0.18660000  0.90720000  1
  C  C77  1  0.22600000  0.31340000  0.59280000  1
  C  C78  1  0.27400000  0.68660000  0.59280000  1
  C  C79  1  0.27400000  0.81340000  0.90720000  1
  C  C80  1  0.32440000  0.60030000  0.71280000  1
  C  C81  1  0.32440000  0.89970000  0.78720000  1
  C  C82  1  0.34710000  0.63140000  0.54640000  1
  C  C83  1  0.34710000  0.86860000  0.95360000  1
  C  C84  1  0.39520000  0.54420000  0.67060000  1
  C  C85  1  0.39520000  0.95580000  0.82940000  1
  C  C86  1  0.40740000  0.55890000  0.58620000  1
  C  C87  1  0.40740000  0.94110000  0.91380000  1
  C  C88  1  0.46780000  0.18030000  0.62910000  1
  C  C89  1  0.46780000  0.31970000  0.87090000  1
  C  C90  1  0.47600000  0.02820000  0.53530000  1
  C  C91  1  0.47600000  0.47180000  0.96470000  1
  C  C92  1  0.48630000  0.00550000  0.96130000  1
  C  C93  1  0.48630000  0.49450000  0.53870000  1
  C  C94  1  0.48930000  0.61790000  0.05820000  1
  C  C95  1  0.48930000  0.88210000  0.44180000  1
  C  C96  1  0.51070000  0.11790000  0.55820000  1
  C  C97  1  0.51070000  0.38210000  0.94180000  1
  C  C98  1  0.51370000  0.50550000  0.46130000  1
  C  C99  1  0.51370000  0.99450000  0.03870000  1
  C  C100  1  0.52400000  0.52820000  0.03530000  1
  C  C101  1  0.52400000  0.97180000  0.46470000  1
  C  C102  1  0.53220000  0.68030000  0.12910000  1
  C  C103  1  0.53220000  0.81970000  0.37090000  1
  C  C104  1  0.59260000  0.05890000  0.08620000  1
  C  C105  1  0.59260000  0.44110000  0.41380000  1
  C  C106  1  0.60480000  0.04420000  0.17060000  1
  C  C107  1  0.60480000  0.45580000  0.32940000  1
  C  C108  1  0.65290000  0.13140000  0.04640000  1
  C  C109  1  0.65290000  0.36860000  0.45360000  1
  C  C110  1  0.67560000  0.10030000  0.21280000  1
  C  C111  1  0.67560000  0.39970000  0.28720000  1
  C  C112  1  0.72600000  0.18660000  0.09280000  1
  C  C113  1  0.72600000  0.31340000  0.40720000  1
  C  C114  1  0.77400000  0.68660000  0.40720000  1
  C  C115  1  0.77400000  0.81340000  0.09280000  1
  C  C116  1  0.82440000  0.60030000  0.28720000  1
  C  C117  1  0.82440000  0.89970000  0.21280000  1
  C  C118  1  0.84710000  0.63140000  0.45360000  1
  C  C119  1  0.84710000  0.86860000  0.04640000  1
  C  C120  1  0.89520000  0.54420000  0.32940000  1
  C  C121  1  0.89520000  0.95580000  0.17060000  1
  C  C122  1  0.90740000  0.55890000  0.41380000  1
  C  C123  1  0.90740000  0.94110000  0.08620000  1
  C  C124  1  0.96780000  0.18030000  0.37090000  1
  C  C125  1  0.96780000  0.31970000  0.12910000  1
  C  C126  1  0.97600000  0.02820000  0.46470000  1
  C  C127  1  0.97600000  0.47180000  0.03530000  1
  C  C128  1  0.98630000  0.00550000  0.03870000  1
  C  C129  1  0.98630000  0.49450000  0.46130000  1
  C  C130  1  0.98930000  0.61790000  0.94180000  1
  C  C131  1  0.98930000  0.88210000  0.55820000  1
  N  N132  1  0.23910000  0.17270000  0.82140000  1
  N  N133  1  0.23910000  0.32730000  0.67860000  1
  N  N134  1  0.26090000  0.67270000  0.67860000  1
  N  N135  1  0.26090000  0.82730000  0.82140000  1
  N  N136  1  0.73910000  0.17270000  0.17860000  1
  N  N137  1  0.73910000  0.32730000  0.32140000  1
  N  N138  1  0.76090000  0.67270000  0.32140000  1
  N  N139  1  0.76090000  0.82730000  0.17860000  1
  O  O140  1  0.00810000  0.73240000  0.64050000  1
  O  O141  1  0.00810000  0.76760000  0.85950000  1
  O  O142  1  0.10760000  0.63690000  0.82670000  1
  O  O143  1  0.10760000  0.86310000  0.67330000  1
  O  O144  1  0.39240000  0.13690000  0.67330000  1
  O  O145  1  0.39240000  0.36310000  0.82670000  1
  O  O146  1  0.49190000  0.23240000  0.85950000  1
  O  O147  1  0.49190000  0.26760000  0.64050000  1
  O  O148  1  0.50810000  0.73240000  0.35950000  1
  O  O149  1  0.50810000  0.76760000  0.14050000  1
  O  O150  1  0.60760000  0.63690000  0.17330000  1
  O  O151  1  0.60760000  0.86310000  0.32670000  1
  O  O152  1  0.89240000  0.13690000  0.32670000  1
  O  O153  1  0.89240000  0.36310000  0.17330000  1
  O  O154  1  0.99190000  0.23240000  0.14050000  1
  O  O155  1  0.99190000  0.26760000  0.35950000  1
