# generated using pymatgen
data_CdH7C9(NO)3
_symmetry_space_group_name_H-M   'P 1'
_cell_length_a   5.88200000
_cell_length_b   20.87200000
_cell_length_c   20.87200000
_cell_angle_alpha   90.00000000
_cell_angle_beta   90.00000000
_cell_angle_gamma   90.00000000
_symmetry_Int_Tables_number   1
_chemical_formula_structural   CdH7C9(NO)3
_chemical_formula_sum   'Cd8 H56 C72 N24 O24'
_cell_volume   2562.43673869
_cell_formula_units_Z   8
loop_
 _symmetry_equiv_pos_site_id
 _symmetry_equiv_pos_as_xyz
  1  'x, y, z'
loop_
 _atom_site_type_symbol
 _atom_site_label
 _atom_site_symmetry_multiplicity
 _atom_site_fract_x
 _atom_site_fract_y
 _atom_site_fract_z
 _atom_site_occupancy
  Cd  Cd0  1  0.04003000  0.17012000  0.73197000  1
  Cd  Cd1  1  0.04003000  0.32988000  0.76803000  1
  Cd  Cd2  1  0.45997000  0.73197000  0.32988000  1
  Cd  Cd3  1  0.45997000  0.76803000  0.17012000  1
  Cd  Cd4  1  0.54003000  0.23197000  0.82988000  1
  Cd  Cd5  1  0.54003000  0.26803000  0.67012000  1
  Cd  Cd6  1  0.95997000  0.67012000  0.23197000  1
  Cd  Cd7  1  0.95997000  0.82988000  0.26803000  1
  H  H8  1  0.01240000  0.00780000  0.57100000  1
  H  H9  1  0.01240000  0.49220000  0.92900000  1
  H  H10  1  0.08900000  0.22300000  0.84500000  1
  H  H11  1  0.08900000  0.27700000  0.65500000  1
  H  H12  1  0.11010000  0.14910000  0.98540000  1
  H  H13  1  0.11010000  0.35090000  0.51460000  1
  H  H14  1  0.11760000  0.57730000  0.99210000  1
  H  H15  1  0.11760000  0.92270000  0.50790000  1
  H  H16  1  0.14960000  0.22750000  0.54970000  1
  H  H17  1  0.14960000  0.27250000  0.95030000  1
  H  H18  1  0.22590000  0.08550000  0.07190000  1
  H  H19  1  0.22590000  0.41450000  0.42810000  1
  H  H20  1  0.23880000  0.06730000  0.85510000  1
  H  H21  1  0.23880000  0.43270000  0.64490000  1
  H  H22  1  0.26120000  0.64490000  0.06730000  1
  H  H23  1  0.26120000  0.85510000  0.43270000  1
  H  H24  1  0.27410000  0.07190000  0.41450000  1
  H  H25  1  0.27410000  0.42810000  0.08550000  1
  H  H26  1  0.35040000  0.54970000  0.27250000  1
  H  H27  1  0.35040000  0.95030000  0.22750000  1
  H  H28  1  0.38240000  0.50790000  0.57730000  1
  H  H29  1  0.38240000  0.99210000  0.92270000  1
  H  H30  1  0.38990000  0.51460000  0.14910000  1
  H  H31  1  0.38990000  0.98540000  0.35090000  1
  H  H32  1  0.41100000  0.65500000  0.22300000  1
  H  H33  1  0.41100000  0.84500000  0.27700000  1
  H  H34  1  0.48760000  0.57100000  0.49220000  1
  H  H35  1  0.48760000  0.92900000  0.00780000  1
  H  H36  1  0.51240000  0.07100000  0.99220000  1
  H  H37  1  0.51240000  0.42900000  0.50780000  1
  H  H38  1  0.58900000  0.15500000  0.72300000  1
  H  H39  1  0.58900000  0.34500000  0.77700000  1
  H  H40  1  0.61010000  0.01460000  0.64910000  1
  H  H41  1  0.61010000  0.48540000  0.85090000  1
  H  H42  1  0.61760000  0.00790000  0.07730000  1
  H  H43  1  0.61760000  0.49210000  0.42270000  1
  H  H44  1  0.64960000  0.04970000  0.77250000  1
  H  H45  1  0.64960000  0.45030000  0.72750000  1
  H  H46  1  0.72590000  0.57190000  0.91450000  1
  H  H47  1  0.72590000  0.92810000  0.58550000  1
  H  H48  1  0.73880000  0.14490000  0.56730000  1
  H  H49  1  0.73880000  0.35510000  0.93270000  1
  H  H50  1  0.76120000  0.56730000  0.35510000  1
  H  H51  1  0.76120000  0.93270000  0.14490000  1
  H  H52  1  0.77410000  0.58550000  0.57190000  1
  H  H53  1  0.77410000  0.91450000  0.92810000  1
  H  H54  1  0.85040000  0.72750000  0.04970000  1
  H  H55  1  0.85040000  0.77250000  0.45030000  1
  H  H56  1  0.88240000  0.07730000  0.49210000  1
  H  H57  1  0.88240000  0.42270000  0.00790000  1
  H  H58  1  0.88990000  0.64910000  0.48540000  1
  H  H59  1  0.88990000  0.85090000  0.01460000  1
  H  H60  1  0.91100000  0.72300000  0.34500000  1
  H  H61  1  0.91100000  0.77700000  0.15500000  1
  H  H62  1  0.98760000  0.50780000  0.07100000  1
  H  H63  1  0.98760000  0.99220000  0.42900000  1
  C  C64  1  0.00730000  0.12060000  0.00370000  1
  C  C65  1  0.00730000  0.37940000  0.49630000  1
  C  C66  1  0.06830000  0.54120000  0.58230000  1
  C  C67  1  0.06830000  0.95880000  0.91770000  1
  C  C68  1  0.07860000  0.08210000  0.05610000  1
  C  C69  1  0.07860000  0.41790000  0.44390000  1
  C  C70  1  0.09510000  0.05280000  0.84330000  1
  C  C71  1  0.09510000  0.44720000  0.65670000  1
  C  C72  1  0.15950000  0.50810000  0.92520000  1
  C  C73  1  0.15950000  0.99190000  0.57480000  1
  C  C74  1  0.20090000  0.61700000  0.48010000  1
  C  C75  1  0.20090000  0.88300000  0.01990000  1
  C  C76  1  0.22060000  0.07490000  0.65770000  1
  C  C77  1  0.22060000  0.42510000  0.84230000  1
  C  C78  1  0.22110000  0.55940000  0.96360000  1
  C  C79  1  0.22110000  0.94060000  0.53640000  1
  C  C80  1  0.22680000  0.54230000  0.29930000  1
  C  C81  1  0.22680000  0.95770000  0.20070000  1
  C  C82  1  0.27320000  0.20070000  0.54230000  1
  C  C83  1  0.27320000  0.29930000  0.95770000  1
  C  C84  1  0.27890000  0.53640000  0.55940000  1
  C  C85  1  0.27890000  0.96360000  0.94060000  1
  C  C86  1  0.27940000  0.65770000  0.42510000  1
  C  C87  1  0.27940000  0.84230000  0.07490000  1
  C  C88  1  0.29910000  0.01990000  0.61700000  1
  C  C89  1  0.29910000  0.48010000  0.88300000  1
  C  C90  1  0.34050000  0.57480000  0.50810000  1
  C  C91  1  0.34050000  0.92520000  0.99190000  1
  C  C92  1  0.40490000  0.65670000  0.05280000  1
  C  C93  1  0.40490000  0.84330000  0.44720000  1
  C  C94  1  0.42140000  0.05610000  0.41790000  1
  C  C95  1  0.42140000  0.44390000  0.08210000  1
  C  C96  1  0.43170000  0.58230000  0.95880000  1
  C  C97  1  0.43170000  0.91770000  0.54120000  1
  C  C98  1  0.49270000  0.00370000  0.37940000  1
  C  C99  1  0.49270000  0.49630000  0.12060000  1
  C  C100  1  0.50730000  0.50370000  0.87940000  1
  C  C101  1  0.50730000  0.99630000  0.62060000  1
  C  C102  1  0.56830000  0.08230000  0.45880000  1
  C  C103  1  0.56830000  0.41770000  0.04120000  1
  C  C104  1  0.57860000  0.55610000  0.91790000  1
  C  C105  1  0.57860000  0.94390000  0.58210000  1
  C  C106  1  0.59510000  0.15670000  0.55280000  1
  C  C107  1  0.59510000  0.34330000  0.94720000  1
  C  C108  1  0.65950000  0.07480000  0.00810000  1
  C  C109  1  0.65950000  0.42520000  0.49190000  1
  C  C110  1  0.70090000  0.51990000  0.11700000  1
  C  C111  1  0.70090000  0.98010000  0.38300000  1
  C  C112  1  0.72060000  0.15770000  0.92510000  1
  C  C113  1  0.72060000  0.34230000  0.57490000  1
  C  C114  1  0.72110000  0.03640000  0.05940000  1
  C  C115  1  0.72110000  0.46360000  0.44060000  1
  C  C116  1  0.72680000  0.70070000  0.04230000  1
  C  C117  1  0.72680000  0.79930000  0.45770000  1
  C  C118  1  0.77320000  0.04230000  0.79930000  1
  C  C119  1  0.77320000  0.45770000  0.70070000  1
  C  C120  1  0.77890000  0.05940000  0.46360000  1
  C  C121  1  0.77890000  0.44060000  0.03640000  1
  C  C122  1  0.77940000  0.57490000  0.15770000  1
  C  C123  1  0.77940000  0.92510000  0.34230000  1
  C  C124  1  0.79910000  0.11700000  0.98010000  1
  C  C125  1  0.79910000  0.38300000  0.51990000  1
  C  C126  1  0.84050000  0.00810000  0.42520000  1
  C  C127  1  0.84050000  0.49190000  0.07480000  1
  C  C128  1  0.90490000  0.55280000  0.34330000  1
  C  C129  1  0.90490000  0.94720000  0.15670000  1
  C  C130  1  0.92140000  0.58210000  0.55610000  1
  C  C131  1  0.92140000  0.91790000  0.94390000  1
  C  C132  1  0.93170000  0.04120000  0.08230000  1
  C  C133  1  0.93170000  0.45880000  0.41770000  1
  C  C134  1  0.99270000  0.62060000  0.50370000  1
  C  C135  1  0.99270000  0.87940000  0.99630000  1
  N  N136  1  0.00890000  0.50160000  0.36800000  1
  N  N137  1  0.00890000  0.99840000  0.13200000  1
  N  N138  1  0.03600000  0.57990000  0.29980000  1
  N  N139  1  0.03600000  0.92010000  0.20020000  1
  N  N140  1  0.21760000  0.00570000  0.15930000  1
  N  N141  1  0.21760000  0.49430000  0.34070000  1
  N  N142  1  0.28240000  0.15930000  0.49430000  1
  N  N143  1  0.28240000  0.34070000  0.00570000  1
  N  N144  1  0.46400000  0.20020000  0.57990000  1
  N  N145  1  0.46400000  0.29980000  0.92010000  1
  N  N146  1  0.49110000  0.13200000  0.50160000  1
  N  N147  1  0.49110000  0.36800000  0.99840000  1
  N  N148  1  0.50890000  0.63200000  0.00160000  1
  N  N149  1  0.50890000  0.86800000  0.49840000  1
  N  N150  1  0.53600000  0.70020000  0.07990000  1
  N  N151  1  0.53600000  0.79980000  0.42010000  1
  N  N152  1  0.71760000  0.65930000  0.99430000  1
  N  N153  1  0.71760000  0.84070000  0.50570000  1
  N  N154  1  0.78240000  0.50570000  0.65930000  1
  N  N155  1  0.78240000  0.99430000  0.84070000  1
  N  N156  1  0.96400000  0.07990000  0.79980000  1
  N  N157  1  0.96400000  0.42010000  0.70020000  1
  N  N158  1  0.99110000  0.00160000  0.86800000  1
  N  N159  1  0.99110000  0.49840000  0.63200000  1
  O  O160  1  0.02980000  0.09990000  0.64480000  1
  O  O161  1  0.02980000  0.40010000  0.85520000  1
  O  O162  1  0.15440000  0.70110000  0.40440000  1
  O  O163  1  0.15440000  0.79890000  0.09560000  1
  O  O164  1  0.16540000  0.23340000  0.81242000  1
  O  O165  1  0.16540000  0.26660000  0.68758000  1
  O  O166  1  0.33460000  0.68758000  0.23340000  1
  O  O167  1  0.33460000  0.81242000  0.26660000  1
  O  O168  1  0.34560000  0.09560000  0.70110000  1
  O  O169  1  0.34560000  0.40440000  0.79890000  1
  O  O170  1  0.47020000  0.64480000  0.40010000  1
  O  O171  1  0.47020000  0.85520000  0.09990000  1
  O  O172  1  0.52980000  0.14480000  0.90010000  1
  O  O173  1  0.52980000  0.35520000  0.59990000  1
  O  O174  1  0.65440000  0.59560000  0.20110000  1
  O  O175  1  0.65440000  0.90440000  0.29890000  1
  O  O176  1  0.66540000  0.18758000  0.73340000  1
  O  O177  1  0.66540000  0.31242000  0.76660000  1
  O  O178  1  0.83460000  0.73340000  0.31242000  1
  O  O179  1  0.83460000  0.76660000  0.18758000  1
  O  O180  1  0.84560000  0.20110000  0.90440000  1
  O  O181  1  0.84560000  0.29890000  0.59560000  1
  O  O182  1  0.97020000  0.59990000  0.14480000  1
  O  O183  1  0.97020000  0.90010000  0.35520000  1
