# generated using pymatgen
data_Cu6H9C27N12O13
_symmetry_space_group_name_H-M   'P 1'
_cell_length_a   31.44800841
_cell_length_b   31.44800841
_cell_length_c   31.44800841
_cell_angle_alpha   60.00000000
_cell_angle_beta   60.00000000
_cell_angle_gamma   60.00000000
_symmetry_Int_Tables_number   1
_chemical_formula_structural   Cu6H9C27N12O13
_chemical_formula_sum   'Cu48 H72 C216 N96 O104'
_cell_volume   21991.98562394
_cell_formula_units_Z   8
loop_
 _symmetry_equiv_pos_site_id
 _symmetry_equiv_pos_as_xyz
  1  'x, y, z'
loop_
 _atom_site_type_symbol
 _atom_site_label
 _atom_site_symmetry_multiplicity
 _atom_site_fract_x
 _atom_site_fract_y
 _atom_site_fract_z
 _atom_site_occupancy
  C  C0  1  0.01387000  0.90605000  0.74431000  1
  C  C1  1  0.66423000  0.25569000  0.09395000  1
  C  C2  1  0.90605000  0.01387000  0.74431000  1
  C  C3  1  0.66423000  0.25569000  0.98613000  1
  C  C4  1  0.01387000  0.90605000  0.33577000  1
  C  C5  1  0.25569000  0.66423000  0.09395000  1
  C  C6  1  0.90605000  0.01387000  0.33577000  1
  C  C7  1  0.25569000  0.66423000  0.98613000  1
  C  C8  1  0.01845000  0.84859000  0.77099000  1
  C  C9  1  0.63803000  0.22901000  0.15141000  1
  C  C10  1  0.84859000  0.01845000  0.77099000  1
  C  C11  1  0.63803000  0.22901000  0.98155000  1
  C  C12  1  0.01845000  0.84859000  0.36197000  1
  C  C13  1  0.22901000  0.63803000  0.15141000  1
  C  C14  1  0.84859000  0.01845000  0.36197000  1
  C  C15  1  0.22901000  0.63803000  0.98155000  1
  C  C16  1  0.02292000  0.82252000  0.74458000  1
  C  C17  1  0.59002000  0.25542000  0.17748000  1
  C  C18  1  0.82252000  0.02292000  0.74458000  1
  C  C19  1  0.59002000  0.25542000  0.97708000  1
  C  C20  1  0.02292000  0.82252000  0.40998000  1
  C  C21  1  0.25542000  0.59002000  0.17748000  1
  C  C22  1  0.82252000  0.02292000  0.40998000  1
  C  C23  1  0.25542000  0.59002000  0.97708000  1
  C  C24  1  0.01659000  0.82255000  0.82255000  1
  C  C25  1  0.66169000  0.17745000  0.17745000  1
  C  C26  1  0.82255000  0.01659000  0.82255000  1
  C  C27  1  0.66169000  0.17745000  0.98341000  1
  C  C28  1  0.01659000  0.82255000  0.33831000  1
  C  C29  1  0.17745000  0.66169000  0.17745000  1
  C  C30  1  0.82255000  0.01659000  0.33831000  1
  C  C31  1  0.17745000  0.66169000  0.98341000  1
  C  C32  1  0.02030000  0.77190000  0.77190000  1
  C  C33  1  0.56410000  0.22810000  0.22810000  1
  C  C34  1  0.77190000  0.02030000  0.77190000  1
  C  C35  1  0.56410000  0.22810000  0.97970000  1
  C  C36  1  0.02030000  0.77190000  0.43590000  1
  C  C37  1  0.22810000  0.56410000  0.22810000  1
  C  C38  1  0.77190000  0.02030000  0.43590000  1
  C  C39  1  0.22810000  0.56410000  0.97970000  1
  C  C40  1  0.01845000  0.77099000  0.84859000  1
  C  C41  1  0.63803000  0.15141000  0.22901000  1
  C  C42  1  0.77099000  0.01845000  0.84859000  1
  C  C43  1  0.63803000  0.15141000  0.98155000  1
  C  C44  1  0.01845000  0.77099000  0.36197000  1
  C  C45  1  0.15141000  0.63803000  0.22901000  1
  C  C46  1  0.77099000  0.01845000  0.36197000  1
  C  C47  1  0.15141000  0.63803000  0.98155000  1
  C  C48  1  0.02292000  0.74458000  0.82252000  1
  C  C49  1  0.59002000  0.17748000  0.25542000  1
  C  C50  1  0.74458000  0.02292000  0.82252000  1
  C  C51  1  0.59002000  0.17748000  0.97708000  1
  C  C52  1  0.02292000  0.74458000  0.40998000  1
  C  C53  1  0.17748000  0.59002000  0.25542000  1
  C  C54  1  0.74458000  0.02292000  0.40998000  1
  C  C55  1  0.17748000  0.59002000  0.97708000  1
  C  C56  1  0.01852000  0.74400000  0.74400000  1
  C  C57  1  0.50652000  0.25600000  0.25600000  1
  C  C58  1  0.01852000  0.74400000  0.49348000  1
  C  C59  1  0.25600000  0.50652000  0.25600000  1
  C  C60  1  0.74400000  0.01852000  0.74400000  1
  C  C61  1  0.50652000  0.25600000  0.98148000  1
  C  C62  1  0.74400000  0.01852000  0.49348000  1
  C  C63  1  0.25600000  0.50652000  0.98148000  1
  C  C64  1  0.01387000  0.74431000  0.90605000  1
  C  C65  1  0.66423000  0.09395000  0.25569000  1
  C  C66  1  0.74431000  0.01387000  0.90605000  1
  C  C67  1  0.66423000  0.09395000  0.98613000  1
  C  C68  1  0.01387000  0.74431000  0.33577000  1
  C  C69  1  0.09395000  0.66423000  0.25569000  1
  C  C70  1  0.74431000  0.01387000  0.33577000  1
  C  C71  1  0.09395000  0.66423000  0.98613000  1
  C  C72  1  0.90605000  0.74431000  0.01387000  1
  C  C73  1  0.66423000  0.98613000  0.25569000  1
  C  C74  1  0.74431000  0.90605000  0.01387000  1
  C  C75  1  0.66423000  0.98613000  0.09395000  1
  C  C76  1  0.90605000  0.74431000  0.33577000  1
  C  C77  1  0.98613000  0.66423000  0.25569000  1
  C  C78  1  0.74431000  0.90605000  0.33577000  1
  C  C79  1  0.98613000  0.66423000  0.09395000  1
  C  C80  1  0.82255000  0.82255000  0.01659000  1
  C  C81  1  0.66169000  0.98341000  0.17745000  1
  C  C82  1  0.82255000  0.82255000  0.33831000  1
  C  C83  1  0.98341000  0.66169000  0.17745000  1
  C  C84  1  0.84859000  0.77099000  0.01845000  1
  C  C85  1  0.63803000  0.98155000  0.22901000  1
  C  C86  1  0.77099000  0.84859000  0.01845000  1
  C  C87  1  0.63803000  0.98155000  0.15141000  1
  C  C88  1  0.84859000  0.77099000  0.36197000  1
  C  C89  1  0.98155000  0.63803000  0.22901000  1
  C  C90  1  0.77099000  0.84859000  0.36197000  1
  C  C91  1  0.98155000  0.63803000  0.15141000  1
  C  C92  1  0.82252000  0.74458000  0.02292000  1
  C  C93  1  0.59002000  0.97708000  0.25542000  1
  C  C94  1  0.74458000  0.82252000  0.02292000  1
  C  C95  1  0.59002000  0.97708000  0.17748000  1
  C  C96  1  0.82252000  0.74458000  0.40998000  1
  C  C97  1  0.97708000  0.59002000  0.25542000  1
  C  C98  1  0.74458000  0.82252000  0.40998000  1
  C  C99  1  0.97708000  0.59002000  0.17748000  1
  C  C100  1  0.77190000  0.77190000  0.02030000  1
  C  C101  1  0.56410000  0.97970000  0.22810000  1
  C  C102  1  0.77190000  0.77190000  0.43590000  1
  C  C103  1  0.97970000  0.56410000  0.22810000  1
  C  C104  1  0.01852000  0.49348000  0.74400000  1
  C  C105  1  0.25600000  0.25600000  0.50652000  1
  C  C106  1  0.49348000  0.01852000  0.74400000  1
  C  C107  1  0.25600000  0.25600000  0.98148000  1
  C  C108  1  0.74400000  0.74400000  0.01852000  1
  C  C109  1  0.50652000  0.98148000  0.25600000  1
  C  C110  1  0.74400000  0.74400000  0.49348000  1
  C  C111  1  0.98148000  0.50652000  0.25600000  1
  C  C112  1  0.02030000  0.43590000  0.77190000  1
  C  C113  1  0.22810000  0.22810000  0.56410000  1
  C  C114  1  0.43590000  0.02030000  0.77190000  1
  C  C115  1  0.22810000  0.22810000  0.97970000  1
  C  C116  1  0.02292000  0.40998000  0.82252000  1
  C  C117  1  0.25542000  0.17748000  0.59002000  1
  C  C118  1  0.02292000  0.40998000  0.74458000  1
  C  C119  1  0.17748000  0.25542000  0.59002000  1
  C  C120  1  0.40998000  0.02292000  0.82252000  1
  C  C121  1  0.25542000  0.17748000  0.97708000  1
  C  C122  1  0.40998000  0.02292000  0.74458000  1
  C  C123  1  0.17748000  0.25542000  0.97708000  1
  C  C124  1  0.01845000  0.36197000  0.84859000  1
  C  C125  1  0.22901000  0.15141000  0.63803000  1
  C  C126  1  0.01845000  0.36197000  0.77099000  1
  C  C127  1  0.15141000  0.22901000  0.63803000  1
  C  C128  1  0.36197000  0.01845000  0.84859000  1
  C  C129  1  0.22901000  0.15141000  0.98155000  1
  C  C130  1  0.36197000  0.01845000  0.77099000  1
  C  C131  1  0.15141000  0.22901000  0.98155000  1
  C  C132  1  0.01659000  0.33831000  0.82255000  1
  C  C133  1  0.17745000  0.17745000  0.66169000  1
  C  C134  1  0.33831000  0.01659000  0.82255000  1
  C  C135  1  0.17745000  0.17745000  0.98341000  1
  C  C136  1  0.01387000  0.33577000  0.90605000  1
  C  C137  1  0.25569000  0.09395000  0.66423000  1
  C  C138  1  0.01387000  0.33577000  0.74431000  1
  C  C139  1  0.09395000  0.25569000  0.66423000  1
  C  C140  1  0.33577000  0.01387000  0.90605000  1
  C  C141  1  0.25569000  0.09395000  0.98613000  1
  C  C142  1  0.33577000  0.01387000  0.74431000  1
  C  C143  1  0.09395000  0.25569000  0.98613000  1
  C  C144  1  0.90605000  0.33577000  0.01387000  1
  C  C145  1  0.25569000  0.98613000  0.66423000  1
  C  C146  1  0.90605000  0.33577000  0.74431000  1
  C  C147  1  0.98613000  0.25569000  0.66423000  1
  C  C148  1  0.33577000  0.90605000  0.01387000  1
  C  C149  1  0.25569000  0.98613000  0.09395000  1
  C  C150  1  0.33577000  0.90605000  0.74431000  1
  C  C151  1  0.98613000  0.25569000  0.09395000  1
  C  C152  1  0.74400000  0.49348000  0.01852000  1
  C  C153  1  0.25600000  0.98148000  0.50652000  1
  C  C154  1  0.49348000  0.74400000  0.01852000  1
  C  C155  1  0.25600000  0.98148000  0.25600000  1
  C  C156  1  0.74400000  0.49348000  0.74400000  1
  C  C157  1  0.98148000  0.25600000  0.50652000  1
  C  C158  1  0.49348000  0.74400000  0.74400000  1
  C  C159  1  0.98148000  0.25600000  0.25600000  1
  C  C160  1  0.82252000  0.40998000  0.02292000  1
  C  C161  1  0.25542000  0.97708000  0.59002000  1
  C  C162  1  0.82252000  0.40998000  0.74458000  1
  C  C163  1  0.97708000  0.25542000  0.59002000  1
  C  C164  1  0.40998000  0.82252000  0.02292000  1
  C  C165  1  0.25542000  0.97708000  0.17748000  1
  C  C166  1  0.40998000  0.82252000  0.74458000  1
  C  C167  1  0.97708000  0.25542000  0.17748000  1
  C  C168  1  0.84859000  0.36197000  0.01845000  1
  C  C169  1  0.22901000  0.98155000  0.63803000  1
  C  C170  1  0.84859000  0.36197000  0.77099000  1
  C  C171  1  0.98155000  0.22901000  0.63803000  1
  C  C172  1  0.36197000  0.84859000  0.01845000  1
  C  C173  1  0.22901000  0.98155000  0.15141000  1
  C  C174  1  0.36197000  0.84859000  0.77099000  1
  C  C175  1  0.98155000  0.22901000  0.15141000  1
  C  C176  1  0.77190000  0.43590000  0.02030000  1
  C  C177  1  0.22810000  0.97970000  0.56410000  1
  C  C178  1  0.77190000  0.43590000  0.77190000  1
  C  C179  1  0.97970000  0.22810000  0.56410000  1
  C  C180  1  0.43590000  0.77190000  0.02030000  1
  C  C181  1  0.22810000  0.97970000  0.22810000  1
  C  C182  1  0.43590000  0.77190000  0.77190000  1
  C  C183  1  0.97970000  0.22810000  0.22810000  1
  C  C184  1  0.82255000  0.33831000  0.01659000  1
  C  C185  1  0.17745000  0.98341000  0.66169000  1
  C  C186  1  0.82255000  0.33831000  0.82255000  1
  C  C187  1  0.98341000  0.17745000  0.66169000  1
  C  C188  1  0.33831000  0.82255000  0.01659000  1
  C  C189  1  0.17745000  0.98341000  0.17745000  1
  C  C190  1  0.33831000  0.82255000  0.82255000  1
  C  C191  1  0.98341000  0.17745000  0.17745000  1
  C  C192  1  0.74458000  0.40998000  0.02292000  1
  C  C193  1  0.17748000  0.97708000  0.59002000  1
  C  C194  1  0.74458000  0.40998000  0.82252000  1
  C  C195  1  0.97708000  0.17748000  0.59002000  1
  C  C196  1  0.40998000  0.74458000  0.02292000  1
  C  C197  1  0.17748000  0.97708000  0.25542000  1
  C  C198  1  0.40998000  0.74458000  0.82252000  1
  C  C199  1  0.97708000  0.17748000  0.25542000  1
  C  C200  1  0.77099000  0.36197000  0.01845000  1
  C  C201  1  0.15141000  0.98155000  0.63803000  1
  C  C202  1  0.77099000  0.36197000  0.84859000  1
  C  C203  1  0.98155000  0.15141000  0.63803000  1
  C  C204  1  0.36197000  0.77099000  0.01845000  1
  C  C205  1  0.15141000  0.98155000  0.22901000  1
  C  C206  1  0.36197000  0.77099000  0.84859000  1
  C  C207  1  0.98155000  0.15141000  0.22901000  1
  C  C208  1  0.74431000  0.33577000  0.01387000  1
  C  C209  1  0.09395000  0.98613000  0.66423000  1
  C  C210  1  0.74431000  0.33577000  0.90605000  1
  C  C211  1  0.98613000  0.09395000  0.66423000  1
  C  C212  1  0.33577000  0.74431000  0.01387000  1
  C  C213  1  0.09395000  0.98613000  0.25569000  1
  C  C214  1  0.33577000  0.74431000  0.90605000  1
  C  C215  1  0.98613000  0.09395000  0.25569000  1
  Cu  Cu216  1  1.00000000  0.00000000  0.74688000  1
  Cu  Cu217  1  0.74688000  0.25312000  1.00000000  1
  Cu  Cu218  1  0.00000000  1.00000000  0.66266000  1
  Cu  Cu219  1  0.66266000  0.33734000  1.00000000  1
  Cu  Cu220  1  1.00000000  1.00000000  0.33734000  1
  Cu  Cu221  1  0.33734000  0.66266000  1.00000000  1
  Cu  Cu222  1  1.00000000  0.00000000  0.25312000  1
  Cu  Cu223  1  0.25312000  0.74688000  1.00000000  1
  Cu  Cu224  1  0.02813000  0.72797000  0.62195000  1
  Cu  Cu225  1  0.37805000  0.37805000  0.27203000  1
  Cu  Cu226  1  0.72797000  0.02813000  0.62195000  1
  Cu  Cu227  1  0.37805000  0.37805000  0.97187000  1
  Cu  Cu228  1  1.00000000  0.74688000  0.00000000  1
  Cu  Cu229  1  0.74688000  0.00000000  0.25312000  1
  Cu  Cu230  1  0.74688000  0.00000000  0.00000000  1
  Cu  Cu231  1  0.00000000  0.74688000  0.25312000  1
  Cu  Cu232  1  1.00000000  0.66266000  1.00000000  1
  Cu  Cu233  1  0.66266000  1.00000000  0.33734000  1
  Cu  Cu234  1  0.66266000  0.00000000  1.00000000  1
  Cu  Cu235  1  0.00000000  0.66266000  0.33734000  1
  Cu  Cu236  1  0.02813000  0.62195000  0.72797000  1
  Cu  Cu237  1  0.37805000  0.27203000  0.37805000  1
  Cu  Cu238  1  0.02813000  0.62195000  0.62195000  1
  Cu  Cu239  1  0.27203000  0.37805000  0.37805000  1
  Cu  Cu240  1  0.62195000  0.02813000  0.72797000  1
  Cu  Cu241  1  0.37805000  0.27203000  0.97187000  1
  Cu  Cu242  1  0.62195000  0.02813000  0.62195000  1
  Cu  Cu243  1  0.27203000  0.37805000  0.97187000  1
  Cu  Cu244  1  0.72797000  0.62195000  0.02813000  1
  Cu  Cu245  1  0.37805000  0.97187000  0.37805000  1
  Cu  Cu246  1  0.62195000  0.72797000  0.02813000  1
  Cu  Cu247  1  0.37805000  0.97187000  0.27203000  1
  Cu  Cu248  1  0.72797000  0.62195000  0.62195000  1
  Cu  Cu249  1  0.97187000  0.37805000  0.37805000  1
  Cu  Cu250  1  0.62195000  0.72797000  0.62195000  1
  Cu  Cu251  1  0.97187000  0.37805000  0.27203000  1
  Cu  Cu252  1  1.00000000  0.33734000  1.00000000  1
  Cu  Cu253  1  0.33734000  1.00000000  0.66266000  1
  Cu  Cu254  1  0.00000000  0.33734000  0.66266000  1
  Cu  Cu255  1  0.33734000  0.00000000  1.00000000  1
  Cu  Cu256  1  1.00000000  0.25312000  0.00000000  1
  Cu  Cu257  1  0.25312000  1.00000000  0.74688000  1
  Cu  Cu258  1  0.00000000  0.25312000  0.74688000  1
  Cu  Cu259  1  0.25312000  0.00000000  0.00000000  1
  Cu  Cu260  1  0.62195000  0.62195000  0.02813000  1
  Cu  Cu261  1  0.27203000  0.97187000  0.37805000  1
  Cu  Cu262  1  0.62195000  0.62195000  0.72797000  1
  Cu  Cu263  1  0.97187000  0.27203000  0.37805000  1
  H  H264  1  0.02762000  0.83776000  0.70916000  1
  H  H265  1  0.57454000  0.29084000  0.16224000  1
  H  H266  1  0.83776000  0.02762000  0.70916000  1
  H  H267  1  0.57454000  0.29084000  0.97238000  1
  H  H268  1  0.02762000  0.83776000  0.42546000  1
  H  H269  1  0.29084000  0.57454000  0.16224000  1
  H  H270  1  0.83776000  0.02762000  0.42546000  1
  H  H271  1  0.29084000  0.57454000  0.97238000  1
  H  H272  1  0.01399000  0.84045000  0.84045000  1
  H  H273  1  0.69489000  0.15955000  0.15955000  1
  H  H274  1  0.84045000  0.01399000  0.84045000  1
  H  H275  1  0.69489000  0.15955000  0.98601000  1
  H  H276  1  0.01399000  0.84045000  0.30511000  1
  H  H277  1  0.15955000  0.69489000  0.15955000  1
  H  H278  1  0.84045000  0.01399000  0.30511000  1
  H  H279  1  0.15955000  0.69489000  0.98601000  1
  H  H280  1  0.02762000  0.70916000  0.83776000  1
  H  H281  1  0.57454000  0.16224000  0.29084000  1
  H  H282  1  0.70916000  0.02762000  0.83776000  1
  H  H283  1  0.57454000  0.16224000  0.97238000  1
  H  H284  1  0.02762000  0.70916000  0.42546000  1
  H  H285  1  0.16224000  0.57454000  0.29084000  1
  H  H286  1  0.70916000  0.02762000  0.42546000  1
  H  H287  1  0.16224000  0.57454000  0.97238000  1
  H  H288  1  0.84045000  0.84045000  0.01399000  1
  H  H289  1  0.69489000  0.98601000  0.15955000  1
  H  H290  1  0.84045000  0.84045000  0.30511000  1
  H  H291  1  0.98601000  0.69489000  0.15955000  1
  H  H292  1  0.83776000  0.70916000  0.02762000  1
  H  H293  1  0.57454000  0.97238000  0.29084000  1
  H  H294  1  0.70916000  0.83776000  0.02762000  1
  H  H295  1  0.57454000  0.97238000  0.16224000  1
  H  H296  1  0.83776000  0.70916000  0.42546000  1
  H  H297  1  0.97238000  0.57454000  0.29084000  1
  H  H298  1  0.70916000  0.83776000  0.42546000  1
  H  H299  1  0.97238000  0.57454000  0.16224000  1
  H  H300  1  0.02762000  0.42546000  0.83776000  1
  H  H301  1  0.29084000  0.16224000  0.57454000  1
  H  H302  1  0.02762000  0.42546000  0.70916000  1
  H  H303  1  0.16224000  0.29084000  0.57454000  1
  H  H304  1  0.42546000  0.02762000  0.83776000  1
  H  H305  1  0.29084000  0.16224000  0.97238000  1
  H  H306  1  0.42546000  0.02762000  0.70916000  1
  H  H307  1  0.16224000  0.29084000  0.97238000  1
  H  H308  1  0.01399000  0.30511000  0.84045000  1
  H  H309  1  0.15955000  0.15955000  0.69489000  1
  H  H310  1  0.30511000  0.01399000  0.84045000  1
  H  H311  1  0.15955000  0.15955000  0.98601000  1
  H  H312  1  0.83776000  0.42546000  0.02762000  1
  H  H313  1  0.29084000  0.97238000  0.57454000  1
  H  H314  1  0.83776000  0.42546000  0.70916000  1
  H  H315  1  0.97238000  0.29084000  0.57454000  1
  H  H316  1  0.42546000  0.83776000  0.02762000  1
  H  H317  1  0.29084000  0.97238000  0.16224000  1
  H  H318  1  0.42546000  0.83776000  0.70916000  1
  H  H319  1  0.97238000  0.29084000  0.16224000  1
  H  H320  1  0.84045000  0.30511000  0.01399000  1
  H  H321  1  0.15955000  0.98601000  0.69489000  1
  H  H322  1  0.84045000  0.30511000  0.84045000  1
  H  H323  1  0.98601000  0.15955000  0.69489000  1
  H  H324  1  0.30511000  0.84045000  0.01399000  1
  H  H325  1  0.15955000  0.98601000  0.15955000  1
  H  H326  1  0.30511000  0.84045000  0.84045000  1
  H  H327  1  0.98601000  0.15955000  0.15955000  1
  H  H328  1  0.70916000  0.42546000  0.02762000  1
  H  H329  1  0.16224000  0.97238000  0.57454000  1
  H  H330  1  0.70916000  0.42546000  0.83776000  1
  H  H331  1  0.97238000  0.16224000  0.57454000  1
  H  H332  1  0.42546000  0.70916000  0.02762000  1
  H  H333  1  0.16224000  0.97238000  0.29084000  1
  H  H334  1  0.42546000  0.70916000  0.83776000  1
  H  H335  1  0.97238000  0.16224000  0.29084000  1
  N  N336  1  0.02851000  0.76445000  0.69367000  1
  N  N337  1  0.48663000  0.30633000  0.23555000  1
  N  N338  1  0.02851000  0.76445000  0.51337000  1
  N  N339  1  0.30633000  0.48663000  0.23555000  1
  N  N340  1  0.76445000  0.02851000  0.69367000  1
  N  N341  1  0.48663000  0.30633000  0.97149000  1
  N  N342  1  0.76445000  0.02851000  0.51337000  1
  N  N343  1  0.30633000  0.48663000  0.97149000  1
  N  N344  1  0.02114000  0.72736000  0.68752000  1
  N  N345  1  0.43602000  0.31248000  0.27264000  1
  N  N346  1  0.02114000  0.72736000  0.56398000  1
  N  N347  1  0.31248000  0.43602000  0.27264000  1
  N  N348  1  0.72736000  0.02114000  0.68752000  1
  N  N349  1  0.43602000  0.31248000  0.97886000  1
  N  N350  1  0.72736000  0.02114000  0.56398000  1
  N  N351  1  0.31248000  0.43602000  0.97886000  1
  N  N352  1  0.02851000  0.69367000  0.76445000  1
  N  N353  1  0.48663000  0.23555000  0.30633000  1
  N  N354  1  0.02851000  0.69367000  0.51337000  1
  N  N355  1  0.23555000  0.48663000  0.30633000  1
  N  N356  1  0.69367000  0.02851000  0.76445000  1
  N  N357  1  0.48663000  0.23555000  0.97149000  1
  N  N358  1  0.69367000  0.02851000  0.51337000  1
  N  N359  1  0.23555000  0.48663000  0.97149000  1
  N  N360  1  0.02114000  0.68752000  0.72736000  1
  N  N361  1  0.43602000  0.27264000  0.31248000  1
  N  N362  1  0.02114000  0.68752000  0.56398000  1
  N  N363  1  0.27264000  0.43602000  0.31248000  1
  N  N364  1  0.68752000  0.02114000  0.72736000  1
  N  N365  1  0.43602000  0.27264000  0.97886000  1
  N  N366  1  0.68752000  0.02114000  0.56398000  1
  N  N367  1  0.27264000  0.43602000  0.97886000  1
  N  N368  1  0.02114000  0.56398000  0.72736000  1
  N  N369  1  0.31248000  0.27264000  0.43602000  1
  N  N370  1  0.02114000  0.56398000  0.68752000  1
  N  N371  1  0.27264000  0.31248000  0.43602000  1
  N  N372  1  0.56398000  0.02114000  0.72736000  1
  N  N373  1  0.31248000  0.27264000  0.97886000  1
  N  N374  1  0.56398000  0.02114000  0.68752000  1
  N  N375  1  0.27264000  0.31248000  0.97886000  1
  N  N376  1  0.02851000  0.51337000  0.76445000  1
  N  N377  1  0.30633000  0.23555000  0.48663000  1
  N  N378  1  0.02851000  0.51337000  0.69367000  1
  N  N379  1  0.23555000  0.30633000  0.48663000  1
  N  N380  1  0.51337000  0.02851000  0.76445000  1
  N  N381  1  0.30633000  0.23555000  0.97149000  1
  N  N382  1  0.51337000  0.02851000  0.69367000  1
  N  N383  1  0.23555000  0.30633000  0.97149000  1
  N  N384  1  0.76445000  0.69367000  0.02851000  1
  N  N385  1  0.48663000  0.97149000  0.30633000  1
  N  N386  1  0.69367000  0.76445000  0.02851000  1
  N  N387  1  0.48663000  0.97149000  0.23555000  1
  N  N388  1  0.76445000  0.69367000  0.51337000  1
  N  N389  1  0.97149000  0.48663000  0.30633000  1
  N  N390  1  0.69367000  0.76445000  0.51337000  1
  N  N391  1  0.97149000  0.48663000  0.23555000  1
  N  N392  1  0.72736000  0.68752000  0.02114000  1
  N  N393  1  0.43602000  0.97886000  0.31248000  1
  N  N394  1  0.68752000  0.72736000  0.02114000  1
  N  N395  1  0.43602000  0.97886000  0.27264000  1
  N  N396  1  0.72736000  0.68752000  0.56398000  1
  N  N397  1  0.97886000  0.43602000  0.31248000  1
  N  N398  1  0.68752000  0.72736000  0.56398000  1
  N  N399  1  0.97886000  0.43602000  0.27264000  1
  N  N400  1  0.72736000  0.56398000  0.02114000  1
  N  N401  1  0.31248000  0.97886000  0.43602000  1
  N  N402  1  0.56398000  0.72736000  0.02114000  1
  N  N403  1  0.31248000  0.97886000  0.27264000  1
  N  N404  1  0.72736000  0.56398000  0.68752000  1
  N  N405  1  0.97886000  0.31248000  0.43602000  1
  N  N406  1  0.56398000  0.72736000  0.68752000  1
  N  N407  1  0.97886000  0.31248000  0.27264000  1
  N  N408  1  0.76445000  0.51337000  0.02851000  1
  N  N409  1  0.30633000  0.97149000  0.48663000  1
  N  N410  1  0.51337000  0.76445000  0.02851000  1
  N  N411  1  0.30633000  0.97149000  0.23555000  1
  N  N412  1  0.76445000  0.51337000  0.69367000  1
  N  N413  1  0.97149000  0.30633000  0.48663000  1
  N  N414  1  0.51337000  0.76445000  0.69367000  1
  N  N415  1  0.97149000  0.30633000  0.23555000  1
  N  N416  1  0.68752000  0.56398000  0.02114000  1
  N  N417  1  0.27264000  0.97886000  0.43602000  1
  N  N418  1  0.56398000  0.68752000  0.02114000  1
  N  N419  1  0.27264000  0.97886000  0.31248000  1
  N  N420  1  0.68752000  0.56398000  0.72736000  1
  N  N421  1  0.97886000  0.27264000  0.43602000  1
  N  N422  1  0.56398000  0.68752000  0.72736000  1
  N  N423  1  0.97886000  0.27264000  0.31248000  1
  N  N424  1  0.69367000  0.51337000  0.02851000  1
  N  N425  1  0.23555000  0.97149000  0.48663000  1
  N  N426  1  0.51337000  0.69367000  0.02851000  1
  N  N427  1  0.23555000  0.97149000  0.30633000  1
  N  N428  1  0.69367000  0.51337000  0.76445000  1
  N  N429  1  0.97149000  0.23555000  0.48663000  1
  N  N430  1  0.51337000  0.69367000  0.76445000  1
  N  N431  1  0.97149000  0.23555000  0.30633000  1
  O  O432  1  0.01305000  0.92577000  0.69991000  1
  O  O433  1  0.63873000  0.30009000  0.07423000  1
  O  O434  1  0.92577000  0.01305000  0.69991000  1
  O  O435  1  0.63873000  0.30009000  0.98695000  1
  O  O436  1  0.01305000  0.92577000  0.36127000  1
  O  O437  1  0.30009000  0.63873000  0.07423000  1
  O  O438  1  0.92577000  0.01305000  0.36127000  1
  O  O439  1  0.30009000  0.63873000  0.98695000  1
  O  O440  1  0.01353000  0.92487000  0.77153000  1
  O  O441  1  0.70993000  0.22847000  0.07513000  1
  O  O442  1  0.92487000  0.01353000  0.77153000  1
  O  O443  1  0.70993000  0.22847000  0.98647000  1
  O  O444  1  0.01353000  0.92487000  0.29007000  1
  O  O445  1  0.22847000  0.70993000  0.07513000  1
  O  O446  1  0.92487000  0.01353000  0.29007000  1
  O  O447  1  0.22847000  0.70993000  0.98647000  1
  O  O448  1  0.01353000  0.77153000  0.92487000  1
  O  O449  1  0.70993000  0.07513000  0.22847000  1
  O  O450  1  0.77153000  0.01353000  0.92487000  1
  O  O451  1  0.70993000  0.07513000  0.98647000  1
  O  O452  1  0.01353000  0.77153000  0.29007000  1
  O  O453  1  0.07513000  0.70993000  0.22847000  1
  O  O454  1  0.77153000  0.01353000  0.29007000  1
  O  O455  1  0.07513000  0.70993000  0.98647000  1
  O  O456  1  0.01305000  0.69991000  0.92577000  1
  O  O457  1  0.63873000  0.07423000  0.30009000  1
  O  O458  1  0.69991000  0.01305000  0.92577000  1
  O  O459  1  0.63873000  0.07423000  0.98695000  1
  O  O460  1  0.01305000  0.69991000  0.36127000  1
  O  O461  1  0.07423000  0.63873000  0.30009000  1
  O  O462  1  0.69991000  0.01305000  0.36127000  1
  O  O463  1  0.07423000  0.63873000  0.98695000  1
  O  O464  1  0.92487000  0.77153000  0.01353000  1
  O  O465  1  0.70993000  0.98647000  0.22847000  1
  O  O466  1  0.77153000  0.92487000  0.01353000  1
  O  O467  1  0.70993000  0.98647000  0.07513000  1
  O  O468  1  0.92487000  0.77153000  0.29007000  1
  O  O469  1  0.98647000  0.70993000  0.22847000  1
  O  O470  1  0.77153000  0.92487000  0.29007000  1
  O  O471  1  0.98647000  0.70993000  0.07513000  1
  O  O472  1  0.01790000  0.66070000  0.66070000  1
  O  O473  1  0.33930000  0.33930000  0.33930000  1
  O  O474  1  0.66070000  0.01790000  0.66070000  1
  O  O475  1  0.33930000  0.33930000  0.98210000  1
  O  O476  1  0.92577000  0.69991000  0.01305000  1
  O  O477  1  0.63873000  0.98695000  0.30009000  1
  O  O478  1  0.69991000  0.92577000  0.01305000  1
  O  O479  1  0.63873000  0.98695000  0.07423000  1
  O  O480  1  0.92577000  0.69991000  0.36127000  1
  O  O481  1  0.98695000  0.63873000  0.30009000  1
  O  O482  1  0.69991000  0.92577000  0.36127000  1
  O  O483  1  0.98695000  0.63873000  0.07423000  1
  O  O484  1  0.01305000  0.36127000  0.92577000  1
  O  O485  1  0.30009000  0.07423000  0.63873000  1
  O  O486  1  0.01305000  0.36127000  0.69991000  1
  O  O487  1  0.07423000  0.30009000  0.63873000  1
  O  O488  1  0.36127000  0.01305000  0.92577000  1
  O  O489  1  0.30009000  0.07423000  0.98695000  1
  O  O490  1  0.36127000  0.01305000  0.69991000  1
  O  O491  1  0.07423000  0.30009000  0.98695000  1
  O  O492  1  0.66070000  0.66070000  0.01790000  1
  O  O493  1  0.33930000  0.98210000  0.33930000  1
  O  O494  1  0.66070000  0.66070000  0.66070000  1
  O  O495  1  0.98210000  0.33930000  0.33930000  1
  O  O496  1  0.01353000  0.29007000  0.92487000  1
  O  O497  1  0.22847000  0.07513000  0.70993000  1
  O  O498  1  0.01353000  0.29007000  0.77153000  1
  O  O499  1  0.07513000  0.22847000  0.70993000  1
  O  O500  1  0.29007000  0.01353000  0.92487000  1
  O  O501  1  0.22847000  0.07513000  0.98647000  1
  O  O502  1  0.29007000  0.01353000  0.77153000  1
  O  O503  1  0.07513000  0.22847000  0.98647000  1
  O  O504  1  0.92577000  0.36127000  0.01305000  1
  O  O505  1  0.30009000  0.98695000  0.63873000  1
  O  O506  1  0.92577000  0.36127000  0.69991000  1
  O  O507  1  0.98695000  0.30009000  0.63873000  1
  O  O508  1  0.36127000  0.92577000  0.01305000  1
  O  O509  1  0.30009000  0.98695000  0.07423000  1
  O  O510  1  0.36127000  0.92577000  0.69991000  1
  O  O511  1  0.98695000  0.30009000  0.07423000  1
  O  O512  1  0.92487000  0.29007000  0.01353000  1
  O  O513  1  0.22847000  0.98647000  0.70993000  1
  O  O514  1  0.92487000  0.29007000  0.77153000  1
  O  O515  1  0.98647000  0.22847000  0.70993000  1
  O  O516  1  0.29007000  0.92487000  0.01353000  1
  O  O517  1  0.22847000  0.98647000  0.07513000  1
  O  O518  1  0.29007000  0.92487000  0.77153000  1
  O  O519  1  0.98647000  0.22847000  0.07513000  1
  O  O520  1  0.77153000  0.29007000  0.01353000  1
  O  O521  1  0.07513000  0.98647000  0.70993000  1
  O  O522  1  0.77153000  0.29007000  0.92487000  1
  O  O523  1  0.98647000  0.07513000  0.70993000  1
  O  O524  1  0.29007000  0.77153000  0.01353000  1
  O  O525  1  0.07513000  0.98647000  0.22847000  1
  O  O526  1  0.29007000  0.77153000  0.92487000  1
  O  O527  1  0.98647000  0.07513000  0.22847000  1
  O  O528  1  0.69991000  0.36127000  0.01305000  1
  O  O529  1  0.07423000  0.98695000  0.63873000  1
  O  O530  1  0.69991000  0.36127000  0.92577000  1
  O  O531  1  0.98695000  0.07423000  0.63873000  1
  O  O532  1  0.36127000  0.69991000  0.01305000  1
  O  O533  1  0.07423000  0.98695000  0.30009000  1
  O  O534  1  0.36127000  0.69991000  0.92577000  1
  O  O535  1  0.98695000  0.07423000  0.30009000  1
