# generated using pymatgen
data_Mn3H34C54(N2O3)4
_symmetry_space_group_name_H-M   'P 1'
_cell_length_a   10.12500000
_cell_length_b   10.76640000
_cell_length_c   13.29280000
_cell_angle_alpha   86.52100000
_cell_angle_beta   73.15100000
_cell_angle_gamma   85.31700000
_symmetry_Int_Tables_number   1
_chemical_formula_structural   Mn3H34C54(N2O3)4
_chemical_formula_sum   'Mn3 H34 C54 N8 O12'
_cell_volume   1381.16977577
_cell_formula_units_Z   1
loop_
 _symmetry_equiv_pos_site_id
 _symmetry_equiv_pos_as_xyz
  1  'x, y, z'
loop_
 _atom_site_type_symbol
 _atom_site_label
 _atom_site_symmetry_multiplicity
 _atom_site_fract_x
 _atom_site_fract_y
 _atom_site_fract_z
 _atom_site_occupancy
  Mn  Mn0  1  0.00000000  0.00000000  0.00000000  1
  Mn  Mn1  1  0.13841000  0.40880000  0.69214000  1
  Mn  Mn2  1  0.86159000  0.59120000  0.30786000  1
  H  H3  1  0.03260000  0.65090000  0.56400000  1
  H  H4  1  0.10740000  0.18630000  0.47330000  1
  H  H5  1  0.13950000  0.89600000  0.29000000  1
  H  H6  1  0.15820000  0.70780000  0.01480000  1
  H  H7  1  0.16920000  0.88420000  0.72280000  1
  H  H8  1  0.17730000  0.02450000  0.57320000  1
  H  H9  1  0.18580000  0.04070000  0.16120000  1
  H  H10  1  0.21440000  0.67320000  0.78400000  1
  H  H11  1  0.23490000  0.40460000  0.17220000  1
  H  H12  1  0.33190000  0.52520000  0.91180000  1
  H  H13  1  0.34290000  0.01950000  0.94720000  1
  H  H14  1  0.37180000  0.35610000  0.28240000  1
  H  H15  1  0.38240000  0.59760000  0.33250000  1
  H  H16  1  0.42280000  0.15270000  0.32880000  1
  H  H17  1  0.45190000  0.33100000  0.91880000  1
  H  H18  1  0.46400000  0.06310000  0.72740000  1
  H  H19  1  0.48090000  0.14510000  0.04420000  1
  H  H20  1  0.51910000  0.85490000  0.95580000  1
  H  H21  1  0.53600000  0.93690000  0.27260000  1
  H  H22  1  0.54810000  0.66900000  0.08120000  1
  H  H23  1  0.57720000  0.84730000  0.67120000  1
  H  H24  1  0.61760000  0.40240000  0.66750000  1
  H  H25  1  0.62820000  0.64390000  0.71760000  1
  H  H26  1  0.65710000  0.98050000  0.05280000  1
  H  H27  1  0.66810000  0.47480000  0.08820000  1
  H  H28  1  0.76510000  0.59540000  0.82780000  1
  H  H29  1  0.78560000  0.32680000  0.21600000  1
  H  H30  1  0.81420000  0.95930000  0.83880000  1
  H  H31  1  0.82270000  0.97550000  0.42680000  1
  H  H32  1  0.83080000  0.11580000  0.27720000  1
  H  H33  1  0.84180000  0.29220000  0.98520000  1
  H  H34  1  0.86050000  0.10400000  0.71000000  1
  H  H35  1  0.89260000  0.81370000  0.52670000  1
  H  H36  1  0.96740000  0.34910000  0.43600000  1
  C  C37  1  0.04130000  0.90400000  0.55890000  1
  C  C38  1  0.06450000  0.11152000  0.48419000  1
  C  C39  1  0.07320000  0.68210000  0.61080000  1
  C  C40  1  0.10620000  0.01510000  0.54360000  1
  C  C41  1  0.11990000  0.65760000  0.32990000  1
  C  C42  1  0.12050000  0.25010000  0.07230000  1
  C  C43  1  0.14820000  0.81150000  0.69800000  1
  C  C44  1  0.17220000  0.69530000  0.73140000  1
  C  C45  1  0.19990000  0.22600000  0.15220000  1
  C  C46  1  0.22530000  0.86190000  0.29400000  1
  C  C47  1  0.22540000  0.10430000  0.18430000  1
  C  C48  1  0.22560000  0.76540000  0.99880000  1
  C  C49  1  0.24150000  0.73600000  0.31570000  1
  C  C50  1  0.25380000  0.32190000  0.19080000  1
  C  C51  1  0.30890000  0.07450000  0.25010000  1
  C  C52  1  0.32740000  0.93560000  0.96200000  1
  C  C53  1  0.33390000  0.94020000  0.27770000  1
  C  C54  1  0.33570000  0.29220000  0.25680000  1
  C  C55  1  0.36530000  0.17050000  0.28570000  1
  C  C56  1  0.37010000  0.68290000  0.31900000  1
  C  C57  1  0.37950000  0.30020000  0.70030000  1
  C  C58  1  0.39910000  0.51500000  0.94730000  1
  C  C59  1  0.42560000  0.84510000  0.96620000  1
  C  C60  1  0.42850000  0.61400000  0.99640000  1
  C  C61  1  0.46220000  0.88690000  0.28240000  1
  C  C62  1  0.47120000  0.39870000  0.95110000  1
  C  C63  1  0.48010000  0.75820000  0.30210000  1
  C  C64  1  0.51990000  0.24180000  0.69790000  1
  C  C65  1  0.52880000  0.60130000  0.04890000  1
  C  C66  1  0.53780000  0.11310000  0.71760000  1
  C  C67  1  0.57150000  0.38600000  0.00360000  1
  C  C68  1  0.57440000  0.15490000  0.03380000  1
  C  C69  1  0.60090000  0.48500000  0.05270000  1
  C  C70  1  0.62050000  0.69980000  0.29970000  1
  C  C71  1  0.62990000  0.31710000  0.68100000  1
  C  C72  1  0.63470000  0.82950000  0.71430000  1
  C  C73  1  0.66430000  0.70780000  0.74320000  1
  C  C74  1  0.66610000  0.05980000  0.72230000  1
  C  C75  1  0.67260000  0.06440000  0.03800000  1
  C  C76  1  0.69110000  0.92550000  0.74990000  1
  C  C77  1  0.74620000  0.67810000  0.80920000  1
  C  C78  1  0.75850000  0.26400000  0.68430000  1
  C  C79  1  0.77440000  0.23460000  0.00120000  1
  C  C80  1  0.77460000  0.89570000  0.81570000  1
  C  C81  1  0.77470000  0.13810000  0.70600000  1
  C  C82  1  0.80010000  0.77400000  0.84780000  1
  C  C83  1  0.82780000  0.30470000  0.26860000  1
  C  C84  1  0.85180000  0.18850000  0.30200000  1
  C  C85  1  0.87950000  0.74990000  0.92770000  1
  C  C86  1  0.88010000  0.34240000  0.67010000  1
  C  C87  1  0.89380000  0.98490000  0.45640000  1
  C  C88  1  0.92680000  0.31790000  0.38920000  1
  C  C89  1  0.93550000  0.88848000  0.51581000  1
  C  C90  1  0.95870000  0.09600000  0.44110000  1
  N  N91  1  0.08601000  0.80293000  0.61964000  1
  N  N92  1  0.12557000  0.61280000  0.67682000  1
  N  N93  1  0.20048000  0.88615000  0.98289000  1
  N  N94  1  0.36070000  0.73561000  0.98889000  1
  N  N95  1  0.63930000  0.26439000  0.01111000  1
  N  N96  1  0.79952000  0.11385000  0.01711000  1
  N  N97  1  0.87443000  0.38720000  0.32318000  1
  N  N98  1  0.91399000  0.19707000  0.38036000  1
  O  O99  1  0.02340000  0.70710000  0.29301000  1
  O  O100  1  0.08750000  0.15768000  0.03482000  1
  O  O101  1  0.09533000  0.36148000  0.04575000  1
  O  O102  1  0.11590000  0.55269000  0.37449000  1
  O  O103  1  0.27842000  0.23400000  0.71751000  1
  O  O104  1  0.36340000  0.41551000  0.68650000  1
  O  O105  1  0.63660000  0.58449000  0.31350000  1
  O  O106  1  0.72158000  0.76600000  0.28249000  1
  O  O107  1  0.88410000  0.44731000  0.62551000  1
  O  O108  1  0.90467000  0.63852000  0.95425000  1
  O  O109  1  0.91250000  0.84232000  0.96518000  1
  O  O110  1  0.97660000  0.29290000  0.70699000  1
