# generated using pymatgen
data_Cd3H8(C6O7)2
_symmetry_space_group_name_H-M   'P 1'
_cell_length_a   10.82000000
_cell_length_b   11.41600000
_cell_length_c   12.43200000
_cell_angle_alpha   87.44000000
_cell_angle_beta   72.45000000
_cell_angle_gamma   70.11000000
_symmetry_Int_Tables_number   1
_chemical_formula_structural   Cd3H8(C6O7)2
_chemical_formula_sum   'Cd6 H16 C24 O28'
_cell_volume   1373.92250690
_cell_formula_units_Z   2
loop_
 _symmetry_equiv_pos_site_id
 _symmetry_equiv_pos_as_xyz
  1  'x, y, z'
loop_
 _atom_site_type_symbol
 _atom_site_label
 _atom_site_symmetry_multiplicity
 _atom_site_fract_x
 _atom_site_fract_y
 _atom_site_fract_z
 _atom_site_occupancy
  Cd  Cd0  1  0.10697000  0.95352000  0.86729000  1
  Cd  Cd1  1  0.23466000  0.92872000  0.10909000  1
  Cd  Cd2  1  0.39456000  0.13639000  0.97917000  1
  Cd  Cd3  1  0.60544000  0.86361000  0.02083000  1
  Cd  Cd4  1  0.76534000  0.07128000  0.89091000  1
  Cd  Cd5  1  0.89303000  0.04648000  0.13271000  1
  H  H6  1  0.05410000  0.61590000  0.98040000  1
  H  H7  1  0.13400000  0.69220000  0.89720000  1
  H  H8  1  0.13430000  0.93140000  0.48450000  1
  H  H9  1  0.15700000  0.70250000  0.07790000  1
  H  H10  1  0.30180000  0.04810000  0.28290000  1
  H  H11  1  0.39280000  0.20380000  0.21450000  1
  H  H12  1  0.39930000  0.51150000  0.09840000  1
  H  H13  1  0.44210000  0.14500000  0.31690000  1
  H  H14  1  0.55790000  0.85500000  0.68310000  1
  H  H15  1  0.60070000  0.48850000  0.90160000  1
  H  H16  1  0.60720000  0.79620000  0.78550000  1
  H  H17  1  0.69820000  0.95190000  0.71710000  1
  H  H18  1  0.84300000  0.29750000  0.92210000  1
  H  H19  1  0.86570000  0.06860000  0.51550000  1
  H  H20  1  0.86600000  0.30780000  0.10280000  1
  H  H21  1  0.94590000  0.38410000  0.01960000  1
  C  C22  1  0.01050000  0.98980000  0.65210000  1
  C  C23  1  0.04410000  0.97650000  0.52650000  1
  C  C24  1  0.04930000  0.23640000  0.83430000  1
  C  C25  1  0.05640000  0.69910000  0.96390000  1
  C  C26  1  0.07310000  0.75790000  0.06290000  1
  C  C27  1  0.07450000  0.22210000  0.05750000  1
  C  C28  1  0.39670000  0.02430000  0.23210000  1
  C  C29  1  0.40030000  0.89370000  0.83140000  1
  C  C30  1  0.45110000  0.12890000  0.23850000  1
  C  C31  1  0.45780000  0.66920000  0.04840000  1
  C  C32  1  0.45990000  0.53770000  0.04060000  1
  C  C33  1  0.48740000  0.90880000  0.27680000  1
  C  C34  1  0.51260000  0.09120000  0.72320000  1
  C  C35  1  0.54010000  0.46230000  0.95940000  1
  C  C36  1  0.54220000  0.33080000  0.95160000  1
  C  C37  1  0.54890000  0.87110000  0.76150000  1
  C  C38  1  0.59970000  0.10630000  0.16860000  1
  C  C39  1  0.60330000  0.97570000  0.76790000  1
  C  C40  1  0.92550000  0.77790000  0.94250000  1
  C  C41  1  0.92690000  0.24210000  0.93710000  1
  C  C42  1  0.94360000  0.30090000  0.03610000  1
  C  C43  1  0.95070000  0.76360000  0.16570000  1
  C  C44  1  0.95590000  0.02350000  0.47350000  1
  C  C45  1  0.98950000  0.01020000  0.34790000  1
  O  O46  1  0.05430000  0.33350000  0.78780000  1
  O  O47  1  0.07750000  0.12140000  0.10500000  1
  O  O48  1  0.08660000  0.87690000  0.04230000  1
  O  O49  1  0.10740000  0.93450000  0.68800000  1
  O  O50  1  0.11280000  0.94650000  0.29140000  1
  O  O51  1  0.14670000  0.13310000  0.80080000  1
  O  O52  1  0.17850000  0.25690000  0.02530000  1
  O  O53  1  0.33333333  0.84470000  0.79310000  1
  O  O54  1  0.34510000  0.96090000  0.92320000  1
  O  O55  1  0.35360000  0.73430000  0.12110000  1
  O  O56  1  0.39570000  0.00160000  0.12090000  1
  O  O57  1  0.41660000  0.17400000  0.79400000  1
  O  O58  1  0.45120000  0.29460000  0.01520000  1
  O  O59  1  0.47440000  0.90160000  0.37760000  1
  O  O60  1  0.52560000  0.09840000  0.62240000  1
  O  O61  1  0.54880000  0.70540000  0.98480000  1
  O  O62  1  0.58340000  0.82600000  0.20600000  1
  O  O63  1  0.60430000  0.99840000  0.87910000  1
  O  O64  1  0.64640000  0.26570000  0.87890000  1
  O  O65  1  0.65490000  0.03910000  0.07680000  1
  O  O66  1  0.66666667  0.15530000  0.20690000  1
  O  O67  1  0.82150000  0.74310000  0.97470000  1
  O  O68  1  0.85330000  0.86690000  0.19920000  1
  O  O69  1  0.88720000  0.05350000  0.70860000  1
  O  O70  1  0.89260000  0.06550000  0.31200000  1
  O  O71  1  0.91340000  0.12310000  0.95770000  1
  O  O72  1  0.92250000  0.87860000  0.89500000  1
  O  O73  1  0.94570000  0.66650000  0.21220000  1
