# generated using pymatgen
data_LaC5O6
_symmetry_space_group_name_H-M   'P 1'
_cell_length_a   6.72400000
_cell_length_b   14.09600000
_cell_length_c   23.98400000
_cell_angle_alpha   90.00000000
_cell_angle_beta   90.00000000
_cell_angle_gamma   90.00000000
_symmetry_Int_Tables_number   1
_chemical_formula_structural   LaC5O6
_chemical_formula_sum   'La8 C40 O48'
_cell_volume   2273.23959194
_cell_formula_units_Z   8
loop_
 _symmetry_equiv_pos_site_id
 _symmetry_equiv_pos_as_xyz
  1  'x, y, z'
loop_
 _atom_site_type_symbol
 _atom_site_label
 _atom_site_symmetry_multiplicity
 _atom_site_fract_x
 _atom_site_fract_y
 _atom_site_fract_z
 _atom_site_occupancy
  La  La0  1  0.11769000  0.29411000  0.13399000  1
  La  La1  1  0.11769000  0.79411000  0.36601000  1
  La  La2  1  0.38231000  0.29411000  0.86601000  1
  La  La3  1  0.38231000  0.79411000  0.63399000  1
  La  La4  1  0.61769000  0.20589000  0.36601000  1
  La  La5  1  0.61769000  0.70589000  0.13399000  1
  La  La6  1  0.88231000  0.20589000  0.63399000  1
  La  La7  1  0.88231000  0.70589000  0.86601000  1
  C  C8  1  0.01060000  0.01290000  0.20950000  1
  C  C9  1  0.01060000  0.51290000  0.29050000  1
  C  C10  1  0.01520000  0.02690000  0.73380000  1
  C  C11  1  0.01520000  0.52690000  0.76620000  1
  C  C12  1  0.02450000  0.39110000  0.73250000  1
  C  C13  1  0.02450000  0.89110000  0.76750000  1
  C  C14  1  0.05660000  0.43360000  0.78760000  1
  C  C15  1  0.05660000  0.93360000  0.71240000  1
  C  C16  1  0.14040000  0.29650000  0.99140000  1
  C  C17  1  0.14040000  0.79650000  0.50860000  1
  C  C18  1  0.35960000  0.29650000  0.00860000  1
  C  C19  1  0.35960000  0.79650000  0.49140000  1
  C  C20  1  0.44340000  0.43360000  0.21240000  1
  C  C21  1  0.44340000  0.93360000  0.28760000  1
  C  C22  1  0.47550000  0.39110000  0.26750000  1
  C  C23  1  0.47550000  0.89110000  0.23250000  1
  C  C24  1  0.48480000  0.02690000  0.26620000  1
  C  C25  1  0.48480000  0.52690000  0.23380000  1
  C  C26  1  0.48940000  0.01290000  0.79050000  1
  C  C27  1  0.48940000  0.51290000  0.70950000  1
  C  C28  1  0.51060000  0.48710000  0.29050000  1
  C  C29  1  0.51060000  0.98710000  0.20950000  1
  C  C30  1  0.51520000  0.47310000  0.76620000  1
  C  C31  1  0.51520000  0.97310000  0.73380000  1
  C  C32  1  0.52450000  0.10890000  0.76750000  1
  C  C33  1  0.52450000  0.60890000  0.73250000  1
  C  C34  1  0.55660000  0.06640000  0.71240000  1
  C  C35  1  0.55660000  0.56640000  0.78760000  1
  C  C36  1  0.64040000  0.20350000  0.50860000  1
  C  C37  1  0.64040000  0.70350000  0.99140000  1
  C  C38  1  0.85960000  0.20350000  0.49140000  1
  C  C39  1  0.85960000  0.70350000  0.00860000  1
  C  C40  1  0.94340000  0.06640000  0.28760000  1
  C  C41  1  0.94340000  0.56640000  0.21240000  1
  C  C42  1  0.97550000  0.10890000  0.23250000  1
  C  C43  1  0.97550000  0.60890000  0.26750000  1
  C  C44  1  0.98480000  0.47310000  0.23380000  1
  C  C45  1  0.98480000  0.97310000  0.26620000  1
  C  C46  1  0.98940000  0.48710000  0.70950000  1
  C  C47  1  0.98940000  0.98710000  0.79050000  1
  O  O48  1  0.00590000  0.10940000  0.71420000  1
  O  O49  1  0.00590000  0.60940000  0.78580000  1
  O  O50  1  0.01240000  0.29410000  0.02920000  1
  O  O51  1  0.01240000  0.79410000  0.47080000  1
  O  O52  1  0.02480000  0.30860000  0.71340000  1
  O  O53  1  0.02480000  0.80860000  0.78660000  1
  O  O54  1  0.04490000  0.47940000  0.33740000  1
  O  O55  1  0.04490000  0.97940000  0.16260000  1
  O  O56  1  0.10480000  0.40350000  0.83530000  1
  O  O57  1  0.10480000  0.90350000  0.66470000  1
  O  O58  1  0.10570000  0.30060000  0.93975000  1
  O  O59  1  0.10570000  0.80060000  0.56025000  1
  O  O60  1  0.39430000  0.30060000  0.06025000  1
  O  O61  1  0.39430000  0.80060000  0.43975000  1
  O  O62  1  0.39520000  0.40350000  0.16470000  1
  O  O63  1  0.39520000  0.90350000  0.33530000  1
  O  O64  1  0.45510000  0.47940000  0.66260000  1
  O  O65  1  0.45510000  0.97940000  0.83740000  1
  O  O66  1  0.47520000  0.30860000  0.28660000  1
  O  O67  1  0.47520000  0.80860000  0.21340000  1
  O  O68  1  0.48760000  0.29410000  0.97080000  1
  O  O69  1  0.48760000  0.79410000  0.52920000  1
  O  O70  1  0.49410000  0.10940000  0.28580000  1
  O  O71  1  0.49410000  0.60940000  0.21420000  1
  O  O72  1  0.50590000  0.39060000  0.78580000  1
  O  O73  1  0.50590000  0.89060000  0.71420000  1
  O  O74  1  0.51240000  0.20590000  0.47080000  1
  O  O75  1  0.51240000  0.70590000  0.02920000  1
  O  O76  1  0.52480000  0.19140000  0.78660000  1
  O  O77  1  0.52480000  0.69140000  0.71340000  1
  O  O78  1  0.54490000  0.02060000  0.16260000  1
  O  O79  1  0.54490000  0.52060000  0.33740000  1
  O  O80  1  0.60480000  0.09650000  0.66470000  1
  O  O81  1  0.60480000  0.59650000  0.83530000  1
  O  O82  1  0.60570000  0.19940000  0.56025000  1
  O  O83  1  0.60570000  0.69940000  0.93975000  1
  O  O84  1  0.89430000  0.19940000  0.43975000  1
  O  O85  1  0.89430000  0.69940000  0.06025000  1
  O  O86  1  0.89520000  0.09650000  0.33530000  1
  O  O87  1  0.89520000  0.59650000  0.16470000  1
  O  O88  1  0.95510000  0.02060000  0.83740000  1
  O  O89  1  0.95510000  0.52060000  0.66260000  1
  O  O90  1  0.97520000  0.19140000  0.21340000  1
  O  O91  1  0.97520000  0.69140000  0.28660000  1
  O  O92  1  0.98760000  0.20590000  0.52920000  1
  O  O93  1  0.98760000  0.70590000  0.97080000  1
  O  O94  1  0.99410000  0.39060000  0.21420000  1
  O  O95  1  0.99410000  0.89060000  0.28580000  1
