# generated using pymatgen
data_MnH4(C2O)4
_symmetry_space_group_name_H-M   'P 1'
_cell_length_a   10.65700000
_cell_length_b   13.53690000
_cell_length_c   14.41730000
_cell_angle_alpha   76.98160000
_cell_angle_beta   68.30950000
_cell_angle_gamma   66.81950000
_symmetry_Int_Tables_number   1
_chemical_formula_structural   MnH4(C2O)4
_chemical_formula_sum   'Mn6 H24 C48 O24'
_cell_volume   1768.82381592
_cell_formula_units_Z   6
loop_
 _symmetry_equiv_pos_site_id
 _symmetry_equiv_pos_as_xyz
  1  'x, y, z'
loop_
 _atom_site_type_symbol
 _atom_site_label
 _atom_site_symmetry_multiplicity
 _atom_site_fract_x
 _atom_site_fract_y
 _atom_site_fract_z
 _atom_site_occupancy
  Mn  Mn0  1  0.00407000  0.96085000  0.89084000  1
  Mn  Mn1  1  0.28017000  0.75000000  0.75000000  1
  Mn  Mn2  1  0.35576000  0.53916000  0.60916000  1
  Mn  Mn3  1  0.64424000  0.46085000  0.39084000  1
  Mn  Mn4  1  0.71983000  0.25000000  0.25000000  1
  Mn  Mn5  1  0.99593000  0.03915000  0.10916000  1
  H  H6  1  0.04230000  0.66270000  0.94690000  1
  H  H7  1  0.08260000  0.37340000  0.88600000  1
  H  H8  1  0.15190000  0.83730000  0.55310000  1
  H  H9  1  0.15800000  0.87340000  0.38600000  1
  H  H10  1  0.20270000  0.18650000  0.74710000  1
  H  H11  1  0.23010000  0.81800000  0.15280000  1
  H  H12  1  0.27970000  0.59040000  0.99100000  1
  H  H13  1  0.29910000  0.31800000  0.65280000  1
  H  H14  1  0.36110000  0.90960000  0.50900000  1
  H  H15  1  0.36370000  0.68650000  0.24710000  1
  H  H16  1  0.40060000  0.45760000  0.09240000  1
  H  H17  1  0.45060000  0.04240000  0.40760000  1
  H  H18  1  0.54940000  0.95760000  0.59240000  1
  H  H19  1  0.59940000  0.54240000  0.90760000  1
  H  H20  1  0.63630000  0.31350000  0.75290000  1
  H  H21  1  0.63890000  0.09040000  0.49100000  1
  H  H22  1  0.70090000  0.68200000  0.34720000  1
  H  H23  1  0.72030000  0.40960000  0.00900000  1
  H  H24  1  0.76990000  0.18200000  0.84720000  1
  H  H25  1  0.79730000  0.81350000  0.25290000  1
  H  H26  1  0.84200000  0.12660000  0.61400000  1
  H  H27  1  0.84810000  0.16270000  0.44690000  1
  H  H28  1  0.91740000  0.62660000  0.11400000  1
  H  H29  1  0.95770000  0.33730000  0.05310000  1
  C  C30  1  0.00352000  0.02165000  0.39989000  1
  C  C31  1  0.00459000  0.04382000  0.29302000  1
  C  C32  1  0.02539000  0.59763000  0.96817000  1
  C  C33  1  0.04964000  0.42400000  0.93154000  1
  C  C34  1  0.07494000  0.52165000  0.89989000  1
  C  C35  1  0.09119000  0.90237000  0.53183000  1
  C  C36  1  0.09482000  0.92400000  0.43154000  1
  C  C37  1  0.15857000  0.54382000  0.79302000  1
  C  C38  1  0.16690000  0.80436000  0.99546000  1
  C  C39  1  0.24474000  0.71802000  0.06054000  1
  C  C40  1  0.26734000  0.74625000  0.13899000  1
  C  C41  1  0.29076000  0.16696000  0.69670000  1
  C  C42  1  0.29529000  0.60955000  0.04281000  1
  C  C43  1  0.29927000  0.97418000  0.73966000  1
  C  C44  1  0.34558000  0.66696000  0.19670000  1
  C  C45  1  0.34742000  0.24625000  0.63899000  1
  C  C46  1  0.36557000  0.05830000  0.67920000  1
  C  C47  1  0.36945000  0.52985000  0.10303000  1
  C  C48  1  0.39693000  0.55830000  0.17920000  1
  C  C49  1  0.44765000  0.89045000  0.45719000  1
  C  C50  1  0.46672000  0.69564000  0.50454000  1
  C  C51  1  0.47670000  0.21802000  0.56054000  1
  C  C52  1  0.48689000  0.47418000  0.23966000  1
  C  C53  1  0.49767000  0.02985000  0.60303000  1
  C  C54  1  0.50233000  0.97015000  0.39697000  1
  C  C55  1  0.51311000  0.52582000  0.76034000  1
  C  C56  1  0.52330000  0.78198000  0.43946000  1
  C  C57  1  0.53328000  0.30436000  0.49546000  1
  C  C58  1  0.55235000  0.10955000  0.54281000  1
  C  C59  1  0.60307000  0.44170000  0.82080000  1
  C  C60  1  0.63055000  0.47015000  0.89697000  1
  C  C61  1  0.63443000  0.94170000  0.32080000  1
  C  C62  1  0.65258000  0.75375000  0.36101000  1
  C  C63  1  0.65442000  0.33304000  0.80330000  1
  C  C64  1  0.70073000  0.02582000  0.26034000  1
  C  C65  1  0.70471000  0.39045000  0.95719000  1
  C  C66  1  0.70924000  0.83304000  0.30330000  1
  C  C67  1  0.73266000  0.25375000  0.86101000  1
  C  C68  1  0.75526000  0.28198000  0.93946000  1
  C  C69  1  0.83310000  0.19564000  0.00454000  1
  C  C70  1  0.84143000  0.45618000  0.20698000  1
  C  C71  1  0.90518000  0.07600000  0.56846000  1
  C  C72  1  0.90881000  0.09763000  0.46817000  1
  C  C73  1  0.92506000  0.47835000  0.10011000  1
  C  C74  1  0.95036000  0.57600000  0.06846000  1
  C  C75  1  0.97461000  0.40237000  0.03183000  1
  C  C76  1  0.99541000  0.95618000  0.70698000  1
  C  C77  1  0.99648000  0.97835000  0.60011000  1
  O  O78  1  0.07584000  0.86618000  0.73610000  1
  O  O79  1  0.08599000  0.97169000  0.23403000  1
  O  O80  1  0.09590000  0.89859000  0.02393000  1
  O  O81  1  0.16948000  0.78307000  0.91339000  1
  O  O82  1  0.17812000  0.63382000  0.76390000  1
  O  O83  1  0.18246000  0.00796000  0.80808000  1
  O  O84  1  0.20829000  0.47169000  0.73403000  1
  O  O85  1  0.36329000  0.87817000  0.71559000  1
  O  O86  1  0.36594000  0.71693000  0.58661000  1
  O  O87  1  0.45705000  0.62183000  0.78441000  1
  O  O88  1  0.48158000  0.39859000  0.52393000  1
  O  O89  1  0.49850000  0.49204000  0.69192000  1
  O  O90  1  0.50150000  0.50796000  0.30808000  1
  O  O91  1  0.51842000  0.60141000  0.47607000  1
  O  O92  1  0.54295000  0.37817000  0.21559000  1
  O  O93  1  0.63406000  0.28307000  0.41339000  1
  O  O94  1  0.63671000  0.12183000  0.28441000  1
  O  O95  1  0.79171000  0.52831000  0.26597000  1
  O  O96  1  0.81754000  0.99204000  0.19192000  1
  O  O97  1  0.82188000  0.36618000  0.23610000  1
  O  O98  1  0.83052000  0.21693000  0.08661000  1
  O  O99  1  0.90410000  0.10141000  0.97607000  1
  O  O100  1  0.91401000  0.02831000  0.76597000  1
  O  O101  1  0.92416000  0.13382000  0.26390000  1
