# generated using pymatgen
data_Cu2H24C19(NO)6
_symmetry_space_group_name_H-M   'P 1'
_cell_length_a   13.49200000
_cell_length_b   14.37700000
_cell_length_c   16.19100000
_cell_angle_alpha   90.00000000
_cell_angle_beta   90.00000000
_cell_angle_gamma   90.00000000
_symmetry_Int_Tables_number   1
_chemical_formula_structural   Cu2H24C19(NO)6
_chemical_formula_sum   'Cu8 H96 C76 N24 O24'
_cell_volume   3140.64087044
_cell_formula_units_Z   4
loop_
 _symmetry_equiv_pos_site_id
 _symmetry_equiv_pos_as_xyz
  1  'x, y, z'
loop_
 _atom_site_type_symbol
 _atom_site_label
 _atom_site_symmetry_multiplicity
 _atom_site_fract_x
 _atom_site_fract_y
 _atom_site_fract_z
 _atom_site_occupancy
  Cu  Cu0  1  0.07011000  0.54879000  0.08499000  1
  Cu  Cu1  1  0.20060000  0.29326000  0.33602000  1
  Cu  Cu2  1  0.29940000  0.70674000  0.83602000  1
  Cu  Cu3  1  0.42989000  0.45121000  0.58499000  1
  Cu  Cu4  1  0.57011000  0.95121000  0.91501000  1
  Cu  Cu5  1  0.70060000  0.20674000  0.66398000  1
  Cu  Cu6  1  0.79940000  0.79326000  0.16398000  1
  Cu  Cu7  1  0.92989000  0.04879000  0.41501000  1
  H  H8  1  0.00210000  0.35280000  0.52930000  1
  H  H9  1  0.00460000  0.85990000  0.40040000  1
  H  H10  1  0.00740000  0.76000000  0.83050000  1
  H  H11  1  0.02170000  0.04510000  0.20920000  1
  H  H12  1  0.03370000  0.26610000  0.05940000  1
  H  H13  1  0.05140000  0.20380000  0.90370000  1
  H  H14  1  0.05560000  0.85400000  0.79920000  1
  H  H15  1  0.06330000  0.68350000  0.32770000  1
  H  H16  1  0.06620000  0.42510000  0.47830000  1
  H  H17  1  0.07160000  0.20760000  0.83240000  1
  H  H18  1  0.07300000  0.80450000  0.46290000  1
  H  H19  1  0.08330000  0.41390000  0.57460000  1
  H  H20  1  0.08520000  0.49250000  0.74900000  1
  H  H21  1  0.09330000  0.59240000  0.52600000  1
  H  H22  1  0.11270000  0.38610000  0.73810000  1
  H  H23  1  0.11560000  0.78790000  0.85940000  1
  H  H24  1  0.11890000  0.59710000  0.36690000  1
  H  H25  1  0.12360000  0.54580000  0.90500000  1
  H  H26  1  0.14510000  0.26030000  0.55300000  1
  H  H27  1  0.14650000  0.68480000  0.49640000  1
  H  H28  1  0.16180000  0.64540000  0.28660000  1
  H  H29  1  0.19340000  0.45720000  0.77060000  1
  H  H30  1  0.21020000  0.60050000  0.53020000  1
  H  H31  1  0.22590000  0.36510000  0.16150000  1
  H  H32  1  0.27410000  0.63490000  0.66150000  1
  H  H33  1  0.28980000  0.39950000  0.03020000  1
  H  H34  1  0.30660000  0.54280000  0.27060000  1
  H  H35  1  0.33820000  0.35460000  0.78660000  1
  H  H36  1  0.35350000  0.31520000  0.99640000  1
  H  H37  1  0.35490000  0.73970000  0.05300000  1
  H  H38  1  0.37640000  0.45420000  0.40500000  1
  H  H39  1  0.38110000  0.40290000  0.86690000  1
  H  H40  1  0.38440000  0.21210000  0.35940000  1
  H  H41  1  0.38730000  0.61390000  0.23810000  1
  H  H42  1  0.40670000  0.40760000  0.02600000  1
  H  H43  1  0.41480000  0.50750000  0.24900000  1
  H  H44  1  0.41670000  0.58610000  0.07460000  1
  H  H45  1  0.42700000  0.19550000  0.96290000  1
  H  H46  1  0.42840000  0.79240000  0.33240000  1
  H  H47  1  0.43380000  0.57490000  0.97830000  1
  H  H48  1  0.43670000  0.31650000  0.82770000  1
  H  H49  1  0.44440000  0.14600000  0.29920000  1
  H  H50  1  0.44860000  0.79620000  0.40370000  1
  H  H51  1  0.46630000  0.73390000  0.55940000  1
  H  H52  1  0.47830000  0.95490000  0.70920000  1
  H  H53  1  0.49260000  0.24000000  0.33050000  1
  H  H54  1  0.49540000  0.14010000  0.90040000  1
  H  H55  1  0.49790000  0.64720000  0.02930000  1
  H  H56  1  0.50210000  0.14720000  0.47070000  1
  H  H57  1  0.50460000  0.64010000  0.59960000  1
  H  H58  1  0.50740000  0.74000000  0.16950000  1
  H  H59  1  0.52170000  0.45490000  0.79080000  1
  H  H60  1  0.53370000  0.23390000  0.94060000  1
  H  H61  1  0.55140000  0.29620000  0.09630000  1
  H  H62  1  0.55560000  0.64600000  0.20080000  1
  H  H63  1  0.56330000  0.81650000  0.67230000  1
  H  H64  1  0.56620000  0.07490000  0.52170000  1
  H  H65  1  0.57160000  0.29240000  0.16760000  1
  H  H66  1  0.57300000  0.69550000  0.53710000  1
  H  H67  1  0.58330000  0.08610000  0.42540000  1
  H  H68  1  0.58520000  0.00750000  0.25100000  1
  H  H69  1  0.59330000  0.90760000  0.47400000  1
  H  H70  1  0.61270000  0.11390000  0.26190000  1
  H  H71  1  0.61560000  0.71210000  0.14060000  1
  H  H72  1  0.61890000  0.90290000  0.63310000  1
  H  H73  1  0.62360000  0.95420000  0.09500000  1
  H  H74  1  0.64510000  0.23970000  0.44700000  1
  H  H75  1  0.64650000  0.81520000  0.50360000  1
  H  H76  1  0.66180000  0.85460000  0.71340000  1
  H  H77  1  0.69340000  0.04280000  0.22940000  1
  H  H78  1  0.71020000  0.89950000  0.46980000  1
  H  H79  1  0.72590000  0.13490000  0.83850000  1
  H  H80  1  0.77410000  0.86510000  0.33850000  1
  H  H81  1  0.78980000  0.10050000  0.96980000  1
  H  H82  1  0.80660000  0.95720000  0.72940000  1
  H  H83  1  0.83820000  0.14540000  0.21340000  1
  H  H84  1  0.85350000  0.18480000  0.00360000  1
  H  H85  1  0.85490000  0.76030000  0.94700000  1
  H  H86  1  0.87640000  0.04580000  0.59500000  1
  H  H87  1  0.88110000  0.09710000  0.13310000  1
  H  H88  1  0.88440000  0.28790000  0.64060000  1
  H  H89  1  0.88730000  0.88610000  0.76190000  1
  H  H90  1  0.90670000  0.09240000  0.97400000  1
  H  H91  1  0.91480000  0.99250000  0.75100000  1
  H  H92  1  0.91670000  0.91390000  0.92540000  1
  H  H93  1  0.92700000  0.30450000  0.03710000  1
  H  H94  1  0.92840000  0.70760000  0.66760000  1
  H  H95  1  0.93380000  0.92510000  0.02170000  1
  H  H96  1  0.93670000  0.18350000  0.17230000  1
  H  H97  1  0.94440000  0.35400000  0.70080000  1
  H  H98  1  0.94860000  0.70380000  0.59630000  1
  H  H99  1  0.96630000  0.76610000  0.44060000  1
  H  H100  1  0.97830000  0.54510000  0.29080000  1
  H  H101  1  0.99260000  0.26000000  0.66950000  1
  H  H102  1  0.99540000  0.35990000  0.09960000  1
  H  H103  1  0.99790000  0.85280000  0.97070000  1
  C  C104  1  0.00530000  0.82180000  0.44980000  1
  C  C105  1  0.03380000  0.25030000  0.86430000  1
  C  C106  1  0.03760000  0.37530000  0.98020000  1
  C  C107  1  0.04020000  0.56210000  0.26160000  1
  C  C108  1  0.05090000  0.34690000  0.89770000  1
  C  C109  1  0.05250000  0.16500000  0.32900000  1
  C  C110  1  0.05920000  0.19310000  0.41860000  1
  C  C111  1  0.06700000  0.38140000  0.52390000  1
  C  C112  1  0.06880000  0.78980000  0.81400000  1
  C  C113  1  0.07010000  0.72400000  0.66390000  1
  C  C114  1  0.09170000  0.42280000  0.85820000  1
  C  C115  1  0.10060000  0.47490000  0.24400000  1
  C  C116  1  0.10170000  0.62810000  0.31570000  1
  C  C117  1  0.11070000  0.74060000  0.74240000  1
  C  C118  1  0.12350000  0.44130000  0.77140000  1
  C  C119  1  0.14080000  0.67330000  0.62260000  1
  C  C120  1  0.14430000  0.30630000  0.50750000  1
  C  C121  1  0.14840000  0.63430000  0.53600000  1
  C  C122  1  0.24530000  0.35180000  0.49840000  1
  C  C123  1  0.25470000  0.64820000  0.99840000  1
  C  C124  1  0.35160000  0.36570000  0.03600000  1
  C  C125  1  0.35570000  0.69370000  0.00750000  1
  C  C126  1  0.35920000  0.32670000  0.12260000  1
  C  C127  1  0.37650000  0.55870000  0.27140000  1
  C  C128  1  0.38930000  0.25940000  0.24240000  1
  C  C129  1  0.39830000  0.37190000  0.81570000  1
  C  C130  1  0.39940000  0.52510000  0.74400000  1
  C  C131  1  0.40830000  0.57720000  0.35820000  1
  C  C132  1  0.42990000  0.27600000  0.16390000  1
  C  C133  1  0.43120000  0.21020000  0.31400000  1
  C  C134  1  0.43300000  0.61860000  0.02390000  1
  C  C135  1  0.44080000  0.80690000  0.91860000  1
  C  C136  1  0.44750000  0.83500000  0.82900000  1
  C  C137  1  0.44910000  0.65310000  0.39770000  1
  C  C138  1  0.45980000  0.43790000  0.76160000  1
  C  C139  1  0.46240000  0.62470000  0.48020000  1
  C  C140  1  0.46620000  0.74970000  0.36430000  1
  C  C141  1  0.49470000  0.17820000  0.94980000  1
  C  C142  1  0.50530000  0.67820000  0.55020000  1
  C  C143  1  0.53380000  0.24970000  0.13570000  1
  C  C144  1  0.53760000  0.12470000  0.01980000  1
  C  C145  1  0.54020000  0.93790000  0.73840000  1
  C  C146  1  0.55090000  0.15310000  0.10230000  1
  C  C147  1  0.55250000  0.33500000  0.67100000  1
  C  C148  1  0.55920000  0.30690000  0.58140000  1
  C  C149  1  0.56700000  0.11860000  0.47610000  1
  C  C150  1  0.56880000  0.71020000  0.18600000  1
  C  C151  1  0.57010000  0.77600000  0.33610000  1
  C  C152  1  0.59170000  0.07720000  0.14180000  1
  C  C153  1  0.60060000  0.02510000  0.75600000  1
  C  C154  1  0.60170000  0.87190000  0.68430000  1
  C  C155  1  0.61070000  0.75940000  0.25760000  1
  C  C156  1  0.62350000  0.05870000  0.22860000  1
  C  C157  1  0.64080000  0.82670000  0.37740000  1
  C  C158  1  0.64430000  0.19370000  0.49250000  1
  C  C159  1  0.64840000  0.86570000  0.46400000  1
  C  C160  1  0.74530000  0.14820000  0.50160000  1
  C  C161  1  0.75470000  0.85180000  0.00160000  1
  C  C162  1  0.85160000  0.13430000  0.96400000  1
  C  C163  1  0.85570000  0.80630000  0.99250000  1
  C  C164  1  0.85920000  0.17330000  0.87740000  1
  C  C165  1  0.87650000  0.94130000  0.72860000  1
  C  C166  1  0.88930000  0.24060000  0.75760000  1
  C  C167  1  0.89830000  0.12810000  0.18430000  1
  C  C168  1  0.89940000  0.97490000  0.25600000  1
  C  C169  1  0.90830000  0.92280000  0.64180000  1
  C  C170  1  0.92990000  0.22400000  0.83610000  1
  C  C171  1  0.93120000  0.28980000  0.68600000  1
  C  C172  1  0.93300000  0.88140000  0.97610000  1
  C  C173  1  0.94080000  0.69310000  0.08140000  1
  C  C174  1  0.94750000  0.66500000  0.17100000  1
  C  C175  1  0.94910000  0.84690000  0.60230000  1
  C  C176  1  0.95980000  0.06210000  0.23840000  1
  C  C177  1  0.96240000  0.87530000  0.51980000  1
  C  C178  1  0.96620000  0.75030000  0.63570000  1
  C  C179  1  0.99470000  0.32180000  0.05020000  1
  N  N180  1  0.01630000  0.60350000  0.18240000  1
  N  N181  1  0.06810000  0.46270000  0.98940000  1
  N  N182  1  0.10020000  0.49060000  0.91520000  1
  N  N183  1  0.12180000  0.26080000  0.42890000  1
  N  N184  1  0.20100000  0.70230000  0.74770000  1
  N  N185  1  0.21920000  0.66310000  0.67440000  1
  N  N186  1  0.28080000  0.33690000  0.17440000  1
  N  N187  1  0.29900000  0.29770000  0.24770000  1
  N  N188  1  0.37820000  0.73920000  0.92890000  1
  N  N189  1  0.39980000  0.50940000  0.41520000  1
  N  N190  1  0.43190000  0.53730000  0.48940000  1
  N  N191  1  0.48370000  0.39650000  0.68240000  1
  N  N192  1  0.51630000  0.89650000  0.81760000  1
  N  N193  1  0.56810000  0.03730000  0.01060000  1
  N  N194  1  0.60020000  0.00940000  0.08480000  1
  N  N195  1  0.62180000  0.23920000  0.57110000  1
  N  N196  1  0.70100000  0.79770000  0.25230000  1
  N  N197  1  0.71920000  0.83690000  0.32560000  1
  N  N198  1  0.78080000  0.16310000  0.82560000  1
  N  N199  1  0.79900000  0.20230000  0.75230000  1
  N  N200  1  0.87820000  0.76080000  0.07110000  1
  N  N201  1  0.89980000  0.99060000  0.58480000  1
  N  N202  1  0.93190000  0.96270000  0.51060000  1
  N  N203  1  0.98370000  0.10350000  0.31760000  1
  O  O204  1  0.00700000  0.15110000  0.47170000  1
  O  O205  1  0.11140000  0.20170000  0.27630000  1
  O  O206  1  0.12180000  0.45740000  0.16900000  1
  O  O207  1  0.12720000  0.42720000  0.30330000  1
  O  O208  1  0.21540000  0.64900000  0.92520000  1
  O  O209  1  0.21830000  0.61000000  0.05880000  1
  O  O210  1  0.28170000  0.39000000  0.55880000  1
  O  O211  1  0.28460000  0.35100000  0.42520000  1
  O  O212  1  0.37280000  0.57280000  0.80330000  1
  O  O213  1  0.37820000  0.54260000  0.66900000  1
  O  O214  1  0.38860000  0.79830000  0.77630000  1
  O  O215  1  0.49300000  0.84890000  0.97170000  1
  O  O216  1  0.50700000  0.34890000  0.52830000  1
  O  O217  1  0.61140000  0.29830000  0.72370000  1
  O  O218  1  0.62180000  0.04260000  0.83100000  1
  O  O219  1  0.62720000  0.07280000  0.69670000  1
  O  O220  1  0.71540000  0.85100000  0.07480000  1
  O  O221  1  0.71830000  0.89000000  0.94120000  1
  O  O222  1  0.78170000  0.11000000  0.44120000  1
  O  O223  1  0.78460000  0.14900000  0.57480000  1
  O  O224  1  0.87280000  0.92720000  0.19670000  1
  O  O225  1  0.87820000  0.95740000  0.33100000  1
  O  O226  1  0.88860000  0.70170000  0.22370000  1
  O  O227  1  0.99300000  0.65110000  0.02830000  1
