# generated using pymatgen
data_Fe3H9C24N3O13
_symmetry_space_group_name_H-M   'P 1'
_cell_length_a   38.14281543
_cell_length_b   38.14240000
_cell_length_c   38.14240000
_cell_angle_alpha   109.47100000
_cell_angle_beta   109.47144127
_cell_angle_gamma   109.47144127
_symmetry_Int_Tables_number   1
_chemical_formula_structural   Fe3H9C24N3O13
_chemical_formula_sum   'Fe96 H288 C768 N96 O416'
_cell_volume   42717.48796300
_cell_formula_units_Z   32
loop_
 _symmetry_equiv_pos_site_id
 _symmetry_equiv_pos_as_xyz
  1  'x, y, z'
loop_
 _atom_site_type_symbol
 _atom_site_label
 _atom_site_symmetry_multiplicity
 _atom_site_fract_x
 _atom_site_fract_y
 _atom_site_fract_z
 _atom_site_occupancy
  Fe  Fe0  1  0.52850000  0.28040000  0.54410000  1
  Fe  Fe1  1  0.43587000  0.21757000  0.45150000  1
  Fe  Fe2  1  0.25190000  0.23630000  0.28040000  1
  Fe  Fe3  1  0.70219000  0.26310000  0.73089000  1
  Fe  Fe4  1  0.22066000  0.29760000  0.24970000  1
  Fe  Fe5  1  0.73089000  0.20219000  0.76310000  1
  Fe  Fe6  1  0.98440000  0.74810000  0.02850000  1
  Fe  Fe7  1  0.92306000  0.22066000  0.97096000  1
  Fe  Fe8  1  0.01563000  0.28170000  0.06413000  1
  Fe  Fe9  1  0.23690000  0.76911000  0.29781000  1
  Fe  Fe10  1  0.71830000  0.73393000  0.78243000  1
  Fe  Fe11  1  0.47096000  0.75030000  0.54790000  1
  Fe  Fe12  1  0.06091000  0.03221000  0.26310000  1
  Fe  Fe13  1  0.72066000  0.47096000  0.92306000  1
  Fe  Fe14  1  0.73393000  0.01563000  0.95150000  1
  Fe  Fe15  1  0.51563000  0.45150000  0.73393000  1
  Fe  Fe16  1  0.02850000  0.48440000  0.24810000  1
  Fe  Fe17  1  0.25030000  0.04790000  0.47096000  1
  Fe  Fe18  1  0.97130000  0.93909000  0.20219000  1
  Fe  Fe19  1  0.78170000  0.56413000  0.01563000  1
  Fe  Fe20  1  0.54410000  0.02850000  0.78040000  1
  Fe  Fe21  1  0.20219000  0.47130000  0.43909000  1
  Fe  Fe22  1  0.51560000  0.54410000  0.76370000  1
  Fe  Fe23  1  0.70240000  0.92306000  0.95210000  1
  Fe  Fe24  1  0.02904000  0.57694000  0.27934000  1
  Fe  Fe25  1  0.21960000  0.95590000  0.47150000  1
  Fe  Fe26  1  0.96779000  0.02870000  0.23089000  1
  Fe  Fe27  1  0.75190000  0.47150000  0.01560000  1
  Fe  Fe28  1  0.45150000  0.93587000  0.71757000  1
  Fe  Fe29  1  0.26310000  0.56091000  0.53221000  1
  Fe  Fe30  1  0.42306000  0.45210000  0.70240000  1
  Fe  Fe31  1  0.76370000  0.01560000  0.04410000  1
  Fe  Fe32  1  0.28243000  0.04850000  0.56413000  1
  Fe  Fe33  1  0.93587000  0.48437000  0.21830000  1
  Fe  Fe34  1  0.45210000  0.02904000  0.74970000  1
  Fe  Fe35  1  0.23089000  0.46779000  0.52870000  1
  Fe  Fe36  1  0.79760000  0.74970000  0.22066000  1
  Fe  Fe37  1  0.04850000  0.76607000  0.48437000  1
  Fe  Fe38  1  0.52870000  0.73089000  0.96779000  1
  Fe  Fe39  1  0.78243000  0.21830000  0.23393000  1
  Fe  Fe40  1  0.75030000  0.27934000  0.20240000  1
  Fe  Fe41  1  0.28040000  0.75190000  0.73630000  1
  Fe  Fe42  1  0.56091000  0.29781000  0.02870000  1
  Fe  Fe43  1  0.95210000  0.20240000  0.42306000  1
  Fe  Fe44  1  0.46779000  0.23690000  0.93909000  1
  Fe  Fe45  1  0.04410000  0.26370000  0.51560000  1
  Fe  Fe46  1  0.23393000  0.28243000  0.71830000  1
  Fe  Fe47  1  0.26370000  0.21960000  0.74810000  1
  Fe  Fe48  1  0.73630000  0.78040000  0.25190000  1
  Fe  Fe49  1  0.76607000  0.71757000  0.28170000  1
  Fe  Fe50  1  0.95590000  0.73630000  0.48440000  1
  Fe  Fe51  1  0.53221000  0.76310000  0.06091000  1
  Fe  Fe52  1  0.04790000  0.79760000  0.57694000  1
  Fe  Fe53  1  0.43909000  0.70219000  0.97130000  1
  Fe  Fe54  1  0.71960000  0.24810000  0.26370000  1
  Fe  Fe55  1  0.24970000  0.72066000  0.79760000  1
  Fe  Fe56  1  0.21757000  0.78170000  0.76607000  1
  Fe  Fe57  1  0.47130000  0.26911000  0.03221000  1
  Fe  Fe58  1  0.95150000  0.23393000  0.51563000  1
  Fe  Fe59  1  0.20240000  0.25030000  0.77934000  1
  Fe  Fe60  1  0.76911000  0.53221000  0.47130000  1
  Fe  Fe61  1  0.54790000  0.97096000  0.25030000  1
  Fe  Fe62  1  0.06413000  0.51563000  0.78170000  1
  Fe  Fe63  1  0.71757000  0.95150000  0.43587000  1
  Fe  Fe64  1  0.23630000  0.98440000  0.95590000  1
  Fe  Fe65  1  0.57694000  0.54790000  0.29760000  1
  Fe  Fe66  1  0.73690000  0.43909000  0.46779000  1
  Fe  Fe67  1  0.54850000  0.06413000  0.28243000  1
  Fe  Fe68  1  0.24810000  0.52850000  0.98440000  1
  Fe  Fe69  1  0.03221000  0.97130000  0.76911000  1
  Fe  Fe70  1  0.78040000  0.04410000  0.52850000  1
  Fe  Fe71  1  0.97096000  0.42306000  0.72066000  1
  Fe  Fe72  1  0.29760000  0.07694000  0.04790000  1
  Fe  Fe73  1  0.48440000  0.45590000  0.23630000  1
  Fe  Fe74  1  0.79781000  0.52870000  0.56091000  1
  Fe  Fe75  1  0.45590000  0.97150000  0.21960000  1
  Fe  Fe76  1  0.21830000  0.43587000  0.98437000  1
  Fe  Fe77  1  0.02870000  0.06091000  0.79781000  1
  Fe  Fe78  1  0.74970000  0.95210000  0.52904000  1
  Fe  Fe79  1  0.97150000  0.51560000  0.75190000  1
  Fe  Fe80  1  0.48437000  0.54850000  0.26607000  1
  Fe  Fe81  1  0.26607000  0.98437000  0.04850000  1
  Fe  Fe82  1  0.27934000  0.52904000  0.07694000  1
  Fe  Fe83  1  0.93909000  0.96779000  0.73690000  1
  Fe  Fe84  1  0.52904000  0.24970000  0.45210000  1
  Fe  Fe85  1  0.28170000  0.26607000  0.21757000  1
  Fe  Fe86  1  0.76310000  0.23089000  0.70219000  1
  Fe  Fe87  1  0.98437000  0.71830000  0.93587000  1
  Fe  Fe88  1  0.07694000  0.77934000  0.02904000  1
  Fe  Fe89  1  0.01560000  0.25190000  0.97150000  1
  Fe  Fe90  1  0.26911000  0.79781000  0.23690000  1
  Fe  Fe91  1  0.77934000  0.70240000  0.75030000  1
  Fe  Fe92  1  0.29781000  0.73690000  0.26911000  1
  Fe  Fe93  1  0.74810000  0.76370000  0.71960000  1
  Fe  Fe94  1  0.56413000  0.78243000  0.54850000  1
  Fe  Fe95  1  0.47150000  0.71960000  0.45590000  1
  H  H96  1  0.68030000  0.07040000  0.68110000  1
  H  H97  1  0.78580000  0.39100000  0.78740000  1
  H  H98  1  0.19630000  0.10670000  0.19840000  1
  H  H99  1  0.30810000  0.42990000  0.31060000  1
  H  H100  1  0.87090000  0.73120000  0.87770000  1
  H  H101  1  0.14090000  0.77170000  0.14920000  1
  H  H102  1  0.39060000  0.58770000  0.40670000  1
  H  H103  1  0.60680000  0.91010000  0.62290000  1
  H  H104  1  0.87160000  0.09000000  0.88980000  1
  H  H105  1  0.08830000  0.40940000  0.10750000  1
  H  H106  1  0.62180000  0.74960000  0.64560000  1
  H  H107  1  0.36890000  0.74640000  0.39590000  1
  H  H108  1  0.80810000  0.49750000  0.87820000  1
  H  H109  1  0.11070000  0.00080000  0.18110000  1
  H  H110  1  0.10940000  0.51610000  0.19710000  1
  H  H111  1  0.39250000  0.30190000  0.48080000  1
  H  H112  1  0.50210000  0.19840000  0.59170000  1
  H  H113  1  0.78720000  0.98390000  0.87710000  1
  H  H114  1  0.29980000  0.01820000  0.38980000  1
  H  H115  1  0.58830000  0.48080000  0.67890000  1
  H  H116  1  0.91040000  0.80370000  0.00210000  1
  H  H117  1  0.01610000  0.69710000  0.10940000  1
  H  H118  1  0.78740000  0.28580000  0.89100000  1
  H  H119  1  0.87220000  0.62180000  0.97620000  1
  H  H120  1  0.02700000  0.87750000  0.13110000  1
  H  H121  1  0.10900000  0.71260000  0.21420000  1
  H  H122  1  0.59170000  0.00210000  0.69840000  1
  H  H123  1  0.80330000  0.78720000  0.91010000  1
  H  H124  1  0.59060000  0.67890000  0.69810000  1
  H  H125  1  0.28580000  0.49840000  0.39480000  1
  H  H126  1  0.30290000  0.31900000  0.41230000  1
  H  H127  1  0.57040000  0.18110000  0.68030000  1
  H  H128  1  0.09000000  0.21840000  0.20020000  1
  H  H129  1  0.31890000  0.81970000  0.42960000  1
  H  H130  1  0.87820000  0.30810000  0.99750000  1
  H  H131  1  0.49750000  0.68940000  0.61930000  1
  H  H132  1  0.62780000  0.60400000  0.74960000  1
  H  H133  1  0.73120000  0.86030000  0.85350000  1
  H  H134  1  0.14920000  0.64090000  0.27170000  1
  H  H135  1  0.24640000  0.89590000  0.36890000  1
  H  H136  1  0.98390000  0.19670000  0.10680000  1
  H  H137  1  0.47620000  0.35440000  0.60400000  1
  H  H138  1  0.38980000  0.79980000  0.51820000  1
  H  H139  1  0.37770000  0.14650000  0.50680000  1
  H  H140  1  0.72830000  0.35080000  0.85910000  1
  H  H141  1  0.12250000  0.14950000  0.25360000  1
  H  H142  1  0.50680000  0.87770000  0.64650000  1
  H  H143  1  0.35080000  0.62250000  0.49170000  1
  H  H144  1  0.97620000  0.37220000  0.12180000  1
  H  H145  1  0.86030000  0.12910000  0.00680000  1
  H  H146  1  0.22830000  0.36920000  0.37750000  1
  H  H147  1  0.60410000  0.13110000  0.75360000  1
  H  H148  1  0.90940000  0.60750000  0.08830000  1
  H  H149  1  0.89010000  0.88930000  0.07040000  1
  H  H150  1  0.80290000  0.39060000  0.98390000  1
  H  H151  1  0.99920000  0.10990000  0.18030000  1
  H  H152  1  0.00250000  0.62180000  0.19190000  1
  H  H153  1  0.37820000  0.38070000  0.57010000  1
  H  H154  1  0.30160000  0.90830000  0.49790000  1
  H  H155  1  0.41010000  0.12290000  0.60680000  1
  H  H156  1  0.48390000  0.59330000  0.68100000  1
  H  H157  1  0.89250000  0.41170000  0.09060000  1
  H  H158  1  0.89330000  0.08960000  0.09170000  1
  H  H159  1  0.78160000  0.87160000  0.98180000  1
  H  H160  1  0.39100000  0.60520000  0.60360000  1
  H  H161  1  0.37710000  0.89320000  0.58990000  1
  H  H162  1  0.28740000  0.39640000  0.50160000  1
  H  H163  1  0.48180000  0.11020000  0.70020000  1
  H  H164  1  0.12250000  0.99170000  0.35080000  1
  H  H165  1  0.62910000  0.50680000  0.86030000  1
  H  H166  1  0.13110000  0.52700000  0.37750000  1
  H  H167  1  0.87820000  0.52380000  0.12780000  1
  H  H168  1  0.60400000  0.97620000  0.85440000  1
  H  H169  1  0.85050000  0.97300000  0.10410000  1
  H  H170  1  0.35350000  0.99320000  0.62230000  1
  H  H171  1  0.35910000  0.50830000  0.63080000  1
  H  H172  1  0.59000000  0.38980000  0.87160000  1
  H  H173  1  0.10520000  0.10360000  0.39100000  1
  H  H174  1  0.69670000  0.60680000  0.98390000  1
  H  H175  1  0.99840000  0.89480000  0.28580000  1
  H  H176  1  0.11020000  0.62840000  0.41000000  1
  H  H177  1  0.00210000  0.41040000  0.30370000  1
  H  H178  1  0.67890000  0.08830000  0.98080000  1
  H  H179  1  0.08770000  0.90670000  0.39060000  1
  H  H180  1  0.48390000  0.37710000  0.78720000  1
  H  H181  1  0.58960000  0.59170000  0.89330000  1
  H  H182  1  0.18940000  0.11930000  0.49750000  1
  H  H183  1  0.57010000  0.87820000  0.88070000  1
  H  H184  1  0.07040000  0.39010000  0.38930000  1
  H  H185  1  0.59330000  0.10940000  0.91230000  1
  H  H186  1  0.18110000  0.61070000  0.50080000  1
  H  H187  1  0.48080000  0.89250000  0.80190000  1
  H  H188  1  0.62250000  0.36890000  0.97300000  1
  H  H189  1  0.00830000  0.13080000  0.35910000  1
  H  H190  1  0.87770000  0.37090000  0.23120000  1
  H  H191  1  0.74960000  0.12780000  0.10400000  1
  H  H192  1  0.86920000  0.87750000  0.22830000  1
  H  H193  1  0.76880000  0.62230000  0.12910000  1
  H  H194  1  0.10410000  0.35050000  0.47300000  1
  H  H195  1  0.50830000  0.14920000  0.87750000  1
  H  H196  1  0.36030000  0.35350000  0.73120000  1
  H  H197  1  0.71840000  0.70020000  0.09000000  1
  H  H198  1  0.24960000  0.14560000  0.62180000  1
  H  H199  1  0.91010000  0.30330000  0.28720000  1
  H  H200  1  0.47300000  0.60410000  0.85050000  1
  H  H201  1  0.63080000  0.85910000  0.00830000  1
  H  H202  1  0.99320000  0.63970000  0.37090000  1
  H  H203  1  0.14560000  0.89600000  0.52380000  1
  H  H204  1  0.92990000  0.81060000  0.30810000  1
  H  H205  1  0.68940000  0.19190000  0.07010000  1
  H  H206  1  0.60990000  0.68030000  0.99920000  1
  H  H207  1  0.98180000  0.28160000  0.37160000  1
  H  H208  1  0.49920000  0.31890000  0.88930000  1
  H  H209  1  0.09330000  0.18100000  0.48390000  1
  H  H210  1  0.89640000  0.00160000  0.28740000  1
  H  H211  1  0.01920000  0.82110000  0.41170000  1
  H  H212  1  0.12290000  0.71280000  0.51610000  1
  H  H213  1  0.69630000  0.49790000  0.08960000  1
  H  H214  1  0.50160000  0.78740000  0.89640000  1
  H  H215  1  0.25360000  0.62250000  0.64950000  1
  H  H216  1  0.35440000  0.87820000  0.75040000  1
  H  H217  1  0.60520000  0.21420000  0.00160000  1
  H  H218  1  0.41230000  0.80290000  0.81900000  1
  H  H219  1  0.19840000  0.69630000  0.60670000  1
  H  H220  1  0.19810000  0.01920000  0.60750000  1
  H  H221  1  0.37160000  0.48180000  0.78160000  1
  H  H222  1  0.89320000  0.51610000  0.30330000  1
  H  H223  1  0.39330000  0.30160000  0.80370000  1
  H  H224  1  0.17890000  0.19810000  0.59060000  1
  H  H225  1  0.68100000  0.98390000  0.09330000  1
  H  H226  1  0.18030000  0.49920000  0.60990000  1
  H  H227  1  0.38070000  0.00250000  0.81060000  1
  H  H228  1  0.64950000  0.75360000  0.12250000  1
  H  H229  1  0.89600000  0.75040000  0.37220000  1
  H  H230  1  0.69810000  0.09060000  0.17890000  1
  H  H231  1  0.79980000  0.41000000  0.28160000  1
  H  H232  1  0.81900000  0.91230000  0.30290000  1
  H  H233  1  0.71280000  0.58990000  0.19670000  1
  H  H234  1  0.37750000  0.72830000  0.86920000  1
  H  H235  1  0.14650000  0.76880000  0.63970000  1
  H  H236  1  0.88070000  0.07010000  0.37820000  1
  H  H237  1  0.09170000  0.39330000  0.58960000  1
  H  H238  1  0.39640000  0.10900000  0.89480000  1
  H  H239  1  0.61070000  0.42960000  0.10990000  1
  H  H240  1  0.38930000  0.57040000  0.89010000  1
  H  H241  1  0.60360000  0.89100000  0.10520000  1
  H  H242  1  0.90830000  0.60670000  0.41040000  1
  H  H243  1  0.11930000  0.92990000  0.62180000  1
  H  H244  1  0.85350000  0.23120000  0.36030000  1
  H  H245  1  0.62250000  0.27170000  0.13080000  1
  H  H246  1  0.28720000  0.41010000  0.80330000  1
  H  H247  1  0.18100000  0.08770000  0.69710000  1
  H  H248  1  0.20020000  0.59000000  0.71840000  1
  H  H249  1  0.30190000  0.90940000  0.82110000  1
  H  H250  1  0.10400000  0.24960000  0.62780000  1
  H  H251  1  0.35050000  0.24640000  0.87750000  1
  H  H252  1  0.61930000  0.99750000  0.18940000  1
  H  H253  1  0.81970000  0.50080000  0.39010000  1
  H  H254  1  0.31900000  0.01610000  0.90670000  1
  H  H255  1  0.82110000  0.80190000  0.40940000  1
  H  H256  1  0.60670000  0.69840000  0.19630000  1
  H  H257  1  0.10680000  0.48390000  0.69670000  1
  H  H258  1  0.62840000  0.51820000  0.21840000  1
  H  H259  1  0.80190000  0.98080000  0.39250000  1
  H  H260  1  0.80160000  0.30370000  0.39330000  1
  H  H261  1  0.58770000  0.19710000  0.18100000  1
  H  H262  1  0.39480000  0.78580000  0.99840000  1
  H  H263  1  0.64560000  0.12180000  0.24960000  1
  H  H264  1  0.74640000  0.37750000  0.35050000  1
  H  H265  1  0.49840000  0.21260000  0.10360000  1
  H  H266  1  0.30370000  0.50210000  0.91040000  1
  H  H267  1  0.87710000  0.28720000  0.48390000  1
  H  H268  1  0.98080000  0.17890000  0.58830000  1
  H  H269  1  0.10360000  0.99840000  0.71260000  1
  H  H270  1  0.90670000  0.81900000  0.51610000  1
  H  H271  1  0.50080000  0.68110000  0.11070000  1
  H  H272  1  0.01820000  0.71840000  0.62840000  1
  H  H273  1  0.39010000  0.31970000  0.00080000  1
  H  H274  1  0.31060000  0.80810000  0.92990000  1
  H  H275  1  0.07010000  0.18940000  0.69190000  1
  H  H276  1  0.85440000  0.10400000  0.47620000  1
  H  H277  1  0.00680000  0.36030000  0.62910000  1
  H  H278  1  0.36920000  0.14090000  0.99170000  1
  H  H279  1  0.52700000  0.39590000  0.14950000  1
  H  H280  1  0.08990000  0.69670000  0.71280000  1
  H  H281  1  0.75040000  0.85440000  0.37820000  1
  H  H282  1  0.28160000  0.29980000  0.91000000  1
  H  H283  1  0.63970000  0.64650000  0.26880000  1
  H  H284  1  0.49170000  0.85080000  0.12250000  1
  H  H285  1  0.89590000  0.64950000  0.52700000  1
  H  H286  1  0.23120000  0.37770000  0.87090000  1
  H  H287  1  0.13080000  0.12250000  0.77170000  1
  H  H288  1  0.25040000  0.87220000  0.89600000  1
  H  H289  1  0.12230000  0.62910000  0.76880000  1
  H  H290  1  0.99170000  0.86920000  0.64090000  1
  H  H291  1  0.37750000  0.63110000  0.02700000  1
  H  H292  1  0.51920000  0.10750000  0.19810000  1
  H  H293  1  0.81890000  0.38930000  0.49920000  1
  H  H294  1  0.40670000  0.89060000  0.08770000  1
  H  H295  1  0.92960000  0.60990000  0.61070000  1
  H  H296  1  0.42990000  0.12180000  0.11930000  1
  H  H297  1  0.81060000  0.88070000  0.50250000  1
  H  H298  1  0.41040000  0.40830000  0.10670000  1
  H  H299  1  0.51610000  0.62290000  0.21280000  1
  H  H300  1  0.91230000  0.09330000  0.60940000  1
  H  H301  1  0.32110000  0.91170000  0.01920000  1
  H  H302  1  0.99790000  0.58960000  0.69630000  1
  H  H303  1  0.88980000  0.37160000  0.59000000  1
  H  H304  1  0.00160000  0.10520000  0.71420000  1
  H  H305  1  0.30330000  0.39320000  0.01610000  1
  H  H306  1  0.89480000  0.89640000  0.60900000  1
  H  H307  1  0.41000000  0.61020000  0.12840000  1
  H  H308  1  0.64090000  0.49170000  0.36920000  1
  H  H309  1  0.64650000  0.00680000  0.37770000  1
  H  H310  1  0.14950000  0.02700000  0.89590000  1
  H  H311  1  0.39600000  0.02380000  0.14560000  1
  H  H312  1  0.12180000  0.47620000  0.87220000  1
  H  H313  1  0.86890000  0.47300000  0.62250000  1
  H  H314  1  0.37090000  0.49320000  0.13970000  1
  H  H315  1  0.87750000  0.00830000  0.64920000  1
  H  H316  1  0.51820000  0.88980000  0.29980000  1
  H  H317  1  0.71260000  0.60360000  0.49840000  1
  H  H318  1  0.62290000  0.10680000  0.41010000  1
  H  H319  1  0.60900000  0.39480000  0.39640000  1
  H  H320  1  0.21840000  0.12840000  0.01820000  1
  H  H321  1  0.10670000  0.91040000  0.90830000  1
  H  H322  1  0.10750000  0.58830000  0.90940000  1
  H  H323  1  0.51610000  0.40670000  0.31900000  1
  H  H324  1  0.58990000  0.87710000  0.39320000  1
  H  H325  1  0.69840000  0.09170000  0.50210000  1
  H  H326  1  0.62180000  0.61930000  0.42990000  1
  H  H327  1  0.99750000  0.37820000  0.80810000  1
  H  H328  1  0.00080000  0.89010000  0.81970000  1
  H  H329  1  0.19710000  0.60940000  0.01610000  1
  H  H330  1  0.10990000  0.11070000  0.92960000  1
  H  H331  1  0.09060000  0.39250000  0.91170000  1
  H  H332  1  0.39590000  0.86890000  0.24640000  1
  H  H333  1  0.77170000  0.63080000  0.62250000  1
  H  H334  1  0.13970000  0.87090000  0.99320000  1
  H  H335  1  0.02380000  0.62780000  0.87820000  1
  H  H336  1  0.64920000  0.37750000  0.50830000  1
  H  H337  1  0.49320000  0.12230000  0.35350000  1
  H  H338  1  0.87750000  0.85050000  0.74640000  1
  H  H339  1  0.27170000  0.64920000  0.14090000  1
  H  H340  1  0.62230000  0.85350000  0.49320000  1
  H  H341  1  0.61020000  0.20020000  0.48180000  1
  H  H342  1  0.52380000  0.64560000  0.39600000  1
  H  H343  1  0.01610000  0.80330000  0.89320000  1
  H  H344  1  0.75360000  0.10410000  0.63110000  1
  H  H345  1  0.85080000  0.35910000  0.72830000  1
  H  H346  1  0.26880000  0.13970000  0.14650000  1
  H  H347  1  0.37220000  0.39600000  0.25040000  1
  H  H348  1  0.50250000  0.31060000  0.38070000  1
  H  H349  1  0.12180000  0.69190000  0.00250000  1
  H  H350  1  0.68110000  0.18030000  0.57040000  1
  H  H351  1  0.91000000  0.78160000  0.79980000  1
  H  H352  1  0.42960000  0.81890000  0.31970000  1
  H  H353  1  0.69710000  0.68100000  0.58770000  1
  H  H354  1  0.71420000  0.50160000  0.60520000  1
  H  H355  1  0.40940000  0.32110000  0.30190000  1
  H  H356  1  0.19670000  0.21280000  0.08990000  1
  H  H357  1  0.40830000  0.99790000  0.30160000  1
  H  H358  1  0.89100000  0.28740000  0.78580000  1
  H  H359  1  0.97300000  0.12250000  0.86890000  1
  H  H360  1  0.12780000  0.37820000  0.02380000  1
  H  H361  1  0.21260000  0.71420000  0.10900000  1
  H  H362  1  0.98390000  0.30290000  0.89060000  1
  H  H363  1  0.08960000  0.19630000  0.99790000  1
  H  H364  1  0.41170000  0.51920000  0.32110000  1
  H  H365  1  0.70020000  0.98180000  0.61020000  1
  H  H366  1  0.21280000  0.01610000  0.12290000  1
  H  H367  1  0.49790000  0.80160000  0.40830000  1
  H  H368  1  0.60750000  0.69810000  0.51920000  1
  H  H369  1  0.89060000  0.48390000  0.80290000  1
  H  H370  1  0.88930000  0.99920000  0.81890000  1
  H  H371  1  0.19190000  0.50250000  0.12180000  1
  H  H372  1  0.63110000  0.25360000  0.60410000  1
  H  H373  1  0.37820000  0.25040000  0.35440000  1
  H  H374  1  0.91170000  0.59060000  0.89250000  1
  H  H375  1  0.12840000  0.91000000  0.11020000  1
  H  H376  1  0.39320000  0.08990000  0.37710000  1
  H  H377  1  0.60940000  0.41230000  0.59330000  1
  H  H378  1  0.85910000  0.22830000  0.85080000  1
  H  H379  1  0.12910000  0.26880000  0.12230000  1
  H  H380  1  0.69190000  0.57010000  0.68940000  1
  H  H381  1  0.80370000  0.89330000  0.80160000  1
  H  H382  1  0.21420000  0.60900000  0.21260000  1
  H  H383  1  0.31970000  0.92960000  0.31890000  1
  C  C384  1  0.11020000  0.91740000  0.11920000  1
  C  C385  1  0.89140000  0.58260000  0.90160000  1
  C  C386  1  0.12040000  0.95990000  0.14050000  1
  C  C387  1  0.85890000  0.53960000  0.88090000  1
  C  C388  1  0.92860000  0.65570000  0.95310000  1
  C  C389  1  0.06020000  0.84080000  0.08680000  1
  C  C390  1  0.67000000  0.56290000  0.69670000  1
  C  C391  1  0.19090000  0.60130000  0.21800000  1
  C  C392  1  0.79130000  0.90110000  0.81860000  1
  C  C393  1  0.92900000  0.75370000  0.95630000  1
  C  C394  1  0.05960000  0.74530000  0.08770000  1
  C  C395  1  0.30850000  0.93710000  0.33720000  1
  C  C396  1  0.86710000  0.74830000  0.89920000  1
  C  C397  1  0.11940000  0.75370000  0.15230000  1
  C  C398  1  0.80020000  0.94190000  0.83770000  1
  C  C399  1  0.15990000  0.55780000  0.19830000  1
  C  C400  1  0.64110000  0.52200000  0.68070000  1
  C  C401  1  0.31940000  0.97990000  0.35950000  1
  C  C402  1  0.07120000  0.88550000  0.11150000  1
  C  C403  1  0.80120000  0.74050000  0.84170000  1
  C  C404  1  0.89300000  0.61210000  0.93470000  1
  C  C405  1  0.27330000  0.86070000  0.31540000  1
  C  C406  1  0.17590000  0.76170000  0.21840000  1
  C  C407  1  0.21840000  0.67590000  0.26170000  1
  C  C408  1  0.75370000  0.82470000  0.79740000  1
  C  C409  1  0.59110000  0.91790000  0.63580000  1
  C  C410  1  0.31540000  0.77330000  0.36070000  1
  C  C411  1  0.70000000  0.64170000  0.74550000  1
  C  C412  1  0.37190000  0.58080000  0.41770000  1
  C  C413  1  0.89470000  0.76440000  0.94150000  1
  C  C414  1  0.65570000  0.72710000  0.70260000  1
  C  C415  1  0.07520000  0.73590000  0.12270000  1
  C  C416  1  0.60110000  0.73340000  0.65070000  1
  C  C417  1  0.36620000  0.76510000  0.41730000  1
  C  C418  1  0.83320000  0.75690000  0.88730000  1
  C  C419  1  0.13220000  0.74480000  0.18740000  1
  C  C420  1  0.18740000  0.63220000  0.24480000  1
  C  C421  1  0.34010000  0.53840000  0.39790000  1
  C  C422  1  0.60420000  0.96250000  0.66230000  1
  C  C423  1  0.66630000  0.59440000  0.72450000  1
  C  C424  1  0.54550000  0.74550000  0.60380000  1
  C  C425  1  0.76440000  0.86970000  0.82290000  1
  C  C426  1  0.28180000  0.90560000  0.34100000  1
  C  C427  1  0.41230000  0.65760000  0.47190000  1
  C  C428  1  0.41320000  0.75400000  0.47340000  1
  C  C429  1  0.54050000  0.84170000  0.60120000  1
  C  C430  1  0.83000000  0.52670000  0.89290000  1
  C  C431  1  0.09990000  0.97130000  0.16280000  1
  C  C432  1  0.34100000  0.78180000  0.40560000  1
  C  C433  1  0.61210000  0.71910000  0.67740000  1
  C  C434  1  0.45630000  0.20260000  0.52730000  1
  C  C435  1  0.38850000  0.77400000  0.45970000  1
  C  C436  1  0.45310000  0.29740000  0.52450000  1
  C  C437  1  0.55820000  0.72450000  0.63010000  1
  C  C438  1  0.37730000  0.61320000  0.45250000  1
  C  C439  1  0.55410000  0.88730000  0.63040000  1
  C  C440  1  0.12810000  0.54580000  0.20890000  1
  C  C441  1  0.78210000  0.95530000  0.86420000  1
  C  C442  1  0.04580000  0.70890000  0.12810000  1
  C  C443  1  0.89020000  0.79130000  0.97270000  1
  C  C444  1  0.29820000  0.99100000  0.38080000  1
  C  C445  1  0.60860000  0.51020000  0.69120000  1
  C  C446  1  0.86770000  0.60110000  0.95040000  1
  C  C447  1  0.05110000  0.89890000  0.13380000  1
  C  C448  1  0.73830000  0.28160000  0.82410000  1
  C  C449  1  0.15920000  0.21940000  0.24600000  1
  C  C450  1  0.63930000  0.18460000  0.72670000  1
  C  C451  1  0.25470000  0.31430000  0.34240000  1
  C  C452  1  0.10130000  0.71800000  0.19090000  1
  C  C453  1  0.82680000  0.78210000  0.91790000  1
  C  C454  1  0.83370000  0.55820000  0.92810000  1
  C  C455  1  0.06460000  0.94080000  0.15900000  1
  C  C456  1  0.58260000  0.69120000  0.68100000  1
  C  C457  1  0.58250000  0.97270000  0.68140000  1
  C  C458  1  0.33720000  0.80850000  0.43710000  1
  C  C459  1  0.74830000  0.88120000  0.84910000  1
  C  C460  1  0.26510000  0.91730000  0.36620000  1
  C  C461  1  0.63230000  0.58270000  0.73340000  1
  C  C462  1  0.93930000  0.19880000  0.04050000  1
  C  C463  1  0.30910000  0.52710000  0.41040000  1
  C  C464  1  0.15230000  0.61940000  0.25370000  1
  C  C465  1  0.05780000  0.69830000  0.15990000  1
  C  C466  1  0.94170000  0.30000000  0.04550000  1
  C  C467  1  0.85830000  0.80020000  0.96250000  1
  C  C468  1  0.44150000  0.17710000  0.54680000  1
  C  C469  1  0.43470000  0.32260000  0.54170000  1
  C  C470  1  0.52670000  0.69670000  0.63380000  1
  C  C471  1  0.40160000  0.31900000  0.51020000  1
  C  C472  1  0.47270000  0.18140000  0.58250000  1
  C  C473  1  0.38080000  0.79820000  0.49100000  1
  C  C474  1  0.11450000  0.18570000  0.22600000  1
  C  C475  1  0.60700000  0.54170000  0.71910000  1
  C  C476  1  0.75520000  0.31260000  0.86780000  1
  C  C477  1  0.75690000  0.92370000  0.86960000  1
  C  C478  1  0.12270000  0.57520000  0.23590000  1
  C  C479  1  0.27400000  0.95970000  0.38850000  1
  C  C480  1  0.78200000  0.30910000  0.89870000  1
  C  C481  1  0.53210000  0.89920000  0.65090000  1
  C  C482  1  0.53960000  0.68070000  0.65870000  1
  C  C483  1  0.08260000  0.19280000  0.20180000  1
  C  C484  1  0.34770000  0.60140000  0.46710000  1
  C  C485  1  0.35950000  0.81940000  0.47990000  1
  C  C486  1  0.26410000  0.33930000  0.38680000  1
  C  C487  1  0.59440000  0.15900000  0.71820000  1
  C  C488  1  0.29110000  0.33690000  0.41920000  1
  C  C489  1  0.56290000  0.16280000  0.69150000  1
  C  C490  1  0.92810000  0.33370000  0.05820000  1
  C  C491  1  0.54680000  0.94150000  0.67710000  1
  C  C492  1  0.92370000  0.16680000  0.05410000  1
  C  C493  1  0.31260000  0.55740000  0.44480000  1
  C  C494  1  0.45040000  0.34930000  0.58270000  1
  C  C495  1  0.39920000  0.15090000  0.53210000  1
  C  C496  1  0.10110000  0.15220000  0.23490000  1
  C  C497  1  0.89290000  0.33000000  0.02670000  1
  C  C498  1  0.74630000  0.34770000  0.88060000  1
  C  C499  1  0.95530000  0.17320000  0.09110000  1
  C  C500  1  0.04530000  0.95790000  0.18460000  1
  C  C501  1  0.04010000  0.16050000  0.18060000  1
  C  C502  1  0.80170000  0.34010000  0.94220000  1
  C  C503  1  0.38090000  0.34130000  0.52200000  1
  C  C504  1  0.46250000  0.16230000  0.60420000  1
  C  C505  1  0.80000000  0.54550000  0.94170000  1
  C  C506  1  0.95040000  0.36770000  0.10110000  1
  C  C507  1  0.88120000  0.13290000  0.03210000  1
  C  C508  1  0.58270000  0.13380000  0.73490000  1
  C  C509  1  0.24630000  0.36570000  0.39860000  1
  C  C510  1  0.57140000  0.52450000  0.72710000  1
  C  C511  1  0.08770000  0.55960000  0.24530000  1
  C  C512  1  0.74050000  0.93930000  0.89880000  1
  C  C513  1  0.88090000  0.35890000  0.03960000  1
  C  C514  1  0.05920000  0.12380000  0.21820000  1
  C  C515  1  0.25400000  0.97340000  0.41320000  1
  C  C516  1  0.30170000  0.35950000  0.46160000  1
  C  C517  1  0.52010000  0.14050000  0.68060000  1
  C  C518  1  0.76410000  0.37730000  0.92480000  1
  C  C519  1  0.94190000  0.14170000  0.10420000  1
  C  C520  1  0.02870000  0.12860000  0.19150000  1
  C  C521  1  0.79110000  0.37190000  0.95420000  1
  C  C522  1  0.42810000  0.36990000  0.59440000  1
  C  C523  1  0.38730000  0.13040000  0.55410000  1
  C  C524  1  0.39290000  0.36620000  0.56290000  1
  C  C525  1  0.41790000  0.13580000  0.59110000  1
  C  C526  1  0.52730000  0.95630000  0.70260000  1
  C  C527  1  0.28160000  0.54330000  0.45750000  1
  C  C528  1  0.86970000  0.10530000  0.04680000  1
  C  C529  1  0.93470000  0.39300000  0.11210000  1
  C  C530  1  0.83950000  0.87960000  0.02010000  1
  C  C531  1  0.96040000  0.61910000  0.14110000  1
  C  C532  1  0.90160000  0.39140000  0.08260000  1
  C  C533  1  0.90110000  0.10980000  0.08250000  1
  C  C534  1  0.04210000  0.08740000  0.22670000  1
  C  C535  1  0.54030000  0.11150000  0.72600000  1
  C  C536  1  0.75470000  0.41230000  0.94040000  1
  C  C537  1  0.25520000  0.38740000  0.44260000  1
  C  C538  1  0.28200000  0.38330000  0.47290000  1
  C  C539  1  0.91740000  0.59840000  0.10860000  1
  C  C540  1  0.87140000  0.90010000  0.06290000  1
  C  C541  1  0.50900000  0.11920000  0.70180000  1
  C  C542  1  0.97330000  0.60710000  0.17000000  1
  C  C543  1  0.44220000  0.60210000  0.64050000  1
  C  C544  1  0.34170000  0.10120000  0.54050000  1
  C  C545  1  0.33770000  0.89580000  0.53750000  1
  C  C546  1  0.44170000  0.39620000  0.64170000  1
  C  C547  1  0.80720000  0.88980000  0.00900000  1
  C  C548  1  0.82470000  0.07100000  0.02730000  1
  C  C549  1  0.95310000  0.42860000  0.15570000  1
  C  C550  1  0.31860000  0.91750000  0.52730000  1
  C  C551  1  0.45420000  0.58230000  0.66310000  1
  C  C552  1  0.36420000  0.90890000  0.58210000  1
  C  C553  1  0.39870000  0.58960000  0.61670000  1
  C  C554  1  0.87620000  0.93540000  0.09440000  1
  C  C555  1  0.23830000  0.41420000  0.45670000  1
  C  C556  1  0.88790000  0.56530000  0.10700000  1
  C  C557  1  0.52660000  0.08680000  0.74600000  1
  C  C558  1  0.94180000  0.57190000  0.16630000  1
  C  C559  1  0.81430000  0.92880000  0.04030000  1
  C  C560  1  0.91260000  0.95470000  0.13930000  1
  C  C561  1  0.84430000  0.54690000  0.07140000  1
  C  C562  1  0.89890000  0.54960000  0.13230000  1
  C  C563  1  0.84780000  0.94890000  0.08270000  1
  C  C564  1  0.32290000  0.95320000  0.55850000  1
  C  C565  1  0.42480000  0.54750000  0.66070000  1
  C  C566  1  0.04330000  0.95750000  0.28160000  1
  C  C567  1  0.69880000  0.54050000  0.93930000  1
  C  C568  1  0.36960000  0.94590000  0.61270000  1
  C  C569  1  0.36780000  0.55520000  0.61260000  1
  C  C570  1  0.44040000  0.52810000  0.68570000  1
  C  C571  1  0.95450000  0.55830000  0.20000000  1
  C  C572  1  0.78060000  0.93980000  0.02660000  1
  C  C573  1  0.29740000  0.97270000  0.54370000  1
  C  C574  1  0.10140000  0.96710000  0.34770000  1
  C  C575  1  0.63290000  0.53210000  0.88120000  1
  C  C576  1  0.34910000  0.96790000  0.60080000  1
  C  C577  1  0.38060000  0.53290000  0.63430000  1
  C  C578  1  0.57100000  0.52730000  0.82470000  1
  C  C579  1  0.08680000  0.56020000  0.34080000  1
  C  C580  1  0.64170000  0.94170000  0.89620000  1
  C  C581  1  0.15760000  0.97190000  0.41230000  1
  C  C582  1  0.05740000  0.94480000  0.31260000  1
  C  C583  1  0.66680000  0.55410000  0.92370000  1
  C  C584  1  0.39880000  0.95950000  0.65830000  1
  C  C585  1  0.32410000  0.54250000  0.58580000  1
  C  C586  1  0.11320000  0.95250000  0.37730000  1
  C  C587  1  0.60530000  0.54680000  0.86970000  1
  C  C588  1  0.13380000  0.55110000  0.39890000  1
  C  C589  1  0.58270000  0.95040000  0.84930000  1
  C  C590  1  0.52450000  0.95310000  0.79740000  1
  C  C591  1  0.18460000  0.54530000  0.45790000  1
  C  C592  1  0.11150000  0.57120000  0.38550000  1
  C  C593  1  0.59440000  0.92810000  0.86990000  1
  C  C594  1  0.65920000  0.41320000  0.93980000  1
  C  C595  1  0.54170000  0.93470000  0.82260000  1
  C  C596  1  0.04250000  0.08580000  0.32410000  1
  C  C597  1  0.15900000  0.56460000  0.44080000  1
  C  C598  1  0.02710000  0.91040000  0.30910000  1
  C  C599  1  0.67320000  0.59110000  0.95530000  1
  C  C600  1  0.08080000  0.91770000  0.37190000  1
  C  C601  1  0.60980000  0.58250000  0.90110000  1
  C  C602  1  0.72710000  0.07140000  0.02450000  1
  C  C603  1  0.95630000  0.42900000  0.25370000  1
  C  C604  1  0.11920000  0.61020000  0.41740000  1
  C  C605  1  0.24550000  0.10380000  0.54550000  1
  C  C606  1  0.64170000  0.60420000  0.94190000  1
  C  C607  1  0.43930000  0.39880000  0.74050000  1
  C  C608  1  0.03840000  0.89790000  0.34010000  1
  C  C609  1  0.56290000  0.89290000  0.86620000  1
  C  C610  1  0.58260000  0.38080000  0.88980000  1
  C  C611  1  0.16280000  0.59990000  0.47130000  1
  C  C612  1  0.51020000  0.90160000  0.81900000  1
  C  C613  1  0.08960000  0.11670000  0.39870000  1
  C  C614  1  0.05520000  0.11260000  0.36780000  1
  C  C615  1  0.52810000  0.08770000  0.84240000  1
  C  C616  1  0.61450000  0.38850000  0.92880000  1
  C  C617  1  0.13930000  0.41260000  0.45470000  1
  C  C618  1  0.97270000  0.39020000  0.29130000  1
  C  C619  1  0.69120000  0.10860000  0.01020000  1
  C  C620  1  0.52200000  0.88090000  0.84130000  1
  C  C621  1  0.14050000  0.62040000  0.45990000  1
  C  C622  1  0.71910000  0.10700000  0.04170000  1
  C  C623  1  0.94150000  0.39470000  0.26440000  1
  C  C624  1  0.91420000  0.95670000  0.23830000  1
  C  C625  1  0.74630000  0.54370000  0.07100000  1
  C  C626  1  0.45530000  0.36420000  0.78210000  1
  C  C627  1  0.19670000  0.13380000  0.52670000  1
  C  C628  1  0.42370000  0.36960000  0.75690000  1
  C  C629  1  0.22450000  0.13010000  0.55820000  1
  C  C630  1  0.58230000  0.12810000  0.91920000  1
  C  C631  1  0.06290000  0.37140000  0.40010000  1
  C  C632  1  0.96250000  0.35830000  0.30020000  1
  C  C633  1  0.54750000  0.12270000  0.88680000  1
  C  C634  1  0.54010000  0.35950000  0.87960000  1
  C  C635  1  0.10210000  0.14050000  0.44220000  1
  C  C636  1  0.43980000  0.52660000  0.78060000  1
  C  C637  1  0.09440000  0.37620000  0.43540000  1
  C  C638  1  0.68070000  0.14110000  0.02200000  1
  C  C639  1  0.95950000  0.56070000  0.30120000  1
  C  C640  1  0.68570000  0.94040000  0.02810000  1
  C  C641  1  0.20260000  0.97550000  0.54690000  1
  C  C642  1  0.03290000  0.13430000  0.38060000  1
  C  C643  1  0.60110000  0.36620000  0.94890000  1
  C  C644  1  0.89920000  0.36710000  0.24830000  1
  C  C645  1  0.73340000  0.13230000  0.08270000  1
  C  C646  1  0.39620000  0.95450000  0.75450000  1
  C  C647  1  0.44190000  0.33770000  0.80020000  1
  C  C648  1  0.18070000  0.15870000  0.53960000  1
  C  C649  1  0.02010000  0.33950000  0.37960000  1
  C  C650  1  0.60210000  0.15990000  0.96160000  1
  C  C651  1  0.22670000  0.54210000  0.58740000  1
  C  C652  1  0.91790000  0.32680000  0.28210000  1
  C  C653  1  0.53290000  0.15230000  0.89860000  1
  C  C654  1  0.08270000  0.34780000  0.44890000  1
  C  C655  1  0.69670000  0.17000000  0.06290000  1
  C  C656  1  0.38120000  0.34910000  0.74830000  1
  C  C657  1  0.23340000  0.15070000  0.60110000  1
  C  C658  1  0.88740000  0.94260000  0.25520000  1
  C  C659  1  0.88730000  0.33320000  0.25690000  1
  C  C660  1  0.73560000  0.55850000  0.10530000  1
  C  C661  1  0.72450000  0.16630000  0.09440000  1
  C  C662  1  0.52870000  0.33720000  0.90010000  1
  C  C663  1  0.08230000  0.16310000  0.45420000  1
  C  C664  1  0.55920000  0.34100000  0.93540000  1
  C  C665  1  0.04750000  0.16070000  0.42480000  1
  C  C666  1  0.66050000  0.68060000  0.04010000  1
  C  C667  1  0.86570000  0.89860000  0.24630000  1
  C  C668  1  0.00900000  0.30720000  0.38980000  1
  C  C669  1  0.97800000  0.81930000  0.35890000  1
  C  C670  1  0.75170000  0.60080000  0.13290000  1
  C  C671  1  0.58960000  0.19090000  0.97290000  1
  C  C672  1  0.42880000  0.54030000  0.81430000  1
  C  C673  1  0.66070000  0.92480000  0.04750000  1
  C  C674  1  0.94590000  0.57630000  0.33320000  1
  C  C675  1  0.55520000  0.18740000  0.94260000  1
  C  C676  1  0.17740000  0.95830000  0.56530000  1
  C  C677  1  0.04030000  0.31430000  0.42880000  1
  C  C678  1  0.69280000  0.70180000  0.08260000  1
  C  C679  1  0.40110000  0.31860000  0.79130000  1
  C  C680  1  0.19120000  0.18100000  0.58260000  1
  C  C681  1  0.93710000  0.80330000  0.33000000  1
  C  C682  1  0.21910000  0.17740000  0.61210000  1
  C  C683  1  0.36970000  0.32290000  0.76440000  1
  C  C684  1  0.16230000  0.69980000  0.55810000  1
  C  C685  1  0.74550000  0.20000000  0.14170000  1
  C  C686  1  0.46160000  0.80170000  0.85950000  1
  C  C687  1  0.63430000  0.88060000  0.03290000  1
  C  C688  1  0.88330000  0.97290000  0.28200000  1
  C  C689  1  0.84170000  0.30120000  0.24050000  1
  C  C690  1  0.44890000  0.58270000  0.84780000  1
  C  C691  1  0.15070000  0.91730000  0.54960000  1
  C  C692  1  0.96790000  0.61880000  0.36710000  1
  C  C693  1  0.62860000  0.69150000  0.02870000  1
  C  C694  1  0.70870000  0.52730000  0.10980000  1
  C  C695  1  0.98980000  0.80880000  0.39140000  1
  C  C696  1  0.21820000  0.55920000  0.62380000  1
  C  C697  1  0.36990000  0.94180000  0.77550000  1
  C  C698  1  0.13580000  0.71790000  0.54470000  1
  C  C699  1  0.47290000  0.78200000  0.88330000  1
  C  C700  1  0.02810000  0.18570000  0.44040000  1
  C  C701  1  0.54210000  0.31540000  0.95470000  1
  C  C702  1  0.02660000  0.28060000  0.43980000  1
  C  C703  1  0.54250000  0.21840000  0.95670000  1
  C  C704  1  0.23490000  0.60110000  0.65220000  1
  C  C705  1  0.34930000  0.89890000  0.76660000  1
  C  C706  1  0.38980000  0.50900000  0.80720000  1
  C  C707  1  0.18100000  0.98980000  0.59840000  1
  C  C708  1  0.18140000  0.70870000  0.59890000  1
  C  C709  1  0.41920000  0.79110000  0.83690000  1
  C  C710  1  0.90890000  0.54470000  0.32680000  1
  C  C711  1  0.66310000  0.95420000  0.08230000  1
  C  C712  1  0.74310000  0.61270000  0.16680000  1
  C  C713  1  0.83930000  0.88680000  0.26410000  1
  C  C714  1  0.90560000  0.77550000  0.33370000  1
  C  C715  1  0.22710000  0.20260000  0.65570000  1
  C  C716  1  0.68570000  0.72600000  0.11450000  1
  C  C717  1  0.32470000  0.29740000  0.75370000  1
  C  C718  1  0.95830000  0.78090000  0.39300000  1
  C  C719  1  0.62380000  0.71820000  0.05920000  1
  C  C720  1  0.19150000  0.52870000  0.62860000  1
  C  C721  1  0.36620000  0.97330000  0.80330000  1
  C  C722  1  0.75950000  0.65830000  0.19880000  1
  C  C723  1  0.71940000  0.74600000  0.15920000  1
  C  C724  1  0.81430000  0.84240000  0.25470000  1
  C  C725  1  0.43540000  0.59440000  0.87620000  1
  C  C726  1  0.95320000  0.63030000  0.39470000  1
  C  C727  1  0.85830000  0.75450000  0.30000000  1
  C  C728  1  0.13010000  0.90560000  0.57190000  1
  C  C729  1  0.69980000  0.53750000  0.14170000  1
  C  C730  1  0.85950000  0.96160000  0.30170000  1
  C  C731  1  0.61260000  0.86780000  0.05520000  1
  C  C732  1  0.44260000  0.75520000  0.88740000  1
  C  C733  1  0.13040000  0.74310000  0.57630000  1
  C  C734  1  0.65220000  0.73490000  0.10110000  1
  C  C735  1  0.91730000  0.76660000  0.36770000  1
  C  C736  1  0.38680000  0.76410000  0.83930000  1
  C  C737  1  0.97550000  0.77290000  0.42860000  1
  C  C738  1  0.17710000  0.73560000  0.63030000  1
  C  C739  1  0.83690000  0.91920000  0.29110000  1
  C  C740  1  0.10380000  0.85830000  0.55830000  1
  C  C741  1  0.58740000  0.72670000  0.04210000  1
  C  C742  1  0.71790000  0.58210000  0.17320000  1
  C  C743  1  0.97270000  0.67530000  0.42900000  1
  C  C744  1  0.58580000  0.82410000  0.04250000  1
  C  C745  1  0.45670000  0.73830000  0.91420000  1
  C  C746  1  0.45470000  0.63930000  0.91260000  1
  C  C747  1  0.32260000  0.88790000  0.78090000  1
  C  C748  1  0.10120000  0.75950000  0.56070000  1
  C  C749  1  0.22600000  0.61450000  0.68570000  1
  C  C750  1  0.37960000  0.52010000  0.83950000  1
  C  C751  1  0.15870000  0.97800000  0.61910000  1
  C  C752  1  0.64050000  0.94220000  0.10210000  1
  C  C753  1  0.89580000  0.55810000  0.35830000  1
  C  C754  1  0.39860000  0.74630000  0.86570000  1
  C  C755  1  0.15090000  0.75170000  0.61880000  1
  C  C756  1  0.40010000  0.56290000  0.87140000  1
  C  C757  1  0.34240000  0.75470000  0.81430000  1
  C  C758  1  0.20260000  0.74630000  0.67530000  1
  C  C759  1  0.91750000  0.59890000  0.39020000  1
  C  C760  1  0.61670000  0.89870000  0.08960000  1
  C  C761  1  0.13380000  0.93710000  0.60710000  1
  C  C762  1  0.24600000  0.65920000  0.71940000  1
  C  C763  1  0.29740000  0.84430000  0.77290000  1
  C  C764  1  0.34130000  0.96040000  0.81930000  1
  C  C765  1  0.18060000  0.54010000  0.66050000  1
  C  C766  1  0.31900000  0.91740000  0.80880000  1
  C  C767  1  0.20180000  0.58260000  0.69280000  1
  C  C768  1  0.79820000  0.41740000  0.30720000  1
  C  C769  1  0.68100000  0.08260000  0.19120000  1
  C  C770  1  0.81940000  0.45990000  0.33950000  1
  C  C771  1  0.65870000  0.03960000  0.18070000  1
  C  C772  1  0.70260000  0.15570000  0.22710000  1
  C  C773  1  0.75400000  0.34080000  0.28060000  1
  C  C774  1  0.86620000  0.06290000  0.39290000  1
  C  C775  1  0.38330000  0.10130000  0.91040000  1
  C  C776  1  0.08250000  0.40110000  0.60980000  1
  C  C777  1  0.79740000  0.25370000  0.32470000  1
  C  C778  1  0.65760000  0.24530000  0.18570000  1
  C  C779  1  0.59990000  0.43710000  0.12860000  1
  C  C780  1  0.84910000  0.24830000  0.38120000  1
  C  C781  1  0.60140000  0.25370000  0.13430000  1
  C  C782  1  0.10420000  0.44190000  0.64170000  1
  C  C783  1  0.35950000  0.05780000  0.89790000  1
  C  C784  1  0.84130000  0.02200000  0.38090000  1
  C  C785  1  0.62040000  0.47990000  0.16050000  1
  C  C786  1  0.77400000  0.38550000  0.31430000  1
  C  C787  1  0.89880000  0.24050000  0.43930000  1
  C  C788  1  0.67740000  0.11210000  0.21910000  1
  C  C789  1  0.54530000  0.36070000  0.08740000  1
  C  C790  1  0.54330000  0.26170000  0.08580000  1
  C  C791  1  0.41420000  0.17590000  0.95750000  1
  C  C792  1  0.02730000  0.32470000  0.57100000  1
  C  C793  1  0.28210000  0.41790000  0.82680000  1
  C  C794  1  0.41260000  0.27330000  0.95790000  1
  C  C795  1  0.89620000  0.14170000  0.44170000  1
  C  C796  1  0.16310000  0.08080000  0.70890000  1
  C  C797  1  0.82290000  0.26440000  0.36970000  1
  C  C798  1  0.02450000  0.22710000  0.57140000  1
  C  C799  1  0.61320000  0.23590000  0.16070000  1
  C  C800  1  0.08270000  0.23340000  0.63230000  1
  C  C801  1  0.34780000  0.26510000  0.89890000  1
  C  C802  1  0.86960000  0.25690000  0.42370000  1
  C  C803  1  0.55740000  0.24480000  0.11260000  1
  C  C804  1  0.38740000  0.13220000  0.94480000  1
  C  C805  1  0.14050000  0.03840000  0.69830000  1
  C  C806  1  0.30020000  0.46250000  0.85830000  1
  C  C807  1  0.86990000  0.09440000  0.42810000  1
  C  C808  1  0.14170000  0.24550000  0.70000000  1
  C  C809  1  0.04680000  0.36970000  0.60530000  1
  C  C810  1  0.56460000  0.40560000  0.12380000  1
  C  C811  1  0.18570000  0.15760000  0.74530000  1
  C  C812  1  0.28060000  0.25400000  0.84080000  1
  C  C813  1  0.24050000  0.34170000  0.80120000  1
  C  C814  1  0.63380000  0.02670000  0.19670000  1
  C  C815  1  0.80850000  0.47130000  0.37140000  1
  C  C816  1  0.37620000  0.28180000  0.94080000  1
  C  C817  1  0.04170000  0.21910000  0.60700000  1
  C  C818  1  0.67530000  0.70260000  0.24630000  1
  C  C819  1  0.31430000  0.27400000  0.88550000  1
  C  C820  1  0.77290000  0.79740000  0.34430000  1
  C  C821  1  0.09440000  0.22450000  0.66630000  1
  C  C822  1  0.16070000  0.11320000  0.73590000  1
  C  C823  1  0.25690000  0.38730000  0.83320000  1
  C  C824  1  0.33690000  0.04580000  0.91770000  1
  C  C825  1  0.09110000  0.45530000  0.67320000  1
  C  C826  1  0.58080000  0.20890000  0.16310000  1
  C  C827  1  0.81860000  0.29130000  0.40110000  1
  C  C828  1  0.81900000  0.01020000  0.40160000  1
  C  C829  1  0.61020000  0.49100000  0.19280000  1
  C  C830  1  0.65070000  0.10110000  0.23340000  1
  C  C831  1  0.76510000  0.39890000  0.34780000  1
  C  C832  1  0.45750000  0.78160000  0.04330000  1
  C  C833  1  0.97340000  0.71940000  0.56020000  1
  C  C834  1  0.45790000  0.68460000  0.04530000  1
  C  C835  1  0.97190000  0.81430000  0.55960000  1
  C  C836  1  0.52710000  0.21800000  0.11670000  1
  C  C837  1  0.86420000  0.28210000  0.45530000  1
  C  C838  1  0.63010000  0.05820000  0.22450000  1
  C  C839  1  0.78180000  0.44080000  0.37620000  1
  C  C840  1  0.01020000  0.19120000  0.60860000  1
  C  C841  1  0.29130000  0.47270000  0.89020000  1
  C  C842  1  0.37140000  0.30850000  0.97130000  1
  C  C843  1  0.03210000  0.38120000  0.63290000  1
  C  C844  1  0.84930000  0.08270000  0.45040000  1
  C  C845  1  0.55110000  0.41730000  0.15220000  1
  C  C846  1  0.15830000  0.69880000  0.75950000  1
  C  C847  1  0.11670000  0.02710000  0.71800000  1
  C  C848  1  0.36570000  0.11940000  0.96710000  1
  C  C849  1  0.53840000  0.19830000  0.14050000  1
  C  C850  1  0.25450000  0.80000000  0.85830000  1
  C  C851  1  0.83770000  0.30020000  0.44190000  1
  C  C852  1  0.63030000  0.67710000  0.23560000  1
  C  C853  1  0.78090000  0.82260000  0.38790000  1
  C  C854  1  0.06290000  0.19670000  0.67000000  1
  C  C855  1  0.80880000  0.81900000  0.41740000  1
  C  C856  1  0.59890000  0.68140000  0.20870000  1
  C  C857  1  0.30720000  0.29820000  0.91740000  1
  C  C858  1  0.95970000  0.68570000  0.57120000  1
  C  C859  1  0.82260000  0.04170000  0.43470000  1
  C  C860  1  0.44480000  0.81260000  0.05740000  1
  C  C861  1  0.05410000  0.42370000  0.66680000  1
  C  C862  1  0.33930000  0.07520000  0.95250000  1
  C  C863  1  0.57120000  0.45970000  0.18570000  1
  C  C864  1  0.41040000  0.80910000  0.02710000  1
  C  C865  1  0.24830000  0.39920000  0.86710000  1
  C  C866  1  0.02200000  0.18070000  0.64110000  1
  C  C867  1  0.99100000  0.69280000  0.61020000  1
  C  C868  1  0.13430000  0.10140000  0.75370000  1
  C  C869  1  0.33950000  0.31940000  0.95990000  1
  C  C870  1  0.95250000  0.83930000  0.57520000  1
  C  C871  1  0.44080000  0.65900000  0.06460000  1
  C  C872  1  0.91770000  0.83690000  0.54580000  1
  C  C873  1  0.47130000  0.66280000  0.09990000  1
  C  C874  1  0.27550000  0.83370000  0.90560000  1
  C  C875  1  0.26440000  0.44150000  0.89470000  1
  C  C876  1  0.11270000  0.66680000  0.74310000  1
  C  C877  1  0.11260000  0.05740000  0.74480000  1
  C  C878  1  0.76660000  0.84930000  0.39890000  1
  C  C879  1  0.61880000  0.65090000  0.25170000  1
  C  C880  1  0.30330000  0.83000000  0.93710000  1
  C  C881  1  0.91730000  0.65220000  0.55110000  1
  C  C882  1  0.46710000  0.84770000  0.10140000  1
  C  C883  1  0.08210000  0.67320000  0.71790000  1
  C  C884  1  0.77330000  0.45790000  0.41260000  1
  C  C885  1  0.39790000  0.84010000  0.03840000  1
  C  C886  1  0.97990000  0.66050000  0.62040000  1
  C  C887  1  0.81930000  0.84130000  0.46040000  1
  C  C888  1  0.55810000  0.66230000  0.19980000  1
  C  C889  1  0.60380000  0.04550000  0.24550000  1
  C  C890  1  0.26660000  0.86770000  0.91730000  1
  C  C891  1  0.10080000  0.63290000  0.75170000  1
  C  C892  1  0.39890000  0.63380000  0.05110000  1
  C  C893  1  0.96710000  0.86570000  0.61940000  1
  C  C894  1  0.79740000  0.02450000  0.45310000  1
  C  C895  1  0.31430000  0.05960000  0.97190000  1
  C  C896  1  0.04050000  0.43930000  0.69880000  1
  C  C897  1  0.31930000  0.85890000  0.97800000  1
  C  C898  1  0.90560000  0.62380000  0.56460000  1
  C  C899  1  0.56020000  0.47340000  0.21940000  1
  C  C900  1  0.89790000  0.85950000  0.55780000  1
  C  C901  1  0.45990000  0.64050000  0.12040000  1
  C  C902  1  0.45250000  0.87730000  0.11320000  1
  C  C903  1  0.03750000  0.64170000  0.69980000  1
  C  C904  1  0.93710000  0.62860000  0.59990000  1
  C  C905  1  0.41770000  0.87190000  0.08080000  1
  C  C906  1  0.77550000  0.86990000  0.44180000  1
  C  C907  1  0.57630000  0.63040000  0.24310000  1
  C  C908  1  0.80330000  0.86620000  0.47330000  1
  C  C909  1  0.54470000  0.63580000  0.21790000  1
  C  C910  1  0.25370000  0.45630000  0.92900000  1
  C  C911  1  0.08580000  0.04330000  0.76170000  1
  C  C912  1  0.05850000  0.60530000  0.73560000  1
  C  C913  1  0.28090000  0.89300000  0.95830000  1
  C  C914  1  0.85950000  0.37960000  0.54010000  1
  C  C915  1  0.47800000  0.11910000  0.15870000  1
  C  C916  1  0.30880000  0.89140000  0.98980000  1
  C  C917  1  0.02730000  0.60980000  0.70870000  1
  C  C918  1  0.86070000  0.58740000  0.54530000  1
  C  C919  1  0.38550000  0.61150000  0.07120000  1
  C  C920  1  0.47190000  0.91230000  0.15760000  1
  C  C921  1  0.94480000  0.88740000  0.63220000  1
  C  C922  1  0.91040000  0.88330000  0.60130000  1
  C  C923  1  0.48980000  0.09840000  0.18100000  1
  C  C924  1  0.83720000  0.40010000  0.52870000  1
  C  C925  1  0.41740000  0.61920000  0.11020000  1
  C  C926  1  0.43710000  0.10710000  0.13380000  1
  C  C927  1  0.96160000  0.10210000  0.65990000  1
  C  C928  1  0.56070000  0.60120000  0.25950000  1
  C  C929  1  0.35830000  0.39580000  0.05810000  1
  C  C930  1  0.75450000  0.89620000  0.45450000  1
  C  C931  1  0.88080000  0.38980000  0.58260000  1
  C  C932  1  0.04370000  0.57100000  0.74630000  1
  C  C933  1  0.27290000  0.92860000  0.97550000  1
  C  C934  1  0.39020000  0.41750000  0.09890000  1
  C  C935  1  0.91920000  0.08230000  0.62810000  1
  C  C936  1  0.32680000  0.40890000  0.04470000  1
  C  C937  1  0.97290000  0.08960000  0.69090000  1
  C  C938  1  0.84100000  0.43540000  0.55920000  1
  C  C939  1  0.95750000  0.91420000  0.67590000  1
  C  C940  1  0.45830000  0.06530000  0.17740000  1
  C  C941  1  0.34080000  0.58680000  0.06020000  1
  C  C942  1  0.40560000  0.07190000  0.13010000  1
  C  C943  1  0.88850000  0.42880000  0.61450000  1
  C  C944  1  0.81540000  0.45470000  0.54210000  1
  C  C945  1  0.47550000  0.04690000  0.20260000  1
  C  C946  1  0.41730000  0.04960000  0.15070000  1
  C  C947  1  0.86620000  0.44890000  0.60110000  1
  C  C948  1  0.39470000  0.45320000  0.13030000  1
  C  C949  1  0.88680000  0.04750000  0.62270000  1
  C  C950  1  0.67590000  0.45750000  0.41420000  1
  C  C951  1  0.60120000  0.04050000  0.34170000  1
  C  C952  1  0.33320000  0.44590000  0.07630000  1
  C  C953  1  0.94260000  0.05520000  0.68740000  1
  C  C954  1  0.84240000  0.02810000  0.58770000  1
  C  C955  1  0.35830000  0.05830000  0.10380000  1
  C  C956  1  0.91320000  0.43980000  0.65920000  1
  C  C957  1  0.42900000  0.47270000  0.17530000  1
  C  C958  1  0.61940000  0.46710000  0.36570000  1
  C  C959  1  0.65090000  0.03210000  0.39920000  1
  C  C960  1  0.36710000  0.46790000  0.11880000  1
  C  C961  1  0.89860000  0.03290000  0.65230000  1
  C  C962  1  0.70260000  0.02730000  0.45630000  1
  C  C963  1  0.21940000  0.06020000  0.97340000  1
  C  C964  1  0.04550000  0.44170000  0.80000000  1
  C  C965  1  0.55960000  0.47190000  0.31430000  1
  C  C966  1  0.63220000  0.44480000  0.38740000  1
  C  C967  1  0.63040000  0.05410000  0.38730000  1
  C  C968  1  0.30120000  0.45950000  0.06070000  1
  C  C969  1  0.95670000  0.04250000  0.71840000  1
  C  C970  1  0.57520000  0.45250000  0.33930000  1
  C  C971  1  0.67710000  0.04680000  0.44150000  1
  C  C972  1  0.15220000  0.05110000  0.91730000  1
  C  C973  1  0.10110000  0.45040000  0.86770000  1
  C  C974  1  0.15570000  0.45310000  0.92860000  1
  C  C975  1  0.08740000  0.04530000  0.86070000  1
  C  C976  1  0.18570000  0.07120000  0.95970000  1
  C  C977  1  0.05820000  0.42810000  0.83370000  1
  C  C978  1  0.47340000  0.91320000  0.25400000  1
  C  C979  1  0.11210000  0.43470000  0.89300000  1
  C  C980  1  0.76170000  0.58580000  0.54330000  1
  C  C981  1  0.12380000  0.06460000  0.90560000  1
  C  C982  1  0.60130000  0.41040000  0.38330000  1
  C  C983  1  0.63580000  0.09110000  0.41790000  1
  C  C984  1  0.54580000  0.41770000  0.33690000  1
  C  C985  1  0.68140000  0.08250000  0.47270000  1
  C  C986  1  0.04690000  0.57140000  0.84430000  1
  C  C987  1  0.17530000  0.92900000  0.97270000  1
  C  C988  1  0.19280000  0.11020000  0.99100000  1
  C  C989  1  0.55830000  0.60380000  0.35830000  1
  C  C990  1  0.66230000  0.10420000  0.46250000  1
  C  C991  1  0.65830000  0.89880000  0.45950000  1
  C  C992  1  0.55780000  0.39790000  0.35950000  1
  C  C993  1  0.02670000  0.39290000  0.83000000  1
  C  C994  1  0.49100000  0.88080000  0.29820000  1
  C  C995  1  0.12860000  0.09990000  0.93710000  1
  C  C996  1  0.08260000  0.40160000  0.89140000  1
  C  C997  1  0.71800000  0.61670000  0.52710000  1
  C  C998  1  0.74480000  0.61260000  0.55740000  1
  C  C999  1  0.24530000  0.58770000  0.05960000  1
  C  C1000  1  0.45970000  0.88850000  0.27400000  1
  C  C1001  1  0.95790000  0.91260000  0.77330000  1
  C  C1002  1  0.09890000  0.89020000  0.91750000  1
  C  C1003  1  0.09840000  0.60860000  0.91740000  1
  C  C1004  1  0.03960000  0.38090000  0.85890000  1
  C  C1005  1  0.16050000  0.12040000  0.97990000  1
  C  C1006  1  0.06530000  0.60700000  0.88790000  1
  C  C1007  1  0.13030000  0.89470000  0.95320000  1
  C  C1008  1  0.71840000  0.45670000  0.54250000  1
  C  C1009  1  0.47270000  0.04370000  0.29740000  1
  C  C1010  1  0.58210000  0.86420000  0.40890000  1
  C  C1011  1  0.60710000  0.63380000  0.43710000  1
  C  C1012  1  0.61270000  0.86960000  0.44590000  1
  C  C1013  1  0.57190000  0.63010000  0.40560000  1
  C  C1014  1  0.20890000  0.62810000  0.04580000  1
  C  C1015  1  0.97130000  0.87140000  0.80850000  1
  C  C1016  1  0.05810000  0.85830000  0.89580000  1
  C  C1017  1  0.23590000  0.62270000  0.07520000  1
  C  C1018  1  0.47990000  0.85950000  0.31940000  1
  C  C1019  1  0.69830000  0.64050000  0.53840000  1
  C  C1020  1  0.74600000  0.02660000  0.58680000  1
  C  C1021  1  0.94080000  0.87620000  0.78180000  1
  C  C1022  1  0.11910000  0.64110000  0.96040000  1
  C  C1023  1  0.25950000  0.06070000  0.10120000  1
  C  C1024  1  0.91230000  0.44040000  0.75470000  1
  C  C1025  1  0.42860000  0.47550000  0.27290000  1
  C  C1026  1  0.75370000  0.63430000  0.60140000  1
  C  C1027  1  0.41730000  0.86620000  0.26510000  1
  C  C1028  1  0.11880000  0.86710000  0.96790000  1
  C  C1029  1  0.04960000  0.63230000  0.89890000  1
  C  C1030  1  0.20000000  0.45450000  0.05830000  1
  C  C1031  1  0.53750000  0.83770000  0.39580000  1
  C  C1032  1  0.61910000  0.65870000  0.47800000  1
  C  C1033  1  0.19830000  0.65990000  0.05780000  1
  C  C1034  1  0.95990000  0.83950000  0.81940000  1
  C  C1035  1  0.95470000  0.04210000  0.81540000  1
  C  C1036  1  0.04470000  0.82680000  0.90890000  1
  C  C1037  1  0.25370000  0.65230000  0.11940000  1
  C  C1038  1  0.10710000  0.67000000  0.97330000  1
  C  C1039  1  0.89890000  0.84780000  0.76510000  1
  C  C1040  1  0.60080000  0.84910000  0.46790000  1
  C  C1041  1  0.54960000  0.65070000  0.41730000  1
  C  C1042  1  0.68740000  0.44260000  0.55520000  1
  C  C1043  1  0.07630000  0.83320000  0.94590000  1
  C  C1044  1  0.45320000  0.05850000  0.32290000  1
  C  C1045  1  0.07190000  0.66630000  0.94180000  1
  C  C1046  1  0.43710000  0.83720000  0.30850000  1
  C  C1047  1  0.70890000  0.66310000  0.58080000  1
  C  C1048  1  0.40560000  0.84100000  0.28180000  1
  C  C1049  1  0.73590000  0.66070000  0.61320000  1
  C  C1050  1  0.64050000  0.18060000  0.52010000  1
  C  C1051  1  0.65230000  0.39860000  0.53290000  1
  C  C1052  1  0.91740000  0.80720000  0.79820000  1
  C  C1053  1  0.46040000  0.31930000  0.34130000  1
  C  C1054  1  0.46790000  0.10080000  0.34910000  1
  C  C1055  1  0.21800000  0.69090000  0.10130000  1
  C  C1056  1  0.72600000  0.04030000  0.61150000  1
  C  C1057  1  0.87730000  0.42480000  0.76410000  1
  C  C1058  1  0.24310000  0.07630000  0.13040000  1
  C  C1059  1  0.24480000  0.68740000  0.13220000  1
  C  C1060  1  0.39300000  0.45830000  0.28090000  1
  C  C1061  1  0.88550000  0.81430000  0.77400000  1
  C  C1062  1  0.61920000  0.20180000  0.50900000  1
  C  C1063  1  0.52730000  0.81860000  0.41750000  1
  C  C1064  1  0.59840000  0.68100000  0.48980000  1
  C  C1065  1  0.47330000  0.30330000  0.36620000  1
  C  C1066  1  0.56530000  0.67740000  0.45830000  1
  C  C1067  1  0.55850000  0.82290000  0.45320000  1
  C  C1068  1  0.14170000  0.19980000  0.03750000  1
  C  C1069  1  0.05830000  0.70000000  0.95450000  1
  C  C1070  1  0.94220000  0.30170000  0.84010000  1
  C  C1071  1  0.84770000  0.38060000  0.74630000  1
  C  C1072  1  0.69090000  0.47290000  0.58960000  1
  C  C1073  1  0.06070000  0.80120000  0.95950000  1
  C  C1074  1  0.36770000  0.41730000  0.26660000  1
  C  C1075  1  0.73490000  0.08270000  0.63380000  1
  C  C1076  1  0.25170000  0.11880000  0.15090000  1
  C  C1077  1  0.66280000  0.19150000  0.56290000  1
  C  C1078  1  0.41750000  0.02730000  0.31860000  1
  C  C1079  1  0.41740000  0.30880000  0.31900000  1
  C  C1080  1  0.93540000  0.05920000  0.84100000  1
  C  C1081  1  0.16630000  0.44180000  0.07190000  1
  C  C1082  1  0.17320000  0.21790000  0.08210000  1
  C  C1083  1  0.89870000  0.28200000  0.80910000  1
  C  C1084  1  0.74530000  0.68570000  0.65760000  1
  C  C1085  1  0.36070000  0.81540000  0.27330000  1
  C  C1086  1  0.84080000  0.78060000  0.75400000  1
  C  C1087  1  0.26170000  0.71840000  0.17590000  1
  C  C1088  1  0.94890000  0.10110000  0.86620000  1
  C  C1089  1  0.13230000  0.39890000  0.04960000  1
  C  C1090  1  0.39140000  0.48980000  0.30880000  1
  C  C1091  1  0.70180000  0.00900000  0.61920000  1
  C  C1092  1  0.10980000  0.20870000  0.02730000  1
  C  C1093  1  0.95420000  0.29110000  0.87190000  1
  C  C1094  1  0.21790000  0.04470000  0.13580000  1
  C  C1095  1  0.87190000  0.45420000  0.79110000  1
  C  C1096  1  0.44590000  0.11270000  0.36960000  1
  C  C1097  1  0.62270000  0.38680000  0.54750000  1
  C  C1098  1  0.44180000  0.27550000  0.36990000  1
  C  C1099  1  0.54690000  0.70260000  0.47550000  1
  C  C1100  1  0.61150000  0.22600000  0.54030000  1
  C  C1101  1  0.54370000  0.79740000  0.47270000  1
  C  C1102  1  0.38790000  0.28090000  0.32260000  1
  C  C1103  1  0.65900000  0.21820000  0.59440000  1
  C  C1104  1  0.90010000  0.02870000  0.83720000  1
  C  C1105  1  0.17000000  0.47330000  0.10710000  1
  C  C1106  1  0.45950000  0.15830000  0.39880000  1
  C  C1107  1  0.58680000  0.24600000  0.52660000  1
  C  C1108  1  0.58770000  0.34240000  0.52810000  1
  C  C1109  1  0.71820000  0.09440000  0.65900000  1
  C  C1110  1  0.23560000  0.13030000  0.17710000  1
  C  C1111  1  0.45450000  0.25450000  0.39620000  1
  C  C1112  1  0.33370000  0.40560000  0.27550000  1
  C  C1113  1  0.39580000  0.03750000  0.33770000  1
  C  C1114  1  0.65990000  0.46160000  0.60210000  1
  C  C1115  1  0.81260000  0.36780000  0.75520000  1
  C  C1116  1  0.86780000  0.25520000  0.81260000  1
  C  C1117  1  0.16680000  0.24310000  0.11270000  1
  C  C1118  1  0.63380000  0.23490000  0.58270000  1
  C  C1119  1  0.39890000  0.26660000  0.34930000  1
  C  C1120  1  0.92480000  0.26410000  0.87730000  1
  C  C1121  1  0.34430000  0.27290000  0.29740000  1
  C  C1122  1  0.10530000  0.23560000  0.05850000  1
  C  C1123  1  0.62810000  0.41920000  0.58230000  1
  C  C1124  1  0.30000000  0.35830000  0.25450000  1
  C  C1125  1  0.68460000  0.22670000  0.63930000  1
  C  C1126  1  0.40890000  0.08210000  0.36420000  1
  C  C1127  1  0.24630000  0.17530000  0.20260000  1
  C  C1128  1  0.78160000  0.32410000  0.73830000  1
  C  C1129  1  0.82410000  0.23830000  0.78160000  1
  C  C1130  1  0.72670000  0.13930000  0.68460000  1
  C  C1131  1  0.10700000  0.38790000  0.06530000  1
  C  C1132  1  0.19880000  0.25950000  0.15830000  1
  C  C1133  1  0.92880000  0.11450000  0.88850000  1
  C  C1134  1  0.68060000  0.02010000  0.64050000  1
  C  C1135  1  0.35890000  0.47800000  0.31930000  1
  C  C1136  1  0.84010000  0.44220000  0.80170000  1
  C  C1137  1  0.19980000  0.05810000  0.16230000  1
  C  C1138  1  0.88060000  0.24630000  0.84770000  1
  C  C1139  1  0.13290000  0.25170000  0.10080000  1
  C  C1140  1  0.69150000  0.06290000  0.66280000  1
  C  C1141  1  0.94040000  0.25470000  0.91230000  1
  C  C1142  1  0.07100000  0.24630000  0.04370000  1
  C  C1143  1  0.20870000  0.09890000  0.18140000  1
  C  C1144  1  0.80910000  0.39870000  0.78200000  1
  C  C1145  1  0.33000000  0.43710000  0.30330000  1
  C  C1146  1  0.93980000  0.15920000  0.91320000  1
  C  C1147  1  0.07140000  0.34430000  0.04690000  1
  C  C1148  1  0.14110000  0.46040000  0.11910000  1
  C  C1149  1  0.87960000  0.04010000  0.85950000  1
  C  C1150  1  0.10860000  0.41740000  0.09840000  1
  C  C1151  1  0.88980000  0.08260000  0.88080000  1
  N  N1152  1  0.16800000  0.52780000  0.17160000  1
  N  N1153  1  0.83290000  0.97340000  0.83690000  1
  N  N1154  1  0.64270000  0.48590000  0.65280000  1
  N  N1155  1  0.35140000  0.01560000  0.36280000  1
  N  N1156  1  0.14270000  0.48990000  0.15680000  1
  N  N1157  1  0.84720000  0.01140000  0.86280000  1
  N  N1158  1  0.63650000  0.99600000  0.66310000  1
  N  N1159  1  0.33200000  0.50360000  0.35980000  1
  N  N1160  1  0.85950000  0.83290000  0.99600000  1
  N  N1161  1  0.01140000  0.16420000  0.14860000  1
  N  N1162  1  0.02780000  0.67160000  0.16800000  1
  N  N1163  1  0.49600000  0.16310000  0.63650000  1
  N  N1164  1  0.34320000  0.33310000  0.48590000  1
  N  N1165  1  0.82840000  0.33200000  0.97220000  1
  N  N1166  1  0.83580000  0.84720000  0.98440000  1
  N  N1167  1  0.36280000  0.85140000  0.51560000  1
  N  N1168  1  0.98990000  0.65680000  0.14270000  1
  N  N1169  1  0.51010000  0.65280000  0.66690000  1
  N  N1170  1  0.97340000  0.14050000  0.13650000  1
  N  N1171  1  0.48440000  0.13720000  0.64860000  1
  N  N1172  1  0.84320000  0.35730000  0.01010000  1
  N  N1173  1  0.33690000  0.86350000  0.50400000  1
  N  N1174  1  0.32840000  0.35620000  0.49640000  1
  N  N1175  1  0.47220000  0.64020000  0.64380000  1
  N  N1176  1  0.00360000  0.85980000  0.33200000  1
  N  N1177  1  0.14020000  0.14380000  0.47220000  1
  N  N1178  1  0.64050000  0.63650000  0.97340000  1
  N  N1179  1  0.65280000  0.14270000  0.98590000  1
  N  N1180  1  0.51140000  0.36280000  0.84720000  1
  N  N1181  1  0.99600000  0.35950000  0.33290000  1
  N  N1182  1  0.01410000  0.84720000  0.35730000  1
  N  N1183  1  0.48590000  0.84320000  0.83310000  1
  N  N1184  1  0.66420000  0.64860000  0.01140000  1
  N  N1185  1  0.13720000  0.65280000  0.48860000  1
  N  N1186  1  0.64020000  0.16800000  0.99640000  1
  N  N1187  1  0.15280000  0.16690000  0.51010000  1
  N  N1188  1  0.47340000  0.33690000  0.83290000  1
  N  N1189  1  0.49640000  0.82840000  0.85620000  1
  N  N1190  1  0.98440000  0.33580000  0.34720000  1
  N  N1191  1  0.16310000  0.66710000  0.52660000  1
  N  N1192  1  0.85620000  0.99640000  0.32840000  1
  N  N1193  1  0.66710000  0.50400000  0.14050000  1
  N  N1194  1  0.85140000  0.48860000  0.33580000  1
  N  N1195  1  0.66690000  0.01010000  0.15280000  1
  N  N1196  1  0.34720000  0.48440000  0.83580000  1
  N  N1197  1  0.16690000  0.01410000  0.65680000  1
  N  N1198  1  0.86350000  0.52660000  0.35950000  1
  N  N1199  1  0.64380000  0.97220000  0.14020000  1
  N  N1200  1  0.35620000  0.02780000  0.85980000  1
  N  N1201  1  0.13650000  0.47340000  0.64050000  1
  N  N1202  1  0.83310000  0.98590000  0.34320000  1
  N  N1203  1  0.65280000  0.51560000  0.16420000  1
  N  N1204  1  0.33310000  0.98990000  0.84720000  1
  N  N1205  1  0.14860000  0.51140000  0.66420000  1
  N  N1206  1  0.33290000  0.49600000  0.85950000  1
  N  N1207  1  0.14380000  0.00360000  0.67160000  1
  N  N1208  1  0.83690000  0.33290000  0.47340000  1
  N  N1209  1  0.01560000  0.66420000  0.65280000  1
  N  N1210  1  0.50360000  0.17160000  0.14380000  1
  N  N1211  1  0.52660000  0.66310000  0.16710000  1
  N  N1212  1  0.84720000  0.83310000  0.48990000  1
  N  N1213  1  0.35980000  0.83200000  0.00360000  1
  N  N1214  1  0.86280000  0.34720000  0.51140000  1
  N  N1215  1  0.33580000  0.35140000  0.98860000  1
  N  N1216  1  0.51410000  0.15680000  0.16690000  1
  N  N1217  1  0.98590000  0.15280000  0.64270000  1
  N  N1218  1  0.00400000  0.64050000  0.66710000  1
  N  N1219  1  0.48860000  0.63720000  0.15280000  1
  N  N1220  1  0.34720000  0.85730000  0.01410000  1
  N  N1221  1  0.35950000  0.36350000  0.02660000  1
  N  N1222  1  0.85980000  0.85620000  0.52780000  1
  N  N1223  1  0.99640000  0.14020000  0.66800000  1
  N  N1224  1  0.52780000  0.35980000  0.35620000  1
  N  N1225  1  0.67160000  0.64380000  0.50360000  1
  N  N1226  1  0.66310000  0.13650000  0.49600000  1
  N  N1227  1  0.15680000  0.64270000  0.98990000  1
  N  N1228  1  0.51560000  0.86280000  0.35140000  1
  N  N1229  1  0.02660000  0.85950000  0.86350000  1
  N  N1230  1  0.48990000  0.34720000  0.33310000  1
  N  N1231  1  0.01010000  0.34320000  0.85730000  1
  N  N1232  1  0.63720000  0.14860000  0.48440000  1
  N  N1233  1  0.16420000  0.15280000  0.01560000  1
  N  N1234  1  0.17160000  0.66800000  0.02780000  1
  N  N1235  1  0.65680000  0.66690000  0.51410000  1
  N  N1236  1  0.50400000  0.83690000  0.36350000  1
  N  N1237  1  0.97220000  0.32840000  0.83200000  1
  N  N1238  1  0.98860000  0.83580000  0.85140000  1
  N  N1239  1  0.14050000  0.16710000  0.00400000  1
  N  N1240  1  0.66800000  0.49640000  0.64020000  1
  N  N1241  1  0.36350000  0.00400000  0.33690000  1
  N  N1242  1  0.15280000  0.98860000  0.13720000  1
  N  N1243  1  0.85730000  0.51010000  0.84320000  1
  N  N1244  1  0.64860000  0.98440000  0.63720000  1
  N  N1245  1  0.35730000  0.51410000  0.34720000  1
  N  N1246  1  0.16710000  0.02660000  0.16310000  1
  N  N1247  1  0.83200000  0.47220000  0.82840000  1
  O  O1248  1  0.73080000  0.23080000  0.73080000  1
  O  O1249  1  0.26920000  0.76920000  0.26920000  1
  O  O1250  1  0.24860000  0.26760000  0.25000000  1
  O  O1251  1  0.28280000  0.85560000  0.28700000  1
  O  O1252  1  0.80810000  0.71960000  0.81250000  1
  O  O1253  1  0.20810000  0.78360000  0.21310000  1
  O  O1254  1  0.68480000  0.74150000  0.69030000  1
  O  O1255  1  0.75830000  0.81380000  0.76390000  1
  O  O1256  1  0.72810000  0.64530000  0.73400000  1
  O  O1257  1  0.25300000  0.68790000  0.25970000  1
  O  O1258  1  0.32520000  0.75640000  0.33380000  1
  O  O1259  1  0.05900000  0.26310000  0.06970000  1
  O  O1260  1  0.91240000  0.23820000  0.92340000  1
  O  O1261  1  0.91850000  0.16990000  0.93080000  1
  O  O1262  1  0.05140000  0.33070000  0.06570000  1
  O  O1263  1  0.98100000  0.24860000  0.99860000  1
  O  O1264  1  0.49860000  0.75000000  0.51760000  1
  O  O1265  1  0.42600000  0.73910000  0.44730000  1
  O  O1266  1  0.56850000  0.75970000  0.59120000  1
  O  O1267  1  0.42820000  0.66380000  0.45180000  1
  O  O1268  1  0.56340000  0.83540000  0.58860000  1
  O  O1269  1  0.02360000  0.73560000  0.07180000  1
  O  O1270  1  0.94450000  0.75830000  0.99440000  1
  O  O1271  1  0.94330000  0.68480000  0.99450000  1
  O  O1272  1  0.43430000  0.26500000  0.48570000  1
  O  O1273  1  0.02130000  0.81310000  0.07400000  1
  O  O1274  1  0.49440000  0.23610000  0.54990000  1
  O  O1275  1  0.49450000  0.30970000  0.55120000  1
  O  O1276  1  0.43030000  0.19340000  0.48930000  1
  O  O1277  1  0.77200000  0.74680000  0.83540000  1
  O  O1278  1  0.18790000  0.75970000  0.25300000  1
  O  O1279  1  0.66930000  0.72070000  0.73500000  1
  O  O1280  1  0.69120000  0.66850000  0.75970000  1
  O  O1281  1  0.28700000  0.78280000  0.35560000  1
  O  O1282  1  0.25640000  0.83380000  0.32520000  1
  O  O1283  1  0.16990000  0.25140000  0.23910000  1
  O  O1284  1  0.73690000  0.79590000  0.80660000  1
  O  O1285  1  0.21310000  0.70810000  0.28360000  1
  O  O1286  1  0.26440000  0.28800000  0.33620000  1
  O  O1287  1  0.74030000  0.24700000  0.81210000  1
  O  O1288  1  0.64440000  0.21300000  0.71720000  1
  O  O1289  1  0.18690000  0.20820000  0.26090000  1
  O  O1290  1  0.71640000  0.28690000  0.79190000  1
  O  O1291  1  0.23820000  0.32580000  0.31480000  1
  O  O1292  1  0.66620000  0.17480000  0.74360000  1
  O  O1293  1  0.43080000  0.76090000  0.51230000  1
  O  O1294  1  0.50590000  0.73400000  0.58870000  1
  O  O1295  1  0.42340000  0.68520000  0.51100000  1
  O  O1296  1  0.50440000  0.81250000  0.59290000  1
  O  O1297  1  0.97480000  0.22800000  0.06340000  1
  O  O1298  1  0.91720000  0.27190000  0.00590000  1
  O  O1299  1  0.97730000  0.30880000  0.06850000  1
  O  O1300  1  0.91150000  0.19190000  0.00440000  1
  O  O1301  1  0.06860000  0.99580000  0.21300000  1
  O  O1302  1  0.77190000  0.50590000  0.91720000  1
  O  O1303  1  0.07180000  0.52360000  0.23560000  1
  O  O1304  1  0.74680000  0.97480000  0.91140000  1
  O  O1305  1  0.00860000  0.93120000  0.17480000  1
  O  O1306  1  0.80880000  0.56850000  0.97730000  1
  O  O1307  1  0.55140000  0.48570000  0.72070000  1
  O  O1308  1  0.26090000  0.01230000  0.43080000  1
  O  O1309  1  0.73820000  0.42340000  0.91240000  1
  O  O1310  1  0.06880000  0.07740000  0.24360000  1
  O  O1311  1  0.55670000  0.55120000  0.74150000  1
  O  O1312  1  0.07660000  0.58760000  0.26180000  1
  O  O1313  1  0.54990000  0.99440000  0.73610000  1
  O  O1314  1  0.23910000  0.94730000  0.42600000  1
  O  O1315  1  0.71960000  0.91150000  0.90710000  1
  O  O1316  1  0.24700000  0.50670000  0.43490000  1
  O  O1317  1  0.99450000  0.44330000  0.18480000  1
  O  O1318  1  0.47730000  0.40880000  0.66850000  1
  O  O1319  1  0.31250000  0.09290000  0.50440000  1
  O  O1320  1  0.79590000  0.05900000  0.98930000  1
  O  O1321  1  0.48930000  0.93030000  0.69340000  1
  O  O1322  1  0.28690000  0.57050000  0.49500000  1
  O  O1323  1  0.55270000  0.07400000  0.76090000  1
  O  O1324  1  0.76440000  0.42820000  0.97640000  1
  O  O1325  1  0.00420000  0.07280000  0.21720000  1
  O  O1326  1  0.21640000  0.42450000  0.42950000  1
  O  O1327  1  0.07050000  0.99500000  0.28690000  1
  O  O1328  1  0.92720000  0.93140000  0.14440000  1
  O  O1329  1  0.69190000  0.50440000  0.91150000  1
  O  O1330  1  0.83070000  0.56570000  0.05140000  1
  O  O1331  1  0.33540000  0.08860000  0.56340000  1
  O  O1332  1  0.41720000  0.41130000  0.64530000  1
  O  O1333  1  0.00000000  0.00000000  0.23080000  1
  O  O1334  1  0.74860000  0.49860000  0.98100000  1
  O  O1335  1  0.99410000  0.58280000  0.22810000  1
  O  O1336  1  0.93430000  0.44860000  0.16930000  1
  O  O1337  1  0.47640000  0.54820000  0.71200000  1
  O  O1338  1  0.81380000  0.05550000  0.04990000  1
  O  O1339  1  0.55900000  0.48930000  0.79590000  1
  O  O1340  1  0.18520000  0.01100000  0.42340000  1
  O  O1341  1  0.74860000  0.91850000  0.98770000  1
  O  O1342  1  0.07400000  0.52130000  0.31310000  1
  O  O1343  1  0.66850000  0.97730000  0.90880000  1
  O  O1344  1  0.00670000  0.93490000  0.24700000  1
  O  O1345  1  0.81520000  0.50550000  0.05670000  1
  O  O1346  1  0.26390000  0.95010000  0.50560000  1
  O  O1347  1  0.92260000  0.99140000  0.16620000  1
  O  O1348  1  0.72800000  0.56340000  0.97480000  1
  O  O1349  1  0.06510000  0.07180000  0.31210000  1
  O  O1350  1  0.66990000  0.43080000  0.91850000  1
  O  O1351  1  0.25000000  0.01760000  0.49860000  1
  O  O1352  1  0.73240000  0.98100000  0.98240000  1
  O  O1353  1  0.00140000  0.51900000  0.25140000  1
  O  O1354  1  0.48100000  0.48240000  0.73240000  1
  O  O1355  1  0.48770000  0.06920000  0.73910000  1
  O  O1356  1  0.24030000  0.42820000  0.49330000  1
  O  O1357  1  0.41140000  0.93660000  0.66460000  1
  O  O1358  1  0.17480000  0.50860000  0.43120000  1
  O  O1359  1  0.55550000  0.54990000  0.81380000  1
  O  O1360  1  0.55120000  0.99450000  0.80970000  1
  O  O1361  1  0.31210000  0.56510000  0.57180000  1
  O  O1362  1  0.93150000  0.52270000  0.19120000  1
  O  O1363  1  0.79180000  0.97870000  0.05270000  1
  O  O1364  1  0.06920000  0.58150000  0.33010000  1
  O  O1365  1  0.41240000  0.48900000  0.67420000  1
  O  O1366  1  0.30660000  0.01070000  0.56970000  1
  O  O1367  1  0.99440000  0.44450000  0.25830000  1
  O  O1368  1  0.16380000  0.95180000  0.42820000  1
  O  O1369  1  0.72070000  0.05140000  0.98570000  1
  O  O1370  1  0.64530000  0.91720000  0.91130000  1
  O  O1371  1  0.48240000  0.00140000  0.75000000  1
  O  O1372  1  0.23080000  0.50000000  0.50000000  1
  O  O1373  1  0.23400000  0.08870000  0.50590000  1
  O  O1374  1  0.47480000  0.41140000  0.74680000  1
  O  O1375  1  0.48570000  0.93430000  0.76500000  1
  O  O1376  1  0.40710000  0.99560000  0.68750000  1
  O  O1377  1  0.21300000  0.56860000  0.49580000  1
  O  O1378  1  0.29190000  0.50500000  0.57550000  1
  O  O1379  1  0.00500000  0.07550000  0.29190000  1
  O  O1380  1  0.14440000  0.42720000  0.43140000  1
  O  O1381  1  0.54820000  0.07180000  0.83620000  1
  O  O1382  1  0.68690000  0.42600000  0.97870000  1
  O  O1383  1  0.92450000  0.92950000  0.21640000  1
  O  O1384  1  0.76310000  0.56970000  0.05900000  1
  O  O1385  1  0.93030000  0.44100000  0.23690000  1
  O  O1386  1  0.41150000  0.40710000  0.71960000  1
  O  O1387  1  0.25970000  0.09120000  0.56850000  1
  O  O1388  1  0.74150000  0.05670000  0.05120000  1
  O  O1389  1  0.92820000  0.99330000  0.24030000  1
  O  O1390  1  0.99560000  0.58850000  0.30810000  1
  O  O1391  1  0.47870000  0.55270000  0.79180000  1
  O  O1392  1  0.74170000  0.50560000  0.05550000  1
  O  O1393  1  0.67420000  0.91240000  0.98900000  1
  O  O1394  1  0.19030000  0.94880000  0.50550000  1
  O  O1395  1  0.16620000  0.42260000  0.49140000  1
  O  O1396  1  0.48900000  0.07660000  0.81480000  1
  O  O1397  1  0.41850000  0.48770000  0.74860000  1
  O  O1398  1  0.23500000  0.01430000  0.56570000  1
  O  O1399  1  0.40880000  0.93150000  0.74030000  1
  O  O1400  1  0.24360000  0.56880000  0.57740000  1
  O  O1401  1  0.93660000  0.52520000  0.27200000  1
  O  O1402  1  0.71200000  0.97640000  0.04820000  1
  O  O1403  1  0.41130000  0.99410000  0.76600000  1
  O  O1404  1  0.21720000  0.50420000  0.57280000  1
  O  O1405  1  0.81250000  0.30810000  0.21960000  1
  O  O1406  1  0.75970000  0.19120000  0.16850000  1
  O  O1407  1  0.73400000  0.22810000  0.14530000  1
  O  O1408  1  0.83540000  0.27200000  0.24680000  1
  O  O1409  1  0.78040000  0.68750000  0.19190000  1
  O  O1410  1  0.82580000  0.81480000  0.23820000  1
  O  O1411  1  0.85470000  0.76600000  0.27190000  1
  O  O1412  1  0.75140000  0.73910000  0.16990000  1
  O  O1413  1  0.56880000  0.32520000  0.99140000  1
  O  O1414  1  0.98900000  0.17420000  0.41240000  1
  O  O1415  1  0.50500000  0.21310000  0.92950000  1
  O  O1416  1  0.05270000  0.29180000  0.47870000  1
  O  O1417  1  0.50420000  0.28700000  0.93140000  1
  O  O1418  1  0.04820000  0.21200000  0.47640000  1
  O  O1419  1  0.56510000  0.25300000  0.99330000  1
  O  O1420  1  0.57550000  0.79190000  0.00500000  1
  O  O1421  1  0.01070000  0.70410000  0.44100000  1
  O  O1422  1  0.98770000  0.24860000  0.41850000  1
  O  O1423  1  0.49140000  0.66620000  0.92260000  1
  O  O1424  1  0.57280000  0.71720000  0.00420000  1
  O  O1425  1  0.09120000  0.83150000  0.52270000  1
  O  O1426  1  0.01430000  0.77930000  0.44860000  1
  O  O1427  1  0.49330000  0.74030000  0.92820000  1
  O  O1428  1  0.08860000  0.75320000  0.52520000  1
  O  O1429  1  0.29590000  0.30660000  0.73690000  1
  O  O1430  1  0.24150000  0.19030000  0.68480000  1
  O  O1431  1  0.31380000  0.26390000  0.75830000  1
  O  O1432  1  0.26090000  0.68690000  0.70820000  1
  O  O1433  1  0.22070000  0.23500000  0.66930000  1
  O  O1434  1  0.30970000  0.81520000  0.75850000  1
  O  O1435  1  0.23610000  0.74170000  0.68620000  1
  O  O1436  1  0.33620000  0.76440000  0.78800000  1
  O  O1437  1  0.75320000  0.66460000  0.22800000  1
  O  O1438  1  0.78800000  0.83620000  0.26440000  1
  O  O1439  1  0.83150000  0.74030000  0.30880000  1
  O  O1440  1  0.70820000  0.76090000  0.18690000  1
  O  O1441  1  0.76760000  0.75000000  0.24860000  1
  O  O1442  1  0.75000000  0.25140000  0.23240000  1
  O  O1443  1  0.73500000  0.16930000  0.22070000  1
  O  O1444  1  0.76090000  0.33010000  0.24860000  1
  O  O1445  1  0.68520000  0.26180000  0.17420000  1
  O  O1446  1  0.80660000  0.23690000  0.29590000  1
  O  O1447  1  0.57740000  0.74360000  0.06880000  1
  O  O1448  1  0.57180000  0.81210000  0.06510000  1
  O  O1449  1  0.08870000  0.85470000  0.58280000  1
  O  O1450  1  0.95010000  0.68620000  0.44450000  1
  O  O1451  1  0.94880000  0.75850000  0.44330000  1
  O  O1452  1  0.42950000  0.71640000  0.92450000  1
  O  O1453  1  0.09290000  0.78040000  0.58850000  1
  O  O1454  1  0.43140000  0.64440000  0.92720000  1
  O  O1455  1  0.98240000  0.23240000  0.48100000  1
  O  O1456  1  0.50000000  0.73080000  0.00000000  1
  O  O1457  1  0.50000000  0.26920000  1.00000000  1
  O  O1458  1  0.01760000  0.76760000  0.51900000  1
  O  O1459  1  0.56860000  0.35560000  0.07280000  1
  O  O1460  1  0.90710000  0.21960000  0.41150000  1
  O  O1461  1  0.57050000  0.28360000  0.07550000  1
  O  O1462  1  0.05120000  0.24150000  0.55670000  1
  O  O1463  1  0.04990000  0.31380000  0.55550000  1
  O  O1464  1  0.91130000  0.14530000  0.41720000  1
  O  O1465  1  0.42820000  0.18790000  0.93490000  1
  O  O1466  1  0.42260000  0.25640000  0.93120000  1
  O  O1467  1  0.19340000  0.76310000  0.70410000  1
  O  O1468  1  0.31480000  0.73820000  0.82580000  1
  O  O1469  1  0.23910000  0.66990000  0.75140000  1
  O  O1470  1  0.26500000  0.83070000  0.77930000  1
  O  O1471  1  0.25000000  0.74860000  0.76760000  1
  O  O1472  1  0.23240000  0.25000000  0.75140000  1
  O  O1473  1  0.29180000  0.23910000  0.81310000  1
  O  O1474  1  0.16850000  0.25970000  0.69120000  1
  O  O1475  1  0.21200000  0.16380000  0.73560000  1
  O  O1476  1  0.24680000  0.33540000  0.77200000  1
  O  O1477  1  0.66380000  0.23560000  0.21200000  1
  O  O1478  1  0.76390000  0.25830000  0.31380000  1
  O  O1479  1  0.69030000  0.18480000  0.24150000  1
  O  O1480  1  0.77930000  0.76500000  0.33070000  1
  O  O1481  1  0.73910000  0.31310000  0.29180000  1
  O  O1482  1  0.68620000  0.73610000  0.24170000  1
  O  O1483  1  0.75850000  0.80970000  0.31520000  1
  O  O1484  1  0.70410000  0.69340000  0.26310000  1
  O  O1485  1  0.91140000  0.24680000  0.47480000  1
  O  O1486  1  0.50670000  0.25970000  0.07180000  1
  O  O1487  1  0.98570000  0.22070000  0.55140000  1
  O  O1488  1  0.90880000  0.16850000  0.47730000  1
  O  O1489  1  0.42720000  0.28280000  0.99580000  1
  O  O1490  1  0.50860000  0.33380000  0.07740000  1
  O  O1491  1  0.01230000  0.75140000  0.58150000  1
  O  O1492  1  0.98930000  0.29590000  0.55900000  1
  O  O1493  1  0.42450000  0.20810000  0.99500000  1
  O  O1494  1  0.43490000  0.74700000  0.00670000  1
  O  O1495  1  0.95180000  0.78800000  0.52360000  1
  O  O1496  1  0.49580000  0.71300000  0.06860000  1
  O  O1497  1  0.94730000  0.70820000  0.52130000  1
  O  O1498  1  0.49500000  0.78690000  0.07050000  1
  O  O1499  1  0.01100000  0.82580000  0.58760000  1
  O  O1500  1  0.43120000  0.67480000  0.00860000  1
  O  O1501  1  0.24860000  0.26090000  0.83010000  1
  O  O1502  1  0.14530000  0.23400000  0.72810000  1
  O  O1503  1  0.17420000  0.18520000  0.76180000  1
  O  O1504  1  0.21960000  0.31250000  0.80810000  1
  O  O1505  1  0.16460000  0.72800000  0.75320000  1
  O  O1506  1  0.26600000  0.77190000  0.85470000  1
  O  O1507  1  0.24030000  0.80880000  0.83150000  1
  O  O1508  1  0.18750000  0.69190000  0.78040000  1
  O  O1509  1  0.78280000  0.49580000  0.42720000  1
  O  O1510  1  0.58870000  0.00590000  0.23400000  1
  O  O1511  1  0.28800000  0.02360000  0.95180000  1
  O  O1512  1  0.06340000  0.47480000  0.72800000  1
  O  O1513  1  0.75640000  0.43120000  0.42260000  1
  O  O1514  1  0.59120000  0.06850000  0.25970000  1
  O  O1515  1  0.76500000  0.98570000  0.43430000  1
  O  O1516  1  0.58150000  0.51230000  0.25140000  1
  O  O1517  1  0.51100000  0.92340000  0.18520000  1
  O  O1518  1  0.83380000  0.57740000  0.50860000  1
  O  O1519  1  0.80970000  0.05120000  0.49450000  1
  O  O1520  1  0.32580000  0.08760000  0.01100000  1
  O  O1521  1  0.25830000  0.49440000  0.94450000  1
  O  O1522  1  0.52130000  0.44730000  0.20820000  1
  O  O1523  1  0.00440000  0.41150000  0.69190000  1
  O  O1524  1  0.07180000  0.00670000  0.75970000  1
  O  O1525  1  0.25850000  0.94330000  0.94880000  1
  O  O1526  1  0.74030000  0.90880000  0.43150000  1
  O  O1527  1  0.58850000  0.59290000  0.28040000  1
  O  O1528  1  0.06970000  0.55900000  0.76310000  1
  O  O1529  1  0.23690000  0.43030000  0.94100000  1
  O  O1530  1  0.07550000  0.07050000  0.78360000  1
  O  O1531  1  0.31310000  0.57400000  0.02130000  1
  O  O1532  1  0.45180000  0.92820000  0.16380000  1
  O  O1533  1  0.85560000  0.57280000  0.56860000  1
  O  O1534  1  0.99500000  0.92450000  0.70810000  1
  O  O1535  1  0.70810000  0.49500000  0.42450000  1
  O  O1536  1  0.78700000  0.43140000  0.50420000  1
  O  O1537  1  0.59290000  0.00440000  0.31250000  1
  O  O1538  1  0.51430000  0.06570000  0.23500000  1
  O  O1539  1  0.52520000  0.58860000  0.25320000  1
  O  O1540  1  0.76600000  0.91130000  0.49410000  1
  O  O1541  1  0.76920000  0.50000000  0.50000000  1
  O  O1542  1  0.51760000  0.99860000  0.25000000  1
  O  O1543  1  0.35470000  0.08280000  0.08870000  1
  O  O1544  1  0.27930000  0.94860000  0.01430000  1
  O  O1545  1  0.83620000  0.04820000  0.57180000  1
  O  O1546  1  0.00560000  0.55550000  0.74170000  1
  O  O1547  1  0.69340000  0.98930000  0.43030000  1
  O  O1548  1  0.58760000  0.51100000  0.32580000  1
  O  O1549  1  0.93080000  0.41850000  0.66990000  1
  O  O1550  1  0.20820000  0.02130000  0.94730000  1
  O  O1551  1  0.06850000  0.47730000  0.80880000  1
  O  O1552  1  0.68790000  0.43490000  0.42820000  1
  O  O1553  1  0.44880000  0.00550000  0.19030000  1
  O  O1554  1  0.44450000  0.45010000  0.18620000  1
  O  O1555  1  0.82520000  0.49140000  0.56880000  1
  O  O1556  1  0.58860000  0.06340000  0.33540000  1
  O  O1557  1  0.75970000  0.57180000  0.50670000  1
  O  O1558  1  0.51230000  0.93080000  0.26090000  1
  O  O1559  1  0.51900000  0.51760000  0.26760000  1
  O  O1560  1  0.99860000  0.48100000  0.74860000  1
  O  O1561  1  0.26760000  0.01900000  0.01760000  1
  O  O1562  1  0.75000000  0.98240000  0.50140000  1
  O  O1563  1  0.33010000  0.56920000  0.08150000  1
  O  O1564  1  0.93490000  0.92820000  0.68790000  1
  O  O1565  1  0.27200000  0.43660000  0.02520000  1
  O  O1566  1  0.07740000  0.00860000  0.83380000  1
  O  O1567  1  0.73610000  0.04990000  0.49440000  1
  O  O1568  1  0.18480000  0.49450000  0.94330000  1
  O  O1569  1  0.99330000  0.06510000  0.75300000  1
  O  O1570  1  0.33150000  0.02270000  0.09120000  1
  O  O1571  1  0.92600000  0.47870000  0.68690000  1
  O  O1572  1  0.25140000  0.08150000  0.01230000  1
  O  O1573  1  0.81480000  0.98900000  0.57660000  1
  O  O1574  1  0.44100000  0.51070000  0.20410000  1
  O  O1575  1  0.18620000  0.94450000  0.95010000  1
  O  O1576  1  0.52360000  0.45180000  0.28800000  1
  O  O1577  1  0.06570000  0.55140000  0.83070000  1
  O  O1578  1  0.00590000  0.41720000  0.77190000  1
  O  O1579  1  0.25140000  0.50140000  0.01900000  1
  O  O1580  1  0.00000000  0.00000000  0.76920000  1
  O  O1581  1  0.58280000  0.58870000  0.35470000  1
  O  O1582  1  0.66460000  0.91140000  0.43660000  1
  O  O1583  1  0.16930000  0.43430000  0.94860000  1
  O  O1584  1  0.30810000  0.49560000  0.08850000  1
  O  O1585  1  0.07280000  0.06860000  0.85560000  1
  O  O1586  1  0.92950000  0.00500000  0.71310000  1
  O  O1587  1  0.78360000  0.57550000  0.57050000  1
  O  O1588  1  0.99580000  0.92720000  0.78280000  1
  O  O1589  1  0.23560000  0.57180000  0.02360000  1
  O  O1590  1  0.44730000  0.92600000  0.23910000  1
  O  O1591  1  0.71310000  0.42950000  0.50500000  1
  O  O1592  1  0.51070000  0.06970000  0.30660000  1
  O  O1593  1  0.20410000  0.94100000  0.01070000  1
  O  O1594  1  0.68750000  0.90710000  0.49560000  1
  O  O1595  1  0.52270000  0.59120000  0.33150000  1
  O  O1596  1  0.00550000  0.55670000  0.81520000  1
  O  O1597  1  0.75300000  0.49330000  0.56510000  1
  O  O1598  1  0.28040000  0.08850000  0.09290000  1
  O  O1599  1  0.76090000  0.05270000  0.57400000  1
  O  O1600  1  0.45010000  0.00560000  0.26390000  1
  O  O1601  1  0.92340000  0.41240000  0.73820000  1
  O  O1602  1  0.44330000  0.44880000  0.25850000  1
  O  O1603  1  0.93120000  0.92260000  0.75640000  1
  O  O1604  1  0.26180000  0.57660000  0.08760000  1
  O  O1605  1  0.73910000  0.98770000  0.56920000  1
  O  O1606  1  0.44860000  0.51430000  0.27930000  1
  O  O1607  1  0.19120000  0.43150000  0.02270000  1
  O  O1608  1  0.99140000  0.06880000  0.82520000  1
  O  O1609  1  0.25320000  0.02520000  0.08860000  1
  O  O1610  1  0.92820000  0.47640000  0.76440000  1
  O  O1611  1  0.22810000  0.49410000  0.08280000  1
  O  O1612  1  0.93140000  0.00420000  0.78700000  1
  O  O1613  1  0.08850000  0.80810000  0.99560000  1
  O  O1614  1  0.02270000  0.69120000  0.93150000  1
  O  O1615  1  0.08280000  0.72810000  0.99410000  1
  O  O1616  1  0.02520000  0.77200000  0.93660000  1
  O  O1617  1  0.49560000  0.18750000  0.40710000  1
  O  O1618  1  0.57660000  0.31480000  0.48900000  1
  O  O1619  1  0.49410000  0.26600000  0.41130000  1
  O  O1620  1  0.56920000  0.23910000  0.48770000  1
  O  O1621  1  0.33380000  0.82520000  0.25640000  1
  O  O1622  1  0.76180000  0.67420000  0.68520000  1
  O  O1623  1  0.28360000  0.71310000  0.20810000  1
  O  O1624  1  0.81310000  0.79180000  0.73910000  1
  O  O1625  1  0.35560000  0.78700000  0.28280000  1
  O  O1626  1  0.25970000  0.75300000  0.18790000  1
  O  O1627  1  0.73560000  0.71200000  0.66380000  1
  O  O1628  1  0.78690000  0.29190000  0.71640000  1
  O  O1629  1  0.26310000  0.20410000  0.19340000  1
  O  O1630  1  0.83010000  0.74860000  0.76090000  1
  O  O1631  1  0.74360000  0.16620000  0.67480000  1
  O  O1632  1  0.71300000  0.21720000  0.64440000  1
  O  O1633  1  0.30880000  0.33150000  0.24030000  1
  O  O1634  1  0.33070000  0.27930000  0.26500000  1
  O  O1635  1  0.81210000  0.24030000  0.74700000  1
  O  O1636  1  0.22800000  0.25320000  0.16460000  1
  O  O1637  1  0.56970000  0.80660000  0.51070000  1
  O  O1638  1  0.50550000  0.69030000  0.44880000  1
  O  O1639  1  0.50560000  0.76390000  0.45010000  1
  O  O1640  1  0.97870000  0.18690000  0.92600000  1
  O  O1641  1  0.56570000  0.73500000  0.51430000  1
  O  O1642  1  0.05670000  0.31520000  0.00550000  1
  O  O1643  1  0.05550000  0.24170000  0.00560000  1
  O  O1644  1  0.97640000  0.26440000  0.92820000  1
  O  O1645  1  0.43660000  0.16460000  0.41140000  1
  O  O1646  1  0.57180000  0.33620000  0.54820000  1
  O  O1647  1  0.43150000  0.24030000  0.40880000  1
  O  O1648  1  0.57400000  0.26090000  0.55270000  1
  O  O1649  1  0.50140000  0.25000000  0.48240000  1
  O  O1650  1  0.01900000  0.75140000  0.00140000  1
  O  O1651  1  0.94860000  0.66930000  0.93430000  1
  O  O1652  1  0.08150000  0.83010000  0.06920000  1
  O  O1653  1  0.08760000  0.76180000  0.07660000  1
  O  O1654  1  0.94100000  0.73690000  0.93030000  1
  O  O1655  1  0.67480000  0.24360000  0.66620000  1
  O  O1656  1  0.74700000  0.31210000  0.74030000  1
  O  O1657  1  0.27190000  0.35470000  0.26600000  1
  O  O1658  1  0.24170000  0.18620000  0.23610000  1
  O  O1659  1  0.31520000  0.25850000  0.30970000  1
  O  O1660  1  0.79190000  0.21640000  0.78690000  1
  O  O1661  1  0.19190000  0.28040000  0.18750000  1
  O  O1662  1  0.71720000  0.14440000  0.71300000  1
  O  O1663  1  0.75140000  0.73240000  0.75000000  1
