# generated using pymatgen
data_TbH3(C3O2)3
_symmetry_space_group_name_H-M   'P 1'
_cell_length_a   10.33000000
_cell_length_b   10.33000000
_cell_length_c   14.51000000
_cell_angle_alpha   90.00000000
_cell_angle_beta   90.00000000
_cell_angle_gamma   90.00000000
_symmetry_Int_Tables_number   1
_chemical_formula_structural   TbH3(C3O2)3
_chemical_formula_sum   'Tb4 H12 C36 O24'
_cell_volume   1548.34613900
_cell_formula_units_Z   4
loop_
 _symmetry_equiv_pos_site_id
 _symmetry_equiv_pos_as_xyz
  1  'x, y, z'
loop_
 _atom_site_type_symbol
 _atom_site_label
 _atom_site_symmetry_multiplicity
 _atom_site_fract_x
 _atom_site_fract_y
 _atom_site_fract_z
 _atom_site_occupancy
  Tb  Tb0  1  0.14702000  0.14702000  0.37500000  1
  Tb  Tb1  1  0.14702000  0.85298000  0.12500000  1
  Tb  Tb2  1  0.85298000  0.14702000  0.62500000  1
  Tb  Tb3  1  0.85298000  0.85298000  0.87500000  1
  H  H4  1  0.00000000  0.10440000  0.00000000  1
  H  H5  1  0.00000000  0.89560000  0.50000000  1
  H  H6  1  0.07190000  0.44130000  0.12880000  1
  H  H7  1  0.07190000  0.55870000  0.37120000  1
  H  H8  1  0.10440000  0.00000000  0.75000000  1
  H  H9  1  0.44130000  0.07190000  0.62120000  1
  H  H10  1  0.44130000  0.92810000  0.87880000  1
  H  H11  1  0.55870000  0.07190000  0.37880000  1
  H  H12  1  0.55870000  0.92810000  0.12120000  1
  H  H13  1  0.89560000  0.00000000  0.25000000  1
  H  H14  1  0.92810000  0.44130000  0.87120000  1
  H  H15  1  0.92810000  0.55870000  0.62880000  1
  C  C16  1  0.00000000  0.19450000  0.00000000  1
  C  C17  1  0.00000000  0.39060000  0.50000000  1
  C  C18  1  0.00000000  0.46400000  0.00000000  1
  C  C19  1  0.00000000  0.53600000  0.50000000  1
  C  C20  1  0.00000000  0.60940000  0.00000000  1
  C  C21  1  0.00000000  0.80550000  0.50000000  1
  C  C22  1  0.04280000  0.26160000  0.07770000  1
  C  C23  1  0.04280000  0.73840000  0.42230000  1
  C  C24  1  0.04300000  0.39620000  0.07730000  1
  C  C25  1  0.04300000  0.60380000  0.42270000  1
  C  C26  1  0.08560000  0.18620000  0.16040000  1
  C  C27  1  0.08560000  0.81380000  0.33960000  1
  C  C28  1  0.18620000  0.08560000  0.58960000  1
  C  C29  1  0.18620000  0.91440000  0.91040000  1
  C  C30  1  0.19450000  0.00000000  0.75000000  1
  C  C31  1  0.26160000  0.04280000  0.67230000  1
  C  C32  1  0.26160000  0.95720000  0.82770000  1
  C  C33  1  0.39060000  0.00000000  0.25000000  1
  C  C34  1  0.39620000  0.04300000  0.67270000  1
  C  C35  1  0.39620000  0.95700000  0.82730000  1
  C  C36  1  0.46400000  0.00000000  0.75000000  1
  C  C37  1  0.53600000  0.00000000  0.25000000  1
  C  C38  1  0.60380000  0.04300000  0.32730000  1
  C  C39  1  0.60380000  0.95700000  0.17270000  1
  C  C40  1  0.60940000  0.00000000  0.75000000  1
  C  C41  1  0.73840000  0.04280000  0.32770000  1
  C  C42  1  0.73840000  0.95720000  0.17230000  1
  C  C43  1  0.80550000  0.00000000  0.25000000  1
  C  C44  1  0.81380000  0.08560000  0.41040000  1
  C  C45  1  0.81380000  0.91440000  0.08960000  1
  C  C46  1  0.91440000  0.18620000  0.83960000  1
  C  C47  1  0.91440000  0.81380000  0.66040000  1
  C  C48  1  0.95700000  0.39620000  0.92270000  1
  C  C49  1  0.95700000  0.60380000  0.57730000  1
  C  C50  1  0.95720000  0.26160000  0.92230000  1
  C  C51  1  0.95720000  0.73840000  0.57770000  1
  O  O52  1  0.06950000  0.33590000  0.44120000  1
  O  O53  1  0.06950000  0.66410000  0.05880000  1
  O  O54  1  0.07090000  0.10900000  0.59790000  1
  O  O55  1  0.07090000  0.89100000  0.90210000  1
  O  O56  1  0.09240000  0.24400000  0.23611000  1
  O  O57  1  0.09240000  0.75600000  0.26389000  1
  O  O58  1  0.10900000  0.07090000  0.15210000  1
  O  O59  1  0.10900000  0.92910000  0.34790000  1
  O  O60  1  0.24400000  0.09240000  0.51389000  1
  O  O61  1  0.24400000  0.90760000  0.98611000  1
  O  O62  1  0.33590000  0.06950000  0.30880000  1
  O  O63  1  0.33590000  0.93050000  0.19120000  1
  O  O64  1  0.66410000  0.06950000  0.69120000  1
  O  O65  1  0.66410000  0.93050000  0.80880000  1
  O  O66  1  0.75600000  0.09240000  0.48611000  1
  O  O67  1  0.75600000  0.90760000  0.01389000  1
  O  O68  1  0.89100000  0.07090000  0.84790000  1
  O  O69  1  0.89100000  0.92910000  0.65210000  1
  O  O70  1  0.90760000  0.24400000  0.76389000  1
  O  O71  1  0.90760000  0.75600000  0.73611000  1
  O  O72  1  0.92910000  0.10900000  0.40210000  1
  O  O73  1  0.92910000  0.89100000  0.09790000  1
  O  O74  1  0.93050000  0.33590000  0.55880000  1
  O  O75  1  0.93050000  0.66410000  0.94120000  1
