# generated using pymatgen
data_Ce2Cu2H5(C5O4)5
_symmetry_space_group_name_H-M   'P 1'
_cell_length_a   10.99400000
_cell_length_b   19.83800000
_cell_length_c   23.09800000
_cell_angle_alpha   90.00000000
_cell_angle_beta   90.00000000
_cell_angle_gamma   99.89000000
_symmetry_Int_Tables_number   1
_chemical_formula_structural   Ce2Cu2H5(C5O4)5
_chemical_formula_sum   'Ce8 Cu8 H20 C100 O80'
_cell_volume   4962.78714197
_cell_formula_units_Z   4
loop_
 _symmetry_equiv_pos_site_id
 _symmetry_equiv_pos_as_xyz
  1  'x, y, z'
loop_
 _atom_site_type_symbol
 _atom_site_label
 _atom_site_symmetry_multiplicity
 _atom_site_fract_x
 _atom_site_fract_y
 _atom_site_fract_z
 _atom_site_occupancy
  Ce  Ce0  1  0.03963000  0.89897000  0.35472000  1
  Ce  Ce1  1  0.14735000  0.85404000  0.85580000  1
  Ce  Ce2  1  0.35265000  0.64596000  0.35580000  1
  Ce  Ce3  1  0.46037000  0.60103000  0.85472000  1
  Ce  Ce4  1  0.53963000  0.39897000  0.14528000  1
  Ce  Ce5  1  0.64735000  0.35404000  0.64420000  1
  Ce  Ce6  1  0.85265000  0.14596000  0.14420000  1
  Ce  Ce7  1  0.96037000  0.10103000  0.64528000  1
  Cu  Cu8  1  0.09132000  0.89849000  0.17861000  1
  Cu  Cu9  1  0.19708000  0.84882000  0.67930000  1
  Cu  Cu10  1  0.30292000  0.65118000  0.17930000  1
  Cu  Cu11  1  0.40868000  0.60151000  0.67861000  1
  Cu  Cu12  1  0.59132000  0.39849000  0.32139000  1
  Cu  Cu13  1  0.69708000  0.34882000  0.82070000  1
  Cu  Cu14  1  0.80292000  0.15118000  0.32070000  1
  Cu  Cu15  1  0.90868000  0.10151000  0.82139000  1
  H  H16  1  0.01750000  0.49140000  0.30450000  1
  H  H17  1  0.08180000  0.45850000  0.08210000  1
  H  H18  1  0.11010000  0.30730000  0.19970000  1
  H  H19  1  0.12100000  0.44280000  0.80450000  1
  H  H20  1  0.22700000  0.25710000  0.70590000  1
  H  H21  1  0.27300000  0.24290000  0.20590000  1
  H  H22  1  0.37900000  0.05720000  0.30450000  1
  H  H23  1  0.38990000  0.19270000  0.69970000  1
  H  H24  1  0.41820000  0.04150000  0.58210000  1
  H  H25  1  0.48250000  0.00860000  0.80450000  1
  H  H26  1  0.51750000  0.99140000  0.19550000  1
  H  H27  1  0.58180000  0.95850000  0.41790000  1
  H  H28  1  0.61010000  0.80730000  0.30030000  1
  H  H29  1  0.62100000  0.94280000  0.69550000  1
  H  H30  1  0.72700000  0.75710000  0.79410000  1
  H  H31  1  0.77300000  0.74290000  0.29410000  1
  H  H32  1  0.87900000  0.55720000  0.19550000  1
  H  H33  1  0.88990000  0.69270000  0.80030000  1
  H  H34  1  0.91820000  0.54150000  0.91790000  1
  H  H35  1  0.98250000  0.50860000  0.69550000  1
  C  C36  1  0.00780000  0.66590000  0.74100000  1
  C  C37  1  0.03500000  0.21370000  0.77090000  1
  C  C38  1  0.03660000  0.60990000  0.70960000  1
  C  C39  1  0.03670000  0.45430000  0.28400000  1
  C  C40  1  0.04630000  0.66430000  0.17390000  1
  C  C41  1  0.04920000  0.47510000  0.04890000  1
  C  C42  1  0.07100000  0.34080000  0.79150000  1
  C  C43  1  0.07680000  0.73670000  0.73150000  1
  C  C44  1  0.07840000  0.52430000  0.95450000  1
  C  C45  1  0.09280000  0.34390000  0.22150000  1
  C  C46  1  0.10130000  0.13650000  0.18780000  1
  C  C47  1  0.10310000  0.28490000  0.76210000  1
  C  C48  1  0.12630000  0.49890000  0.00370000  1
  C  C49  1  0.13920000  0.46360000  0.24680000  1
  C  C50  1  0.14290000  0.40560000  0.78500000  1
  C  C51  1  0.14990000  0.61340000  0.67220000  1
  C  C52  1  0.15770000  0.55380000  0.90500000  1
  C  C53  1  0.16740000  0.40720000  0.21600000  1
  C  C54  1  0.18480000  0.01370000  0.24020000  1
  C  C55  1  0.20650000  0.29420000  0.72600000  1
  C  C56  1  0.20880000  0.53500000  0.23910000  1
  C  C57  1  0.21250000  0.08730000  0.68330000  1
  C  C58  1  0.22110000  0.14160000  0.21990000  1
  C  C59  1  0.23880000  0.00810000  0.50970000  1
  C  C60  1  0.24720000  0.41500000  0.74970000  1
  C  C61  1  0.25280000  0.08500000  0.24970000  1
  C  C62  1  0.26120000  0.49190000  0.00970000  1
  C  C63  1  0.27890000  0.35840000  0.71990000  1
  C  C64  1  0.28750000  0.41270000  0.18330000  1
  C  C65  1  0.29120000  0.96500000  0.73910000  1
  C  C66  1  0.29350000  0.20580000  0.22600000  1
  C  C67  1  0.31520000  0.48630000  0.74020000  1
  C  C68  1  0.33260000  0.09280000  0.71600000  1
  C  C69  1  0.34230000  0.94620000  0.40500000  1
  C  C70  1  0.35010000  0.88660000  0.17220000  1
  C  C71  1  0.35710000  0.09440000  0.28500000  1
  C  C72  1  0.36080000  0.03640000  0.74680000  1
  C  C73  1  0.37370000  0.00110000  0.50370000  1
  C  C74  1  0.39690000  0.21510000  0.26210000  1
  C  C75  1  0.39870000  0.36350000  0.68780000  1
  C  C76  1  0.40720000  0.15610000  0.72150000  1
  C  C77  1  0.42160000  0.97570000  0.45450000  1
  C  C78  1  0.42320000  0.76330000  0.23150000  1
  C  C79  1  0.42900000  0.15920000  0.29150000  1
  C  C80  1  0.45080000  0.02490000  0.54890000  1
  C  C81  1  0.45370000  0.83570000  0.67390000  1
  C  C82  1  0.46330000  0.04570000  0.78400000  1
  C  C83  1  0.46340000  0.89010000  0.20960000  1
  C  C84  1  0.46500000  0.28630000  0.27090000  1
  C  C85  1  0.49220000  0.83410000  0.24100000  1
  C  C86  1  0.50780000  0.16590000  0.75900000  1
  C  C87  1  0.53500000  0.71370000  0.72910000  1
  C  C88  1  0.53660000  0.10990000  0.79040000  1
  C  C89  1  0.53670000  0.95430000  0.21600000  1
  C  C90  1  0.54630000  0.16430000  0.32610000  1
  C  C91  1  0.54920000  0.97510000  0.45110000  1
  C  C92  1  0.57100000  0.84080000  0.70850000  1
  C  C93  1  0.57680000  0.23670000  0.76850000  1
  C  C94  1  0.57840000  0.02430000  0.54550000  1
  C  C95  1  0.59280000  0.84390000  0.27850000  1
  C  C96  1  0.60130000  0.63650000  0.31220000  1
  C  C97  1  0.60310000  0.78490000  0.73790000  1
  C  C98  1  0.62630000  0.99890000  0.49630000  1
  C  C99  1  0.63920000  0.96360000  0.25320000  1
  C  C100  1  0.64290000  0.90560000  0.71500000  1
  C  C101  1  0.64990000  0.11340000  0.82780000  1
  C  C102  1  0.65770000  0.05380000  0.59500000  1
  C  C103  1  0.66740000  0.90720000  0.28400000  1
  C  C104  1  0.68480000  0.51370000  0.25980000  1
  C  C105  1  0.70650000  0.79420000  0.77400000  1
  C  C106  1  0.70880000  0.03500000  0.26090000  1
  C  C107  1  0.71250000  0.58730000  0.81670000  1
  C  C108  1  0.72110000  0.64160000  0.28010000  1
  C  C109  1  0.73880000  0.50810000  0.99030000  1
  C  C110  1  0.74720000  0.91500000  0.75030000  1
  C  C111  1  0.75280000  0.58500000  0.25030000  1
  C  C112  1  0.76120000  0.99190000  0.49030000  1
  C  C113  1  0.77890000  0.85840000  0.78010000  1
  C  C114  1  0.78750000  0.91270000  0.31670000  1
  C  C115  1  0.79120000  0.46500000  0.76090000  1
  C  C116  1  0.79350000  0.70580000  0.27400000  1
  C  C117  1  0.81520000  0.98630000  0.75980000  1
  C  C118  1  0.83260000  0.59280000  0.78400000  1
  C  C119  1  0.84230000  0.44620000  0.09500000  1
  C  C120  1  0.85010000  0.38660000  0.32780000  1
  C  C121  1  0.85710000  0.59440000  0.21500000  1
  C  C122  1  0.86080000  0.53640000  0.75320000  1
  C  C123  1  0.87370000  0.50110000  0.99630000  1
  C  C124  1  0.89690000  0.71510000  0.23790000  1
  C  C125  1  0.89870000  0.86350000  0.81220000  1
  C  C126  1  0.90720000  0.65610000  0.77850000  1
  C  C127  1  0.92160000  0.47570000  0.04550000  1
  C  C128  1  0.92320000  0.26330000  0.26850000  1
  C  C129  1  0.92900000  0.65920000  0.20850000  1
  C  C130  1  0.95080000  0.52490000  0.95110000  1
  C  C131  1  0.95370000  0.33570000  0.82610000  1
  C  C132  1  0.96330000  0.54570000  0.71600000  1
  C  C133  1  0.96340000  0.39010000  0.29040000  1
  C  C134  1  0.96500000  0.78630000  0.22910000  1
  C  C135  1  0.99220000  0.33410000  0.25900000  1
  O  O136  1  0.00730000  0.80300000  0.17959000  1
  O  O137  1  0.00800000  0.09660000  0.20850000  1
  O  O138  1  0.02670000  0.17330000  0.72870000  1
  O  O139  1  0.03920000  0.65090000  0.12140000  1
  O  O140  1  0.08990000  0.77800000  0.77290000  1
  O  O141  1  0.09350000  0.17230000  0.14430000  1
  O  O142  1  0.10530000  0.57200000  0.86140000  1
  O  O143  1  0.11430000  0.75320000  0.68114000  1
  O  O144  1  0.11890000  0.04900000  0.70430000  1
  O  O145  1  0.13810000  0.59380000  0.62160000  1
  O  O146  1  0.14440000  0.67890000  0.20324000  1
  O  O147  1  0.14720000  0.97820000  0.28340000  1
  O  O148  1  0.17040000  0.96300000  0.53970000  1
  O  O149  1  0.17360000  0.99350000  0.18840000  1
  O  O150  1  0.20240000  0.05860000  0.48740000  1
  O  O151  1  0.20380000  0.12260000  0.63870000  1
  O  O152  1  0.22420000  0.55621000  0.18800000  1
  O  O153  1  0.22710000  0.93970000  0.41080000  1
  O  O154  1  0.24010000  0.57000000  0.28360000  1
  O  O155  1  0.24790000  0.86650000  0.19740000  1
  O  O156  1  0.25210000  0.63350000  0.69740000  1
  O  O157  1  0.25990000  0.93000000  0.78360000  1
  O  O158  1  0.27290000  0.56030000  0.91080000  1
  O  O159  1  0.27580000  0.94379000  0.68800000  1
  O  O160  1  0.29620000  0.37740000  0.13870000  1
  O  O161  1  0.29760000  0.44140000  0.98740000  1
  O  O162  1  0.32640000  0.50650000  0.68840000  1
  O  O163  1  0.32960000  0.53700000  0.03970000  1
  O  O164  1  0.35280000  0.52180000  0.78340000  1
  O  O165  1  0.35560000  0.82110000  0.70324000  1
  O  O166  1  0.36190000  0.90620000  0.12160000  1
  O  O167  1  0.38110000  0.45100000  0.20430000  1
  O  O168  1  0.38570000  0.74680000  0.18114000  1
  O  O169  1  0.39470000  0.92800000  0.36140000  1
  O  O170  1  0.40650000  0.32770000  0.64430000  1
  O  O171  1  0.41010000  0.72200000  0.27290000  1
  O  O172  1  0.46080000  0.84910000  0.62140000  1
  O  O173  1  0.47330000  0.32670000  0.22870000  1
  O  O174  1  0.49200000  0.40340000  0.70850000  1
  O  O175  1  0.49270000  0.69700000  0.67959000  1
  O  O176  1  0.50730000  0.30300000  0.32041000  1
  O  O177  1  0.50800000  0.59660000  0.29150000  1
  O  O178  1  0.52670000  0.67330000  0.77130000  1
  O  O179  1  0.53920000  0.15090000  0.37860000  1
  O  O180  1  0.58990000  0.27800000  0.72710000  1
  O  O181  1  0.59350000  0.67230000  0.35570000  1
  O  O182  1  0.60530000  0.07200000  0.63860000  1
  O  O183  1  0.61430000  0.25320000  0.81886000  1
  O  O184  1  0.61890000  0.54900000  0.79570000  1
  O  O185  1  0.63810000  0.09380000  0.87840000  1
  O  O186  1  0.64440000  0.17890000  0.29676000  1
  O  O187  1  0.64720000  0.47820000  0.21660000  1
  O  O188  1  0.67040000  0.46300000  0.96030000  1
  O  O189  1  0.67360000  0.49350000  0.31160000  1
  O  O190  1  0.70240000  0.55860000  0.01260000  1
  O  O191  1  0.70380000  0.62260000  0.86130000  1
  O  O192  1  0.72420000  0.05621000  0.31200000  1
  O  O193  1  0.72710000  0.43970000  0.08920000  1
  O  O194  1  0.74010000  0.07000000  0.21640000  1
  O  O195  1  0.74790000  0.36650000  0.30260000  1
  O  O196  1  0.75210000  0.13350000  0.80260000  1
  O  O197  1  0.75990000  0.43000000  0.71640000  1
  O  O198  1  0.77290000  0.06030000  0.58920000  1
  O  O199  1  0.77580000  0.44379000  0.81200000  1
  O  O200  1  0.79620000  0.87740000  0.36130000  1
  O  O201  1  0.79760000  0.94140000  0.51260000  1
  O  O202  1  0.82640000  0.00650000  0.81160000  1
  O  O203  1  0.82960000  0.03700000  0.46030000  1
  O  O204  1  0.85280000  0.02180000  0.71660000  1
  O  O205  1  0.85560000  0.32110000  0.79676000  1
  O  O206  1  0.86190000  0.40620000  0.37840000  1
  O  O207  1  0.88110000  0.95100000  0.29570000  1
  O  O208  1  0.88570000  0.24680000  0.31886000  1
  O  O209  1  0.89470000  0.42800000  0.13860000  1
  O  O210  1  0.90650000  0.82770000  0.85570000  1
  O  O211  1  0.91010000  0.22200000  0.22710000  1
  O  O212  1  0.96080000  0.34910000  0.87860000  1
  O  O213  1  0.97330000  0.82670000  0.27130000  1
  O  O214  1  0.99200000  0.90340000  0.79150000  1
  O  O215  1  0.99270000  0.19700000  0.82041000  1
