# generated using pymatgen
data_Co3H4C9SN12O5
_symmetry_space_group_name_H-M   'P 1'
_cell_length_a   7.32460000
_cell_length_b   13.22400000
_cell_length_c   22.76690000
_cell_angle_alpha   90.00000000
_cell_angle_beta   90.00000000
_cell_angle_gamma   90.00000000
_symmetry_Int_Tables_number   1
_chemical_formula_structural   Co3H4C9SN12O5
_chemical_formula_sum   'Co12 H16 C36 S4 N48 O20'
_cell_volume   2205.21355423
_cell_formula_units_Z   4
loop_
 _symmetry_equiv_pos_site_id
 _symmetry_equiv_pos_as_xyz
  1  'x, y, z'
loop_
 _atom_site_type_symbol
 _atom_site_label
 _atom_site_symmetry_multiplicity
 _atom_site_fract_x
 _atom_site_fract_y
 _atom_site_fract_z
 _atom_site_occupancy
  Co  Co0  1  0.15643000  0.75000000  0.75854000  1
  Co  Co1  1  0.17312000  0.61722000  0.88939000  1
  Co  Co2  1  0.17312000  0.88278000  0.88939000  1
  Co  Co3  1  0.32688000  0.11722000  0.38939000  1
  Co  Co4  1  0.32688000  0.38278000  0.38939000  1
  Co  Co5  1  0.34357000  0.25000000  0.25854000  1
  Co  Co6  1  0.65643000  0.75000000  0.74146000  1
  Co  Co7  1  0.67312000  0.61722000  0.61061000  1
  Co  Co8  1  0.67312000  0.88278000  0.61061000  1
  Co  Co9  1  0.82688000  0.11722000  0.11061000  1
  Co  Co10  1  0.82688000  0.38278000  0.11061000  1
  Co  Co11  1  0.84357000  0.25000000  0.24146000  1
  H  H12  1  0.10500000  0.25000000  0.77840000  1
  H  H13  1  0.13970000  0.25000000  0.34950000  1
  H  H14  1  0.21660000  0.09690000  0.62810000  1
  H  H15  1  0.21660000  0.40310000  0.62810000  1
  H  H16  1  0.28340000  0.59690000  0.12810000  1
  H  H17  1  0.28340000  0.90310000  0.12810000  1
  H  H18  1  0.36030000  0.75000000  0.84950000  1
  H  H19  1  0.39500000  0.75000000  0.27840000  1
  H  H20  1  0.60500000  0.25000000  0.72160000  1
  H  H21  1  0.63970000  0.25000000  0.15050000  1
  H  H22  1  0.71660000  0.09690000  0.87190000  1
  H  H23  1  0.71660000  0.40310000  0.87190000  1
  H  H24  1  0.78340000  0.59690000  0.37190000  1
  H  H25  1  0.78340000  0.90310000  0.37190000  1
  H  H26  1  0.86030000  0.75000000  0.65050000  1
  H  H27  1  0.89500000  0.75000000  0.22160000  1
  C  C28  1  0.13590000  0.25000000  0.73785000  1
  C  C29  1  0.14740000  0.06270000  0.73987000  1
  C  C30  1  0.14740000  0.43730000  0.73987000  1
  C  C31  1  0.15850000  0.15920000  0.70813000  1
  C  C32  1  0.15850000  0.34080000  0.70813000  1
  C  C33  1  0.20060000  0.15910000  0.64831000  1
  C  C34  1  0.20060000  0.34090000  0.64831000  1
  C  C35  1  0.21920000  0.25000000  0.61837000  1
  C  C36  1  0.24090000  0.75000000  0.05478000  1
  C  C37  1  0.25910000  0.25000000  0.55478000  1
  C  C38  1  0.28080000  0.75000000  0.11837000  1
  C  C39  1  0.29940000  0.65910000  0.14831000  1
  C  C40  1  0.29940000  0.84090000  0.14831000  1
  C  C41  1  0.34150000  0.65920000  0.20813000  1
  C  C42  1  0.34150000  0.84080000  0.20813000  1
  C  C43  1  0.35260000  0.56270000  0.23987000  1
  C  C44  1  0.35260000  0.93730000  0.23987000  1
  C  C45  1  0.36410000  0.75000000  0.23785000  1
  C  C46  1  0.63590000  0.25000000  0.76215000  1
  C  C47  1  0.64740000  0.06270000  0.76013000  1
  C  C48  1  0.64740000  0.43730000  0.76013000  1
  C  C49  1  0.65850000  0.15920000  0.79187000  1
  C  C50  1  0.65850000  0.34080000  0.79187000  1
  C  C51  1  0.70060000  0.15910000  0.85169000  1
  C  C52  1  0.70060000  0.34090000  0.85169000  1
  C  C53  1  0.71920000  0.25000000  0.88163000  1
  C  C54  1  0.74090000  0.75000000  0.44522000  1
  C  C55  1  0.75910000  0.25000000  0.94522000  1
  C  C56  1  0.78080000  0.75000000  0.38163000  1
  C  C57  1  0.79940000  0.65910000  0.35169000  1
  C  C58  1  0.79940000  0.84090000  0.35169000  1
  C  C59  1  0.84150000  0.65920000  0.29187000  1
  C  C60  1  0.84150000  0.84080000  0.29187000  1
  C  C61  1  0.85260000  0.56270000  0.26013000  1
  C  C62  1  0.85260000  0.93730000  0.26013000  1
  C  C63  1  0.86410000  0.75000000  0.26215000  1
  S  S64  1  0.17587000  0.25000000  0.14792000  1
  S  S65  1  0.32413000  0.75000000  0.64792000  1
  S  S66  1  0.67587000  0.25000000  0.35208000  1
  S  S67  1  0.82413000  0.75000000  0.85208000  1
  N  N68  1  0.13410000  0.52730000  0.71343000  1
  N  N69  1  0.13410000  0.97270000  0.71343000  1
  N  N70  1  0.14070000  0.59340000  0.75756000  1
  N  N71  1  0.14070000  0.90660000  0.75756000  1
  N  N72  1  0.15520000  0.54460000  0.80816000  1
  N  N73  1  0.15520000  0.95540000  0.80816000  1
  N  N74  1  0.15940000  0.05500000  0.79829000  1
  N  N75  1  0.15940000  0.44500000  0.79829000  1
  N  N76  1  0.19430000  0.70000000  0.96832000  1
  N  N77  1  0.19430000  0.80000000  0.96832000  1
  N  N78  1  0.22310000  0.66638000  0.02271000  1
  N  N79  1  0.22310000  0.83362000  0.02271000  1
  N  N80  1  0.27690000  0.16638000  0.52271000  1
  N  N81  1  0.27690000  0.33362000  0.52271000  1
  N  N82  1  0.30570000  0.20000000  0.46832000  1
  N  N83  1  0.30570000  0.30000000  0.46832000  1
  N  N84  1  0.34060000  0.55500000  0.29829000  1
  N  N85  1  0.34060000  0.94500000  0.29829000  1
  N  N86  1  0.34480000  0.04460000  0.30816000  1
  N  N87  1  0.34480000  0.45540000  0.30816000  1
  N  N88  1  0.35930000  0.09340000  0.25756000  1
  N  N89  1  0.35930000  0.40660000  0.25756000  1
  N  N90  1  0.36590000  0.02730000  0.21343000  1
  N  N91  1  0.36590000  0.47270000  0.21343000  1
  N  N92  1  0.63410000  0.52730000  0.78657000  1
  N  N93  1  0.63410000  0.97270000  0.78657000  1
  N  N94  1  0.64070000  0.59340000  0.74244000  1
  N  N95  1  0.64070000  0.90660000  0.74244000  1
  N  N96  1  0.65520000  0.54460000  0.69184000  1
  N  N97  1  0.65520000  0.95540000  0.69184000  1
  N  N98  1  0.65940000  0.05500000  0.70171000  1
  N  N99  1  0.65940000  0.44500000  0.70171000  1
  N  N100  1  0.69430000  0.70000000  0.53168000  1
  N  N101  1  0.69430000  0.80000000  0.53168000  1
  N  N102  1  0.72310000  0.66638000  0.47729000  1
  N  N103  1  0.72310000  0.83362000  0.47729000  1
  N  N104  1  0.77690000  0.16638000  0.97729000  1
  N  N105  1  0.77690000  0.33362000  0.97729000  1
  N  N106  1  0.80570000  0.20000000  0.03168000  1
  N  N107  1  0.80570000  0.30000000  0.03168000  1
  N  N108  1  0.84060000  0.55500000  0.20171000  1
  N  N109  1  0.84060000  0.94500000  0.20171000  1
  N  N110  1  0.84480000  0.04460000  0.19184000  1
  N  N111  1  0.84480000  0.45540000  0.19184000  1
  N  N112  1  0.85930000  0.09340000  0.24244000  1
  N  N113  1  0.85930000  0.40660000  0.24244000  1
  N  N114  1  0.86590000  0.02730000  0.28657000  1
  N  N115  1  0.86590000  0.47270000  0.28657000  1
  O  O116  1  0.10500000  0.25000000  0.21016000  1
  O  O117  1  0.11070000  0.15912000  0.11747000  1
  O  O118  1  0.11070000  0.34088000  0.11747000  1
  O  O119  1  0.12640000  0.75000000  0.65561000  1
  O  O120  1  0.24390000  0.75000000  0.84536000  1
  O  O121  1  0.25610000  0.25000000  0.34536000  1
  O  O122  1  0.37360000  0.25000000  0.15561000  1
  O  O123  1  0.38930000  0.65912000  0.61747000  1
  O  O124  1  0.38930000  0.84088000  0.61747000  1
  O  O125  1  0.39500000  0.75000000  0.71016000  1
  O  O126  1  0.60500000  0.25000000  0.28984000  1
  O  O127  1  0.61070000  0.15912000  0.38253000  1
  O  O128  1  0.61070000  0.34088000  0.38253000  1
  O  O129  1  0.62640000  0.75000000  0.84439000  1
  O  O130  1  0.74390000  0.75000000  0.65464000  1
  O  O131  1  0.75610000  0.25000000  0.15464000  1
  O  O132  1  0.87360000  0.25000000  0.34439000  1
  O  O133  1  0.88930000  0.65912000  0.88253000  1
  O  O134  1  0.88930000  0.84088000  0.88253000  1
  O  O135  1  0.89500000  0.75000000  0.78984000  1
