# generated using pymatgen
data_CuH7C9N3O4
_symmetry_space_group_name_H-M   'P 1'
_cell_length_a   7.57980000
_cell_length_b   8.78490000
_cell_length_c   19.05600000
_cell_angle_alpha   94.15400000
_cell_angle_beta   96.89000000
_cell_angle_gamma   112.58000000
_symmetry_Int_Tables_number   1
_chemical_formula_structural   CuH7C9N3O4
_chemical_formula_sum   'Cu4 H28 C36 N12 O16'
_cell_volume   1153.40761894
_cell_formula_units_Z   4
loop_
 _symmetry_equiv_pos_site_id
 _symmetry_equiv_pos_as_xyz
  1  'x, y, z'
loop_
 _atom_site_type_symbol
 _atom_site_label
 _atom_site_symmetry_multiplicity
 _atom_site_fract_x
 _atom_site_fract_y
 _atom_site_fract_z
 _atom_site_occupancy
  Cu  Cu0  1  0.00510000  0.29536000  0.34890000  1
  Cu  Cu1  1  0.32000000  0.14529000  0.16641000  1
  Cu  Cu2  1  0.68000000  0.85471000  0.83359000  1
  Cu  Cu3  1  0.99490000  0.70464000  0.65110000  1
  H  H4  1  0.00840000  0.34150000  0.98920000  1
  H  H5  1  0.03090000  0.26410000  0.73620000  1
  H  H6  1  0.08260000  0.66410000  0.13240000  1
  H  H7  1  0.08580000  0.48490000  0.11950000  1
  H  H8  1  0.16020000  0.02820000  0.58030000  1
  H  H9  1  0.18550000  0.62900000  0.02360000  1
  H  H10  1  0.22350000  0.72580000  0.84180000  1
  H  H11  1  0.28460000  0.73860000  0.40040000  1
  H  H12  1  0.32650000  0.12890000  0.34420000  1
  H  H13  1  0.33550000  0.69160000  0.24350000  1
  H  H14  1  0.35160000  0.85870000  0.51910000  1
  H  H15  1  0.41340000  0.46740000  0.08930000  1
  H  H16  1  0.44710000  0.89880000  0.37980000  1
  H  H17  1  0.45630000  0.14400000  0.50440000  1
  H  H18  1  0.54370000  0.85600000  0.49560000  1
  H  H19  1  0.55290000  0.10120000  0.62020000  1
  H  H20  1  0.58660000  0.53260000  0.91070000  1
  H  H21  1  0.64840000  0.14130000  0.48090000  1
  H  H22  1  0.66450000  0.30840000  0.75650000  1
  H  H23  1  0.67350000  0.87110000  0.65580000  1
  H  H24  1  0.71540000  0.26140000  0.59960000  1
  H  H25  1  0.77650000  0.27420000  0.15820000  1
  H  H26  1  0.81450000  0.37100000  0.97640000  1
  H  H27  1  0.83980000  0.97180000  0.41970000  1
  H  H28  1  0.91420000  0.51510000  0.88050000  1
  H  H29  1  0.91740000  0.33590000  0.86760000  1
  H  H30  1  0.96910000  0.73590000  0.26380000  1
  H  H31  1  0.99160000  0.65850000  0.01080000  1
  C  C32  1  0.02110000  0.55600000  0.10250000  1
  C  C33  1  0.03950000  0.01930000  0.59160000  1
  C  C34  1  0.04670000  0.57960000  0.02590000  1
  C  C35  1  0.05800000  0.01820000  0.80330000  1
  C  C36  1  0.15960000  0.27330000  0.74080000  1
  C  C37  1  0.20920000  0.15730000  0.77510000  1
  C  C38  1  0.22280000  0.06760000  0.36690000  1
  C  C39  1  0.23380000  0.51820000  0.67420000  1
  C  C40  1  0.27860000  0.65640000  0.86170000  1
  C  C41  1  0.29270000  0.40090000  0.71340000  1
  C  C42  1  0.34980000  0.85980000  0.41110000  1
  C  C43  1  0.35310000  0.43370000  0.29750000  1
  C  C44  1  0.40210000  0.17130000  0.78160000  1
  C  C45  1  0.44870000  0.90620000  0.48840000  1
  C  C46  1  0.46370000  0.70000000  0.24660000  1
  C  C47  1  0.47120000  0.54860000  0.89960000  1
  C  C48  1  0.47860000  0.06020000  0.82040000  1
  C  C49  1  0.48470000  0.41540000  0.72090000  1
  C  C50  1  0.51530000  0.58460000  0.27910000  1
  C  C51  1  0.52140000  0.93980000  0.17960000  1
  C  C52  1  0.52880000  0.45140000  0.10040000  1
  C  C53  1  0.53630000  0.30000000  0.75340000  1
  C  C54  1  0.55130000  0.09380000  0.51160000  1
  C  C55  1  0.59790000  0.82870000  0.21840000  1
  C  C56  1  0.64690000  0.56630000  0.70250000  1
  C  C57  1  0.65020000  0.14020000  0.58890000  1
  C  C58  1  0.70730000  0.59910000  0.28660000  1
  C  C59  1  0.72140000  0.34360000  0.13830000  1
  C  C60  1  0.76620000  0.48180000  0.32580000  1
  C  C61  1  0.77720000  0.93240000  0.63310000  1
  C  C62  1  0.79080000  0.84270000  0.22490000  1
  C  C63  1  0.84040000  0.72670000  0.25920000  1
  C  C64  1  0.94200000  0.98180000  0.19670000  1
  C  C65  1  0.95330000  0.42040000  0.97410000  1
  C  C66  1  0.96050000  0.98070000  0.40840000  1
  C  C67  1  0.97890000  0.44400000  0.89750000  1
  N  N68  1  0.03970000  0.87640000  0.42590000  1
  N  N69  1  0.06790000  0.10180000  0.37290000  1
  N  N70  1  0.18360000  0.51970000  0.89010000  1
  N  N71  1  0.20790000  0.93420000  0.39770000  1
  N  N72  1  0.30720000  0.44920000  0.91490000  1
  N  N73  1  0.46230000  0.67890000  0.86610000  1
  N  N74  1  0.53770000  0.32110000  0.13390000  1
  N  N75  1  0.69280000  0.55080000  0.08510000  1
  N  N76  1  0.79210000  0.06580000  0.60230000  1
  N  N77  1  0.81640000  0.48030000  0.10990000  1
  N  N78  1  0.93210000  0.89820000  0.62710000  1
  N  N79  1  0.96030000  0.12360000  0.57410000  1
  O  O80  1  0.08330000  0.53780000  0.68822000  1
  O  O81  1  0.09840000  0.90120000  0.81930000  1
  O  O82  1  0.10000000  0.96580000  0.19131000  1
  O  O83  1  0.26670000  0.45700000  0.34674000  1
  O  O84  1  0.30420000  0.30110000  0.25890000  1
  O  O85  1  0.33640000  0.59220000  0.63010000  1
  O  O86  1  0.47200000  0.91160000  0.11434000  1
  O  O87  1  0.49400000  0.05150000  0.21956000  1
  O  O88  1  0.50600000  0.94850000  0.78044000  1
  O  O89  1  0.52800000  0.08840000  0.88566000  1
  O  O90  1  0.66360000  0.40780000  0.36990000  1
  O  O91  1  0.69580000  0.69890000  0.74110000  1
  O  O92  1  0.73330000  0.54300000  0.65326000  1
  O  O93  1  0.90000000  0.03420000  0.80869000  1
  O  O94  1  0.90160000  0.09880000  0.18070000  1
  O  O95  1  0.91670000  0.46220000  0.31178000  1
