# generated using pymatgen
data_ZnH8C12(IN2)2
_symmetry_space_group_name_H-M   'P 1'
_cell_length_a   14.01200000
_cell_length_b   28.28000000
_cell_length_c   44.90700000
_cell_angle_alpha   90.00000000
_cell_angle_beta   90.00000000
_cell_angle_gamma   90.00000000
_symmetry_Int_Tables_number   1
_chemical_formula_structural   ZnH8C12(IN2)2
_chemical_formula_sum   'Zn24 H192 C288 I48 N96'
_cell_volume   17794.81907952
_cell_formula_units_Z   24
loop_
 _symmetry_equiv_pos_site_id
 _symmetry_equiv_pos_as_xyz
  1  'x, y, z'
loop_
 _atom_site_type_symbol
 _atom_site_label
 _atom_site_symmetry_multiplicity
 _atom_site_fract_x
 _atom_site_fract_y
 _atom_site_fract_z
 _atom_site_occupancy
  Zn  Zn0  1  0.11692000  0.48042000  0.41512000  1
  Zn  Zn1  1  0.11692000  0.98042000  0.08488000  1
  Zn  Zn2  1  0.13288000  0.44838000  0.08489000  1
  Zn  Zn3  1  0.13288000  0.94838000  0.41511000  1
  Zn  Zn4  1  0.16869000  0.26340000  0.81894000  1
  Zn  Zn5  1  0.16869000  0.76340000  0.68106000  1
  Zn  Zn6  1  0.33131000  0.26340000  0.31894000  1
  Zn  Zn7  1  0.33131000  0.76340000  0.18106000  1
  Zn  Zn8  1  0.36712000  0.44838000  0.58489000  1
  Zn  Zn9  1  0.36712000  0.94838000  0.91511000  1
  Zn  Zn10  1  0.38308000  0.48042000  0.91512000  1
  Zn  Zn11  1  0.38308000  0.98042000  0.58488000  1
  Zn  Zn12  1  0.61692000  0.01958000  0.41512000  1
  Zn  Zn13  1  0.61692000  0.51958000  0.08488000  1
  Zn  Zn14  1  0.63288000  0.05162000  0.08489000  1
  Zn  Zn15  1  0.63288000  0.55162000  0.41511000  1
  Zn  Zn16  1  0.66869000  0.23660000  0.81894000  1
  Zn  Zn17  1  0.66869000  0.73660000  0.68106000  1
  Zn  Zn18  1  0.83131000  0.23660000  0.31894000  1
  Zn  Zn19  1  0.83131000  0.73660000  0.18106000  1
  Zn  Zn20  1  0.86712000  0.05162000  0.58489000  1
  Zn  Zn21  1  0.86712000  0.55162000  0.91511000  1
  Zn  Zn22  1  0.88308000  0.01958000  0.91512000  1
  Zn  Zn23  1  0.88308000  0.51958000  0.58488000  1
  H  H24  1  0.01170000  0.20850000  0.72580000  1
  H  H25  1  0.01170000  0.70850000  0.77420000  1
  H  H26  1  0.02220000  0.34250000  0.16610000  1
  H  H27  1  0.02220000  0.84250000  0.33390000  1
  H  H28  1  0.02600000  0.02910000  0.96500000  1
  H  H29  1  0.02600000  0.52910000  0.53500000  1
  H  H30  1  0.02890000  0.07640000  0.88260000  1
  H  H31  1  0.02890000  0.57640000  0.61740000  1
  H  H32  1  0.03750000  0.21690000  0.33450000  1
  H  H33  1  0.03750000  0.71690000  0.16550000  1
  H  H34  1  0.04420000  0.08760000  0.17130000  1
  H  H35  1  0.04420000  0.58760000  0.32870000  1
  H  H36  1  0.04690000  0.41240000  0.14120000  1
  H  H37  1  0.04690000  0.91240000  0.35880000  1
  H  H38  1  0.04770000  0.34950000  0.72940000  1
  H  H39  1  0.04770000  0.84950000  0.77060000  1
  H  H40  1  0.05490000  0.04020000  0.55610000  1
  H  H41  1  0.05490000  0.54020000  0.94390000  1
  H  H42  1  0.06560000  0.15530000  0.09270000  1
  H  H43  1  0.06560000  0.65530000  0.40730000  1
  H  H44  1  0.06930000  0.20270000  0.77380000  1
  H  H45  1  0.06930000  0.70270000  0.72620000  1
  H  H46  1  0.07050000  0.01660000  0.14610000  1
  H  H47  1  0.07050000  0.51660000  0.35390000  1
  H  H48  1  0.09120000  0.08280000  0.06950000  1
  H  H49  1  0.09120000  0.58280000  0.43050000  1
  H  H50  1  0.09280000  0.27180000  0.09130000  1
  H  H51  1  0.09280000  0.77180000  0.40870000  1
  H  H52  1  0.10890000  0.34070000  0.77740000  1
  H  H53  1  0.10890000  0.84070000  0.72260000  1
  H  H54  1  0.11980000  0.34490000  0.06850000  1
  H  H55  1  0.11980000  0.84490000  0.43150000  1
  H  H56  1  0.12210000  0.36790000  0.90650000  1
  H  H57  1  0.12210000  0.86790000  0.59350000  1
  H  H58  1  0.12260000  0.41420000  0.97450000  1
  H  H59  1  0.12260000  0.91420000  0.52550000  1
  H  H60  1  0.12570000  0.17800000  0.37010000  1
  H  H61  1  0.12570000  0.67800000  0.12990000  1
  H  H62  1  0.13260000  0.05770000  0.51230000  1
  H  H63  1  0.13260000  0.55770000  0.98770000  1
  H  H64  1  0.18080000  0.05480000  0.97240000  1
  H  H65  1  0.18080000  0.55480000  0.52760000  1
  H  H66  1  0.18410000  0.10230000  0.88760000  1
  H  H67  1  0.18410000  0.60230000  0.61240000  1
  H  H68  1  0.19360000  0.43130000  0.02030000  1
  H  H69  1  0.19360000  0.93130000  0.47970000  1
  H  H70  1  0.20290000  0.32640000  0.86960000  1
  H  H71  1  0.20290000  0.82640000  0.63040000  1
  H  H72  1  0.29710000  0.32640000  0.36960000  1
  H  H73  1  0.29710000  0.82640000  0.13040000  1
  H  H74  1  0.30640000  0.43130000  0.52030000  1
  H  H75  1  0.30640000  0.93130000  0.97970000  1
  H  H76  1  0.31590000  0.10230000  0.38760000  1
  H  H77  1  0.31590000  0.60230000  0.11240000  1
  H  H78  1  0.31920000  0.05480000  0.47240000  1
  H  H79  1  0.31920000  0.55480000  0.02760000  1
  H  H80  1  0.36740000  0.05770000  0.01230000  1
  H  H81  1  0.36740000  0.55770000  0.48770000  1
  H  H82  1  0.37430000  0.17800000  0.87010000  1
  H  H83  1  0.37430000  0.67800000  0.62990000  1
  H  H84  1  0.37740000  0.41420000  0.47450000  1
  H  H85  1  0.37740000  0.91420000  0.02550000  1
  H  H86  1  0.37790000  0.36790000  0.40650000  1
  H  H87  1  0.37790000  0.86790000  0.09350000  1
  H  H88  1  0.38020000  0.34490000  0.56850000  1
  H  H89  1  0.38020000  0.84490000  0.93150000  1
  H  H90  1  0.39110000  0.34070000  0.27740000  1
  H  H91  1  0.39110000  0.84070000  0.22260000  1
  H  H92  1  0.40720000  0.27180000  0.59130000  1
  H  H93  1  0.40720000  0.77180000  0.90870000  1
  H  H94  1  0.40880000  0.08280000  0.56950000  1
  H  H95  1  0.40880000  0.58280000  0.93050000  1
  H  H96  1  0.42950000  0.01660000  0.64610000  1
  H  H97  1  0.42950000  0.51660000  0.85390000  1
  H  H98  1  0.43070000  0.20270000  0.27380000  1
  H  H99  1  0.43070000  0.70270000  0.22620000  1
  H  H100  1  0.43440000  0.15530000  0.59270000  1
  H  H101  1  0.43440000  0.65530000  0.90730000  1
  H  H102  1  0.44510000  0.04020000  0.05610000  1
  H  H103  1  0.44510000  0.54020000  0.44390000  1
  H  H104  1  0.45230000  0.34950000  0.22940000  1
  H  H105  1  0.45230000  0.84950000  0.27060000  1
  H  H106  1  0.45310000  0.41240000  0.64120000  1
  H  H107  1  0.45310000  0.91240000  0.85880000  1
  H  H108  1  0.45580000  0.08760000  0.67130000  1
  H  H109  1  0.45580000  0.58760000  0.82870000  1
  H  H110  1  0.46250000  0.21690000  0.83450000  1
  H  H111  1  0.46250000  0.71690000  0.66550000  1
  H  H112  1  0.47110000  0.07640000  0.38260000  1
  H  H113  1  0.47110000  0.57640000  0.11740000  1
  H  H114  1  0.47400000  0.02910000  0.46500000  1
  H  H115  1  0.47400000  0.52910000  0.03500000  1
  H  H116  1  0.47780000  0.34250000  0.66610000  1
  H  H117  1  0.47780000  0.84250000  0.83390000  1
  H  H118  1  0.48830000  0.20850000  0.22580000  1
  H  H119  1  0.48830000  0.70850000  0.27420000  1
  H  H120  1  0.51170000  0.29150000  0.72580000  1
  H  H121  1  0.51170000  0.79150000  0.77420000  1
  H  H122  1  0.52220000  0.15750000  0.16610000  1
  H  H123  1  0.52220000  0.65750000  0.33390000  1
  H  H124  1  0.52600000  0.47090000  0.96500000  1
  H  H125  1  0.52600000  0.97090000  0.53500000  1
  H  H126  1  0.52890000  0.42360000  0.88260000  1
  H  H127  1  0.52890000  0.92360000  0.61740000  1
  H  H128  1  0.53750000  0.28310000  0.33450000  1
  H  H129  1  0.53750000  0.78310000  0.16550000  1
  H  H130  1  0.54420000  0.41240000  0.17130000  1
  H  H131  1  0.54420000  0.91240000  0.32870000  1
  H  H132  1  0.54690000  0.08760000  0.14120000  1
  H  H133  1  0.54690000  0.58760000  0.35880000  1
  H  H134  1  0.54770000  0.15050000  0.72940000  1
  H  H135  1  0.54770000  0.65050000  0.77060000  1
  H  H136  1  0.55490000  0.45980000  0.55610000  1
  H  H137  1  0.55490000  0.95980000  0.94390000  1
  H  H138  1  0.56560000  0.34470000  0.09270000  1
  H  H139  1  0.56560000  0.84470000  0.40730000  1
  H  H140  1  0.56930000  0.29730000  0.77380000  1
  H  H141  1  0.56930000  0.79730000  0.72620000  1
  H  H142  1  0.57050000  0.48340000  0.14610000  1
  H  H143  1  0.57050000  0.98340000  0.35390000  1
  H  H144  1  0.59120000  0.41720000  0.06950000  1
  H  H145  1  0.59120000  0.91720000  0.43050000  1
  H  H146  1  0.59280000  0.22820000  0.09130000  1
  H  H147  1  0.59280000  0.72820000  0.40870000  1
  H  H148  1  0.60890000  0.15930000  0.77740000  1
  H  H149  1  0.60890000  0.65930000  0.72260000  1
  H  H150  1  0.61980000  0.15510000  0.06850000  1
  H  H151  1  0.61980000  0.65510000  0.43150000  1
  H  H152  1  0.62210000  0.13210000  0.90650000  1
  H  H153  1  0.62210000  0.63210000  0.59350000  1
  H  H154  1  0.62260000  0.08580000  0.97450000  1
  H  H155  1  0.62260000  0.58580000  0.52550000  1
  H  H156  1  0.62570000  0.32200000  0.37010000  1
  H  H157  1  0.62570000  0.82200000  0.12990000  1
  H  H158  1  0.63260000  0.44230000  0.51230000  1
  H  H159  1  0.63260000  0.94230000  0.98770000  1
  H  H160  1  0.68080000  0.44520000  0.97240000  1
  H  H161  1  0.68080000  0.94520000  0.52760000  1
  H  H162  1  0.68410000  0.39770000  0.88760000  1
  H  H163  1  0.68410000  0.89770000  0.61240000  1
  H  H164  1  0.69360000  0.06870000  0.02030000  1
  H  H165  1  0.69360000  0.56870000  0.47970000  1
  H  H166  1  0.70290000  0.17360000  0.86960000  1
  H  H167  1  0.70290000  0.67360000  0.63040000  1
  H  H168  1  0.79710000  0.17360000  0.36960000  1
  H  H169  1  0.79710000  0.67360000  0.13040000  1
  H  H170  1  0.80640000  0.06870000  0.52030000  1
  H  H171  1  0.80640000  0.56870000  0.97970000  1
  H  H172  1  0.81590000  0.39770000  0.38760000  1
  H  H173  1  0.81590000  0.89770000  0.11240000  1
  H  H174  1  0.81920000  0.44520000  0.47240000  1
  H  H175  1  0.81920000  0.94520000  0.02760000  1
  H  H176  1  0.86740000  0.44230000  0.01230000  1
  H  H177  1  0.86740000  0.94230000  0.48770000  1
  H  H178  1  0.87430000  0.32200000  0.87010000  1
  H  H179  1  0.87430000  0.82200000  0.62990000  1
  H  H180  1  0.87740000  0.08580000  0.47450000  1
  H  H181  1  0.87740000  0.58580000  0.02550000  1
  H  H182  1  0.87790000  0.13210000  0.40650000  1
  H  H183  1  0.87790000  0.63210000  0.09350000  1
  H  H184  1  0.88020000  0.15510000  0.56850000  1
  H  H185  1  0.88020000  0.65510000  0.93150000  1
  H  H186  1  0.89110000  0.15930000  0.27740000  1
  H  H187  1  0.89110000  0.65930000  0.22260000  1
  H  H188  1  0.90720000  0.22820000  0.59130000  1
  H  H189  1  0.90720000  0.72820000  0.90870000  1
  H  H190  1  0.90880000  0.41720000  0.56950000  1
  H  H191  1  0.90880000  0.91720000  0.93050000  1
  H  H192  1  0.92950000  0.48340000  0.64610000  1
  H  H193  1  0.92950000  0.98340000  0.85390000  1
  H  H194  1  0.93070000  0.29730000  0.27380000  1
  H  H195  1  0.93070000  0.79730000  0.22620000  1
  H  H196  1  0.93440000  0.34470000  0.59270000  1
  H  H197  1  0.93440000  0.84470000  0.90730000  1
  H  H198  1  0.94510000  0.45980000  0.05610000  1
  H  H199  1  0.94510000  0.95980000  0.44390000  1
  H  H200  1  0.95230000  0.15050000  0.22940000  1
  H  H201  1  0.95230000  0.65050000  0.27060000  1
  H  H202  1  0.95310000  0.08760000  0.64120000  1
  H  H203  1  0.95310000  0.58760000  0.85880000  1
  H  H204  1  0.95580000  0.41240000  0.67130000  1
  H  H205  1  0.95580000  0.91240000  0.82870000  1
  H  H206  1  0.96250000  0.28310000  0.83450000  1
  H  H207  1  0.96250000  0.78310000  0.66550000  1
  H  H208  1  0.97110000  0.42360000  0.38260000  1
  H  H209  1  0.97110000  0.92360000  0.11740000  1
  H  H210  1  0.97400000  0.47090000  0.46500000  1
  H  H211  1  0.97400000  0.97090000  0.03500000  1
  H  H212  1  0.97780000  0.15750000  0.66610000  1
  H  H213  1  0.97780000  0.65750000  0.83390000  1
  H  H214  1  0.98830000  0.29150000  0.22580000  1
  H  H215  1  0.98830000  0.79150000  0.27420000  1
  C  C216  1  0.00500000  0.19950000  0.34948000  1
  C  C217  1  0.00500000  0.69950000  0.15052000  1
  C  C218  1  0.00570000  0.21700000  0.19074000  1
  C  C219  1  0.00570000  0.71700000  0.30926000  1
  C  C220  1  0.01120000  0.15180000  0.39304000  1
  C  C221  1  0.01120000  0.65180000  0.10696000  1
  C  C222  1  0.01350000  0.07590000  0.48912000  1
  C  C223  1  0.01350000  0.57590000  0.01088000  1
  C  C224  1  0.01840000  0.05090000  0.53965000  1
  C  C225  1  0.01840000  0.55090000  0.96035000  1
  C  C226  1  0.02580000  0.27950000  0.72215000  1
  C  C227  1  0.02580000  0.77950000  0.77785000  1
  C  C228  1  0.03170000  0.23620000  0.73603000  1
  C  C229  1  0.03170000  0.73620000  0.76397000  1
  C  C230  1  0.04280000  0.34200000  0.14592000  1
  C  C231  1  0.04280000  0.84200000  0.35408000  1
  C  C232  1  0.04310000  0.17490000  0.14966000  1
  C  C233  1  0.04310000  0.67490000  0.35034000  1
  C  C234  1  0.04320000  0.25430000  0.14797000  1
  C  C235  1  0.04320000  0.75430000  0.35203000  1
  C  C236  1  0.05310000  0.31890000  0.73799000  1
  C  C237  1  0.05310000  0.81890000  0.76201000  1
  C  C238  1  0.05500000  0.08750000  0.15046000  1
  C  C239  1  0.05500000  0.58750000  0.34954000  1
  C  C240  1  0.05560000  0.12910000  0.13443000  1
  C  C241  1  0.05560000  0.62910000  0.36557000  1
  C  C242  1  0.05750000  0.29940000  0.13168000  1
  C  C243  1  0.05750000  0.79940000  0.36832000  1
  C  C244  1  0.05800000  0.17680000  0.37070000  1
  C  C245  1  0.05800000  0.38350000  0.13104000  1
  C  C246  1  0.05800000  0.67680000  0.12930000  1
  C  C247  1  0.05800000  0.88350000  0.36896000  1
  C  C248  1  0.05900000  0.04390000  0.94904000  1
  C  C249  1  0.05900000  0.54390000  0.55096000  1
  C  C250  1  0.06080000  0.07130000  0.90095000  1
  C  C251  1  0.06080000  0.57130000  0.59905000  1
  C  C252  1  0.06350000  0.08950000  0.46142000  1
  C  C253  1  0.06350000  0.58950000  0.03858000  1
  C  C254  1  0.06420000  0.12640000  0.41703000  1
  C  C255  1  0.06420000  0.62640000  0.08297000  1
  C  C256  1  0.06520000  0.06100000  0.51356000  1
  C  C257  1  0.06520000  0.56100000  0.98644000  1
  C  C258  1  0.06620000  0.23290000  0.76456000  1
  C  C259  1  0.06620000  0.73290000  0.73544000  1
  C  C260  1  0.06760000  0.12720000  0.10422000  1
  C  C261  1  0.06760000  0.62720000  0.39578000  1
  C  C262  1  0.07050000  0.04540000  0.13520000  1
  C  C263  1  0.07050000  0.54540000  0.36480000  1
  C  C264  1  0.08270000  0.08370000  0.09050000  1
  C  C265  1  0.08270000  0.58370000  0.40950000  1
  C  C266  1  0.08440000  0.42230000  0.99120000  1
  C  C267  1  0.08440000  0.92230000  0.50880000  1
  C  C268  1  0.08460000  0.30030000  0.10223000  1
  C  C269  1  0.08460000  0.80030000  0.39777000  1
  C  C270  1  0.08760000  0.35020000  0.89216000  1
  C  C271  1  0.08760000  0.85020000  0.60784000  1
  C  C272  1  0.08880000  0.31340000  0.76674000  1
  C  C273  1  0.08880000  0.81340000  0.73326000  1
  C  C274  1  0.09980000  0.34430000  0.08868000  1
  C  C275  1  0.09980000  0.84430000  0.41132000  1
  C  C276  1  0.12610000  0.43270000  0.01872000  1
  C  C277  1  0.12610000  0.93270000  0.48128000  1
  C  C278  1  0.13510000  0.32580000  0.86979000  1
  C  C279  1  0.13510000  0.82580000  0.63021000  1
  C  C280  1  0.15110000  0.05910000  0.95356000  1
  C  C281  1  0.15110000  0.55910000  0.54644000  1
  C  C282  1  0.15300000  0.08720000  0.90378000  1
  C  C283  1  0.15300000  0.58720000  0.59622000  1
  C  C284  1  0.19850000  0.09410000  0.43457000  1
  C  C285  1  0.19850000  0.59410000  0.06543000  1
  C  C286  1  0.20010000  0.08080000  0.93070000  1
  C  C287  1  0.20010000  0.58080000  0.56930000  1
  C  C288  1  0.29990000  0.08080000  0.43070000  1
  C  C289  1  0.29990000  0.58080000  0.06930000  1
  C  C290  1  0.30150000  0.09410000  0.93457000  1
  C  C291  1  0.30150000  0.59410000  0.56543000  1
  C  C292  1  0.34700000  0.08720000  0.40378000  1
  C  C293  1  0.34700000  0.58720000  0.09622000  1
  C  C294  1  0.34890000  0.05910000  0.45356000  1
  C  C295  1  0.34890000  0.55910000  0.04644000  1
  C  C296  1  0.36490000  0.32580000  0.36979000  1
  C  C297  1  0.36490000  0.82580000  0.13021000  1
  C  C298  1  0.37390000  0.43270000  0.51872000  1
  C  C299  1  0.37390000  0.93270000  0.98128000  1
  C  C300  1  0.40020000  0.34430000  0.58868000  1
  C  C301  1  0.40020000  0.84430000  0.91132000  1
  C  C302  1  0.41120000  0.31340000  0.26674000  1
  C  C303  1  0.41120000  0.81340000  0.23326000  1
  C  C304  1  0.41240000  0.35020000  0.39216000  1
  C  C305  1  0.41240000  0.85020000  0.10784000  1
  C  C306  1  0.41540000  0.30030000  0.60223000  1
  C  C307  1  0.41540000  0.80030000  0.89777000  1
  C  C308  1  0.41560000  0.42230000  0.49120000  1
  C  C309  1  0.41560000  0.92230000  0.00880000  1
  C  C310  1  0.41730000  0.08370000  0.59050000  1
  C  C311  1  0.41730000  0.58370000  0.90950000  1
  C  C312  1  0.42950000  0.04540000  0.63520000  1
  C  C313  1  0.42950000  0.54540000  0.86480000  1
  C  C314  1  0.43240000  0.12720000  0.60422000  1
  C  C315  1  0.43240000  0.62720000  0.89578000  1
  C  C316  1  0.43380000  0.23290000  0.26456000  1
  C  C317  1  0.43380000  0.73290000  0.23544000  1
  C  C318  1  0.43480000  0.06100000  0.01356000  1
  C  C319  1  0.43480000  0.56100000  0.48644000  1
  C  C320  1  0.43580000  0.12640000  0.91703000  1
  C  C321  1  0.43580000  0.62640000  0.58297000  1
  C  C322  1  0.43650000  0.08950000  0.96142000  1
  C  C323  1  0.43650000  0.58950000  0.53858000  1
  C  C324  1  0.43920000  0.07130000  0.40095000  1
  C  C325  1  0.43920000  0.57130000  0.09905000  1
  C  C326  1  0.44100000  0.04390000  0.44904000  1
  C  C327  1  0.44100000  0.54390000  0.05096000  1
  C  C328  1  0.44200000  0.17680000  0.87070000  1
  C  C329  1  0.44200000  0.38350000  0.63104000  1
  C  C330  1  0.44200000  0.67680000  0.62930000  1
  C  C331  1  0.44200000  0.88350000  0.86896000  1
  C  C332  1  0.44250000  0.29940000  0.63168000  1
  C  C333  1  0.44250000  0.79940000  0.86832000  1
  C  C334  1  0.44440000  0.12910000  0.63443000  1
  C  C335  1  0.44440000  0.62910000  0.86557000  1
  C  C336  1  0.44500000  0.08750000  0.65046000  1
  C  C337  1  0.44500000  0.58750000  0.84954000  1
  C  C338  1  0.44690000  0.31890000  0.23799000  1
  C  C339  1  0.44690000  0.81890000  0.26201000  1
  C  C340  1  0.45680000  0.25430000  0.64797000  1
  C  C341  1  0.45680000  0.75430000  0.85203000  1
  C  C342  1  0.45690000  0.17490000  0.64966000  1
  C  C343  1  0.45690000  0.67490000  0.85034000  1
  C  C344  1  0.45720000  0.34200000  0.64592000  1
  C  C345  1  0.45720000  0.84200000  0.85408000  1
  C  C346  1  0.46830000  0.23620000  0.23603000  1
  C  C347  1  0.46830000  0.73620000  0.26397000  1
  C  C348  1  0.47420000  0.27950000  0.22215000  1
  C  C349  1  0.47420000  0.77950000  0.27785000  1
  C  C350  1  0.48160000  0.05090000  0.03965000  1
  C  C351  1  0.48160000  0.55090000  0.46035000  1
  C  C352  1  0.48650000  0.07590000  0.98912000  1
  C  C353  1  0.48650000  0.57590000  0.51088000  1
  C  C354  1  0.48880000  0.15180000  0.89304000  1
  C  C355  1  0.48880000  0.65180000  0.60696000  1
  C  C356  1  0.49430000  0.21700000  0.69074000  1
  C  C357  1  0.49430000  0.71700000  0.80926000  1
  C  C358  1  0.49500000  0.19950000  0.84948000  1
  C  C359  1  0.49500000  0.69950000  0.65052000  1
  C  C360  1  0.50500000  0.30050000  0.34948000  1
  C  C361  1  0.50500000  0.80050000  0.15052000  1
  C  C362  1  0.50570000  0.28300000  0.19074000  1
  C  C363  1  0.50570000  0.78300000  0.30926000  1
  C  C364  1  0.51120000  0.34820000  0.39304000  1
  C  C365  1  0.51120000  0.84820000  0.10696000  1
  C  C366  1  0.51350000  0.42410000  0.48912000  1
  C  C367  1  0.51350000  0.92410000  0.01088000  1
  C  C368  1  0.51840000  0.44910000  0.53965000  1
  C  C369  1  0.51840000  0.94910000  0.96035000  1
  C  C370  1  0.52580000  0.22050000  0.72215000  1
  C  C371  1  0.52580000  0.72050000  0.77785000  1
  C  C372  1  0.53170000  0.26380000  0.73603000  1
  C  C373  1  0.53170000  0.76380000  0.76397000  1
  C  C374  1  0.54280000  0.15800000  0.14592000  1
  C  C375  1  0.54280000  0.65800000  0.35408000  1
  C  C376  1  0.54310000  0.32510000  0.14966000  1
  C  C377  1  0.54310000  0.82510000  0.35034000  1
  C  C378  1  0.54320000  0.24570000  0.14797000  1
  C  C379  1  0.54320000  0.74570000  0.35203000  1
  C  C380  1  0.55310000  0.18110000  0.73799000  1
  C  C381  1  0.55310000  0.68110000  0.76201000  1
  C  C382  1  0.55500000  0.41250000  0.15046000  1
  C  C383  1  0.55500000  0.91250000  0.34954000  1
  C  C384  1  0.55560000  0.37090000  0.13443000  1
  C  C385  1  0.55560000  0.87090000  0.36557000  1
  C  C386  1  0.55750000  0.20060000  0.13168000  1
  C  C387  1  0.55750000  0.70060000  0.36832000  1
  C  C388  1  0.55800000  0.11650000  0.13104000  1
  C  C389  1  0.55800000  0.32320000  0.37070000  1
  C  C390  1  0.55800000  0.61650000  0.36896000  1
  C  C391  1  0.55800000  0.82320000  0.12930000  1
  C  C392  1  0.55900000  0.45610000  0.94904000  1
  C  C393  1  0.55900000  0.95610000  0.55096000  1
  C  C394  1  0.56080000  0.42870000  0.90095000  1
  C  C395  1  0.56080000  0.92870000  0.59905000  1
  C  C396  1  0.56350000  0.41050000  0.46142000  1
  C  C397  1  0.56350000  0.91050000  0.03858000  1
  C  C398  1  0.56420000  0.37360000  0.41703000  1
  C  C399  1  0.56420000  0.87360000  0.08297000  1
  C  C400  1  0.56520000  0.43900000  0.51356000  1
  C  C401  1  0.56520000  0.93900000  0.98644000  1
  C  C402  1  0.56620000  0.26710000  0.76456000  1
  C  C403  1  0.56620000  0.76710000  0.73544000  1
  C  C404  1  0.56760000  0.37280000  0.10422000  1
  C  C405  1  0.56760000  0.87280000  0.39578000  1
  C  C406  1  0.57050000  0.45460000  0.13520000  1
  C  C407  1  0.57050000  0.95460000  0.36480000  1
  C  C408  1  0.58270000  0.41630000  0.09050000  1
  C  C409  1  0.58270000  0.91630000  0.40950000  1
  C  C410  1  0.58440000  0.07770000  0.99120000  1
  C  C411  1  0.58440000  0.57770000  0.50880000  1
  C  C412  1  0.58460000  0.19970000  0.10223000  1
  C  C413  1  0.58460000  0.69970000  0.39777000  1
  C  C414  1  0.58760000  0.14980000  0.89216000  1
  C  C415  1  0.58760000  0.64980000  0.60784000  1
  C  C416  1  0.58880000  0.18660000  0.76674000  1
  C  C417  1  0.58880000  0.68660000  0.73326000  1
  C  C418  1  0.59980000  0.15570000  0.08868000  1
  C  C419  1  0.59980000  0.65570000  0.41132000  1
  C  C420  1  0.62610000  0.06730000  0.01872000  1
  C  C421  1  0.62610000  0.56730000  0.48128000  1
  C  C422  1  0.63510000  0.17420000  0.86979000  1
  C  C423  1  0.63510000  0.67420000  0.63021000  1
  C  C424  1  0.65110000  0.44090000  0.95356000  1
  C  C425  1  0.65110000  0.94090000  0.54644000  1
  C  C426  1  0.65300000  0.41280000  0.90378000  1
  C  C427  1  0.65300000  0.91280000  0.59622000  1
  C  C428  1  0.69850000  0.40590000  0.43457000  1
  C  C429  1  0.69850000  0.90590000  0.06543000  1
  C  C430  1  0.70010000  0.41920000  0.93070000  1
  C  C431  1  0.70010000  0.91920000  0.56930000  1
  C  C432  1  0.79990000  0.41920000  0.43070000  1
  C  C433  1  0.79990000  0.91920000  0.06930000  1
  C  C434  1  0.80150000  0.40590000  0.93457000  1
  C  C435  1  0.80150000  0.90590000  0.56543000  1
  C  C436  1  0.84700000  0.41280000  0.40378000  1
  C  C437  1  0.84700000  0.91280000  0.09622000  1
  C  C438  1  0.84890000  0.44090000  0.45356000  1
  C  C439  1  0.84890000  0.94090000  0.04644000  1
  C  C440  1  0.86490000  0.17420000  0.36979000  1
  C  C441  1  0.86490000  0.67420000  0.13021000  1
  C  C442  1  0.87390000  0.06730000  0.51872000  1
  C  C443  1  0.87390000  0.56730000  0.98128000  1
  C  C444  1  0.90020000  0.15570000  0.58868000  1
  C  C445  1  0.90020000  0.65570000  0.91132000  1
  C  C446  1  0.91120000  0.18660000  0.26674000  1
  C  C447  1  0.91120000  0.68660000  0.23326000  1
  C  C448  1  0.91240000  0.14980000  0.39216000  1
  C  C449  1  0.91240000  0.64980000  0.10784000  1
  C  C450  1  0.91540000  0.19970000  0.60223000  1
  C  C451  1  0.91540000  0.69970000  0.89777000  1
  C  C452  1  0.91560000  0.07770000  0.49120000  1
  C  C453  1  0.91560000  0.57770000  0.00880000  1
  C  C454  1  0.91730000  0.41630000  0.59050000  1
  C  C455  1  0.91730000  0.91630000  0.90950000  1
  C  C456  1  0.92950000  0.45460000  0.63520000  1
  C  C457  1  0.92950000  0.95460000  0.86480000  1
  C  C458  1  0.93240000  0.37280000  0.60422000  1
  C  C459  1  0.93240000  0.87280000  0.89578000  1
  C  C460  1  0.93380000  0.26710000  0.26456000  1
  C  C461  1  0.93380000  0.76710000  0.23544000  1
  C  C462  1  0.93480000  0.43900000  0.01356000  1
  C  C463  1  0.93480000  0.93900000  0.48644000  1
  C  C464  1  0.93580000  0.37360000  0.91703000  1
  C  C465  1  0.93580000  0.87360000  0.58297000  1
  C  C466  1  0.93650000  0.41050000  0.96142000  1
  C  C467  1  0.93650000  0.91050000  0.53858000  1
  C  C468  1  0.93920000  0.42870000  0.40095000  1
  C  C469  1  0.93920000  0.92870000  0.09905000  1
  C  C470  1  0.94100000  0.45610000  0.44904000  1
  C  C471  1  0.94100000  0.95610000  0.05096000  1
  C  C472  1  0.94200000  0.11650000  0.63104000  1
  C  C473  1  0.94200000  0.32320000  0.87070000  1
  C  C474  1  0.94200000  0.61650000  0.86896000  1
  C  C475  1  0.94200000  0.82320000  0.62930000  1
  C  C476  1  0.94250000  0.20060000  0.63168000  1
  C  C477  1  0.94250000  0.70060000  0.86832000  1
  C  C478  1  0.94440000  0.37090000  0.63443000  1
  C  C479  1  0.94440000  0.87090000  0.86557000  1
  C  C480  1  0.94500000  0.41250000  0.65046000  1
  C  C481  1  0.94500000  0.91250000  0.84954000  1
  C  C482  1  0.94690000  0.18110000  0.23799000  1
  C  C483  1  0.94690000  0.68110000  0.26201000  1
  C  C484  1  0.95680000  0.24570000  0.64797000  1
  C  C485  1  0.95680000  0.74570000  0.85203000  1
  C  C486  1  0.95690000  0.32510000  0.64966000  1
  C  C487  1  0.95690000  0.82510000  0.85034000  1
  C  C488  1  0.95720000  0.15800000  0.64592000  1
  C  C489  1  0.95720000  0.65800000  0.85408000  1
  C  C490  1  0.96830000  0.26380000  0.23603000  1
  C  C491  1  0.96830000  0.76380000  0.26397000  1
  C  C492  1  0.97420000  0.22050000  0.22215000  1
  C  C493  1  0.97420000  0.72050000  0.27785000  1
  C  C494  1  0.98160000  0.44910000  0.03965000  1
  C  C495  1  0.98160000  0.94910000  0.46035000  1
  C  C496  1  0.98650000  0.42410000  0.98912000  1
  C  C497  1  0.98650000  0.92410000  0.51088000  1
  C  C498  1  0.98880000  0.34820000  0.89304000  1
  C  C499  1  0.98880000  0.84820000  0.60696000  1
  C  C500  1  0.99430000  0.28300000  0.69074000  1
  C  C501  1  0.99430000  0.78300000  0.80926000  1
  C  C502  1  0.99500000  0.30050000  0.84948000  1
  C  C503  1  0.99500000  0.80050000  0.65052000  1
  I  I504  1  0.04522000  0.01207000  0.38593000  1
  I  I505  1  0.04522000  0.51207000  0.11407000  1
  I  I506  1  0.16464000  0.17723000  0.83512000  1
  I  I507  1  0.16464000  0.67723000  0.66488000  1
  I  I508  1  0.16895000  0.30328000  0.31244000  1
  I  I509  1  0.16895000  0.80328000  0.18756000  1
  I  I510  1  0.18713000  0.44183000  0.58225000  1
  I  I511  1  0.18713000  0.94183000  0.91775000  1
  I  I512  1  0.19254000  0.49910000  0.46563000  1
  I  I513  1  0.19254000  0.99910000  0.03437000  1
  I  I514  1  0.20276000  0.42937000  0.37773000  1
  I  I515  1  0.20276000  0.92937000  0.12227000  1
  I  I516  1  0.29724000  0.42937000  0.87773000  1
  I  I517  1  0.29724000  0.92937000  0.62227000  1
  I  I518  1  0.30746000  0.49910000  0.96563000  1
  I  I519  1  0.30746000  0.99910000  0.53437000  1
  I  I520  1  0.31287000  0.44183000  0.08225000  1
  I  I521  1  0.31287000  0.94183000  0.41775000  1
  I  I522  1  0.33105000  0.30328000  0.81244000  1
  I  I523  1  0.33105000  0.80328000  0.68756000  1
  I  I524  1  0.33536000  0.17723000  0.33512000  1
  I  I525  1  0.33536000  0.67723000  0.16488000  1
  I  I526  1  0.45478000  0.01207000  0.88593000  1
  I  I527  1  0.45478000  0.51207000  0.61407000  1
  I  I528  1  0.54522000  0.48793000  0.38593000  1
  I  I529  1  0.54522000  0.98793000  0.11407000  1
  I  I530  1  0.66464000  0.32277000  0.83512000  1
  I  I531  1  0.66464000  0.82277000  0.66488000  1
  I  I532  1  0.66895000  0.19672000  0.31244000  1
  I  I533  1  0.66895000  0.69672000  0.18756000  1
  I  I534  1  0.68713000  0.05817000  0.58225000  1
  I  I535  1  0.68713000  0.55817000  0.91775000  1
  I  I536  1  0.69254000  0.00090000  0.46563000  1
  I  I537  1  0.69254000  0.50090000  0.03437000  1
  I  I538  1  0.70276000  0.07063000  0.37773000  1
  I  I539  1  0.70276000  0.57063000  0.12227000  1
  I  I540  1  0.79724000  0.07063000  0.87773000  1
  I  I541  1  0.79724000  0.57063000  0.62227000  1
  I  I542  1  0.80746000  0.00090000  0.96563000  1
  I  I543  1  0.80746000  0.50090000  0.53437000  1
  I  I544  1  0.81287000  0.05817000  0.08225000  1
  I  I545  1  0.81287000  0.55817000  0.41775000  1
  I  I546  1  0.83105000  0.19672000  0.81244000  1
  I  I547  1  0.83105000  0.69672000  0.68756000  1
  I  I548  1  0.83536000  0.32277000  0.33512000  1
  I  I549  1  0.83536000  0.82277000  0.16488000  1
  I  I550  1  0.95478000  0.48793000  0.88593000  1
  I  I551  1  0.95478000  0.98793000  0.61407000  1
  N  N552  1  0.01360000  0.11260000  0.44079000  1
  N  N553  1  0.01360000  0.61260000  0.05921000  1
  N  N554  1  0.01380000  0.04920000  0.92273000  1
  N  N555  1  0.01380000  0.54920000  0.57727000  1
  N  N556  1  0.01720000  0.17450000  0.17887000  1
  N  N557  1  0.01720000  0.67450000  0.32113000  1
  N  N558  1  0.01740000  0.25790000  0.17651000  1
  N  N559  1  0.01740000  0.75790000  0.32349000  1
  N  N560  1  0.05630000  0.21420000  0.13348000  1
  N  N561  1  0.05630000  0.71420000  0.36652000  1
  N  N562  1  0.07600000  0.44460000  0.04302000  1
  N  N563  1  0.07600000  0.94460000  0.45698000  1
  N  N564  1  0.08560000  0.04370000  0.10568000  1
  N  N565  1  0.08560000  0.54370000  0.39432000  1
  N  N566  1  0.08770000  0.38510000  0.10271000  1
  N  N567  1  0.08770000  0.88510000  0.39729000  1
  N  N568  1  0.09080000  0.30180000  0.84884000  1
  N  N569  1  0.09080000  0.80180000  0.65116000  1
  N  N570  1  0.09570000  0.27080000  0.77982000  1
  N  N571  1  0.09570000  0.77080000  0.72018000  1
  N  N572  1  0.15480000  0.07870000  0.45919000  1
  N  N573  1  0.15480000  0.57870000  0.04081000  1
  N  N574  1  0.15720000  0.11890000  0.41289000  1
  N  N575  1  0.15720000  0.61890000  0.08711000  1
  N  N576  1  0.34280000  0.11890000  0.91289000  1
  N  N577  1  0.34280000  0.61890000  0.58711000  1
  N  N578  1  0.34520000  0.07870000  0.95919000  1
  N  N579  1  0.34520000  0.57870000  0.54081000  1
  N  N580  1  0.40430000  0.27080000  0.27982000  1
  N  N581  1  0.40430000  0.77080000  0.22018000  1
  N  N582  1  0.40920000  0.30180000  0.34884000  1
  N  N583  1  0.40920000  0.80180000  0.15116000  1
  N  N584  1  0.41230000  0.38510000  0.60271000  1
  N  N585  1  0.41230000  0.88510000  0.89729000  1
  N  N586  1  0.41440000  0.04370000  0.60568000  1
  N  N587  1  0.41440000  0.54370000  0.89432000  1
  N  N588  1  0.42400000  0.44460000  0.54302000  1
  N  N589  1  0.42400000  0.94460000  0.95698000  1
  N  N590  1  0.44370000  0.21420000  0.63348000  1
  N  N591  1  0.44370000  0.71420000  0.86652000  1
  N  N592  1  0.48260000  0.25790000  0.67651000  1
  N  N593  1  0.48260000  0.75790000  0.82349000  1
  N  N594  1  0.48280000  0.17450000  0.67887000  1
  N  N595  1  0.48280000  0.67450000  0.82113000  1
  N  N596  1  0.48620000  0.04920000  0.42273000  1
  N  N597  1  0.48620000  0.54920000  0.07727000  1
  N  N598  1  0.48640000  0.11260000  0.94079000  1
  N  N599  1  0.48640000  0.61260000  0.55921000  1
  N  N600  1  0.51360000  0.38740000  0.44079000  1
  N  N601  1  0.51360000  0.88740000  0.05921000  1
  N  N602  1  0.51380000  0.45080000  0.92273000  1
  N  N603  1  0.51380000  0.95080000  0.57727000  1
  N  N604  1  0.51720000  0.32550000  0.17887000  1
  N  N605  1  0.51720000  0.82550000  0.32113000  1
  N  N606  1  0.51740000  0.24210000  0.17651000  1
  N  N607  1  0.51740000  0.74210000  0.32349000  1
  N  N608  1  0.55630000  0.28580000  0.13348000  1
  N  N609  1  0.55630000  0.78580000  0.36652000  1
  N  N610  1  0.57600000  0.05540000  0.04302000  1
  N  N611  1  0.57600000  0.55540000  0.45698000  1
  N  N612  1  0.58560000  0.45630000  0.10568000  1
  N  N613  1  0.58560000  0.95630000  0.39432000  1
  N  N614  1  0.58770000  0.11490000  0.10271000  1
  N  N615  1  0.58770000  0.61490000  0.39729000  1
  N  N616  1  0.59080000  0.19820000  0.84884000  1
  N  N617  1  0.59080000  0.69820000  0.65116000  1
  N  N618  1  0.59570000  0.22920000  0.77982000  1
  N  N619  1  0.59570000  0.72920000  0.72018000  1
  N  N620  1  0.65480000  0.42130000  0.45919000  1
  N  N621  1  0.65480000  0.92130000  0.04081000  1
  N  N622  1  0.65720000  0.38110000  0.41289000  1
  N  N623  1  0.65720000  0.88110000  0.08711000  1
  N  N624  1  0.84280000  0.38110000  0.91289000  1
  N  N625  1  0.84280000  0.88110000  0.58711000  1
  N  N626  1  0.84520000  0.42130000  0.95919000  1
  N  N627  1  0.84520000  0.92130000  0.54081000  1
  N  N628  1  0.90430000  0.22920000  0.27982000  1
  N  N629  1  0.90430000  0.72920000  0.22018000  1
  N  N630  1  0.90920000  0.19820000  0.34884000  1
  N  N631  1  0.90920000  0.69820000  0.15116000  1
  N  N632  1  0.91230000  0.11490000  0.60271000  1
  N  N633  1  0.91230000  0.61490000  0.89729000  1
  N  N634  1  0.91440000  0.45630000  0.60568000  1
  N  N635  1  0.91440000  0.95630000  0.89432000  1
  N  N636  1  0.92400000  0.05540000  0.54302000  1
  N  N637  1  0.92400000  0.55540000  0.95698000  1
  N  N638  1  0.94370000  0.28580000  0.63348000  1
  N  N639  1  0.94370000  0.78580000  0.86652000  1
  N  N640  1  0.98260000  0.24210000  0.67651000  1
  N  N641  1  0.98260000  0.74210000  0.82349000  1
  N  N642  1  0.98280000  0.32550000  0.67887000  1
  N  N643  1  0.98280000  0.82550000  0.82113000  1
  N  N644  1  0.98620000  0.45080000  0.42273000  1
  N  N645  1  0.98620000  0.95080000  0.07727000  1
  N  N646  1  0.98640000  0.38740000  0.94079000  1
  N  N647  1  0.98640000  0.88740000  0.55921000  1
