# generated using pymatgen
data_MgAl7(PO4)8
_symmetry_space_group_name_H-M   'P 1'
_cell_length_a   9.21870000
_cell_length_b   14.58110000
_cell_length_c   14.86520000
_cell_angle_alpha   90.00000000
_cell_angle_beta   90.00000000
_cell_angle_gamma   90.00000000
_symmetry_Int_Tables_number   1
_chemical_formula_structural   MgAl7(PO4)8
_chemical_formula_sum   'Mg2 Al14 P16 O64'
_cell_volume   1998.16214612
_cell_formula_units_Z   2
loop_
 _symmetry_equiv_pos_site_id
 _symmetry_equiv_pos_as_xyz
  1  'x, y, z'
loop_
 _atom_site_type_symbol
 _atom_site_label
 _atom_site_symmetry_multiplicity
 _atom_site_fract_x
 _atom_site_fract_y
 _atom_site_fract_z
 _atom_site_occupancy
  Mg  Mg0  1  0.67090000  0.25000000  0.51900000  1
  Mg  Mg1  1  0.32910000  0.75000000  0.48100000  1
  Al  Al2  1  0.89890000  0.75000000  0.36470000  1
  Al  Al3  1  0.89890000  0.25000000  0.13530000  1
  Al  Al4  1  0.85200000  0.38550000  0.84790000  1
  Al  Al5  1  0.85200000  0.11450000  0.84790000  1
  Al  Al6  1  0.85200000  0.88550000  0.65210000  1
  Al  Al7  1  0.85200000  0.61450000  0.65210000  1
  Al  Al8  1  0.67090000  0.75000000  0.98100000  1
  Al  Al9  1  0.32910000  0.25000000  0.01900000  1
  Al  Al10  1  0.14800000  0.38550000  0.34790000  1
  Al  Al11  1  0.14800000  0.11450000  0.34790000  1
  Al  Al12  1  0.14800000  0.88550000  0.15210000  1
  Al  Al13  1  0.14800000  0.61450000  0.15210000  1
  Al  Al14  1  0.10110000  0.75000000  0.86470000  1
  Al  Al15  1  0.10110000  0.25000000  0.63530000  1
  P  P16  1  0.88900000  0.25000000  0.33470000  1
  P  P17  1  0.88900000  0.75000000  0.16530000  1
  P  P18  1  0.84520000  0.89590000  0.86440000  1
  P  P19  1  0.84520000  0.60410000  0.86440000  1
  P  P20  1  0.84520000  0.39590000  0.63560000  1
  P  P21  1  0.84520000  0.10410000  0.63560000  1
  P  P22  1  0.68510000  0.25000000  0.96380000  1
  P  P23  1  0.68510000  0.75000000  0.53620000  1
  P  P24  1  0.31490000  0.25000000  0.46380000  1
  P  P25  1  0.31490000  0.75000000  0.03620000  1
  P  P26  1  0.15480000  0.89590000  0.36440000  1
  P  P27  1  0.15480000  0.60410000  0.36440000  1
  P  P28  1  0.15480000  0.39590000  0.13560000  1
  P  P29  1  0.15480000  0.10410000  0.13560000  1
  P  P30  1  0.11100000  0.25000000  0.83470000  1
  P  P31  1  0.11100000  0.75000000  0.66530000  1
  O  O32  1  0.98660000  0.84740000  0.88090000  1
  O  O33  1  0.98660000  0.65260000  0.88090000  1
  O  O34  1  0.98660000  0.34740000  0.61910000  1
  O  O35  1  0.98660000  0.15260000  0.61910000  1
  O  O36  1  0.97250000  0.33720000  0.35970000  1
  O  O37  1  0.97250000  0.16280000  0.35970000  1
  O  O38  1  0.97250000  0.83720000  0.14030000  1
  O  O39  1  0.97250000  0.66280000  0.14030000  1
  O  O40  1  0.87310000  0.99740000  0.88840000  1
  O  O41  1  0.87310000  0.50260000  0.88840000  1
  O  O42  1  0.87310000  0.49740000  0.61160000  1
  O  O43  1  0.87310000  0.00260000  0.61160000  1
  O  O44  1  0.81440000  0.75000000  0.25700000  1
  O  O45  1  0.81440000  0.25000000  0.24300000  1
  O  O46  1  0.78980000  0.88130000  0.76720000  1
  O  O47  1  0.78980000  0.61870000  0.76720000  1
  O  O48  1  0.78980000  0.38130000  0.73280000  1
  O  O49  1  0.78980000  0.11870000  0.73280000  1
  O  O50  1  0.75720000  0.25000000  0.39460000  1
  O  O51  1  0.75720000  0.75000000  0.10540000  1
  O  O52  1  0.75630000  0.75000000  0.44630000  1
  O  O53  1  0.75630000  0.25000000  0.05370000  1
  O  O54  1  0.73260000  0.86360000  0.93050000  1
  O  O55  1  0.73260000  0.63640000  0.93050000  1
  O  O56  1  0.73260000  0.36360000  0.56950000  1
  O  O57  1  0.73260000  0.13640000  0.56950000  1
  O  O58  1  0.72800000  0.33980000  0.92630000  1
  O  O59  1  0.72800000  0.16020000  0.92630000  1
  O  O60  1  0.72800000  0.83980000  0.57370000  1
  O  O61  1  0.72800000  0.66020000  0.57370000  1
  O  O62  1  0.53150000  0.25000000  0.99390000  1
  O  O63  1  0.53150000  0.75000000  0.50610000  1
  O  O64  1  0.46850000  0.25000000  0.49390000  1
  O  O65  1  0.46850000  0.75000000  0.00610000  1
  O  O66  1  0.27200000  0.33980000  0.42630000  1
  O  O67  1  0.27200000  0.16020000  0.42630000  1
  O  O68  1  0.27200000  0.83980000  0.07370000  1
  O  O69  1  0.27200000  0.66020000  0.07370000  1
  O  O70  1  0.26740000  0.86360000  0.43050000  1
  O  O71  1  0.26740000  0.63640000  0.43050000  1
  O  O72  1  0.26740000  0.36360000  0.06950000  1
  O  O73  1  0.26740000  0.13640000  0.06950000  1
  O  O74  1  0.24370000  0.75000000  0.94630000  1
  O  O75  1  0.24370000  0.25000000  0.55370000  1
  O  O76  1  0.24280000  0.25000000  0.89460000  1
  O  O77  1  0.24280000  0.75000000  0.60540000  1
  O  O78  1  0.21020000  0.88130000  0.26720000  1
  O  O79  1  0.21020000  0.61870000  0.26720000  1
  O  O80  1  0.21020000  0.38130000  0.23280000  1
  O  O81  1  0.21020000  0.11870000  0.23280000  1
  O  O82  1  0.18560000  0.75000000  0.75700000  1
  O  O83  1  0.18560000  0.25000000  0.74300000  1
  O  O84  1  0.12690000  0.99740000  0.38840000  1
  O  O85  1  0.12690000  0.50260000  0.38840000  1
  O  O86  1  0.12690000  0.49740000  0.11160000  1
  O  O87  1  0.12690000  0.00260000  0.11160000  1
  O  O88  1  0.02750000  0.33720000  0.85970000  1
  O  O89  1  0.02750000  0.16280000  0.85970000  1
  O  O90  1  0.02750000  0.83720000  0.64030000  1
  O  O91  1  0.02750000  0.66280000  0.64030000  1
  O  O92  1  0.01340000  0.84740000  0.38090000  1
  O  O93  1  0.01340000  0.65260000  0.38090000  1
  O  O94  1  0.01340000  0.34740000  0.11910000  1
  O  O95  1  0.01340000  0.15260000  0.11910000  1
