# generated using pymatgen
data_Sm2CuH12C32(NO6)4
_symmetry_space_group_name_H-M   'P 1'
_cell_length_a   10.52800000
_cell_length_b   10.67100000
_cell_length_c   11.37800000
_cell_angle_alpha   83.14000000
_cell_angle_beta   74.61000000
_cell_angle_gamma   69.34000000
_symmetry_Int_Tables_number   1
_chemical_formula_structural   Sm2CuH12C32(NO6)4
_chemical_formula_sum   'Sm2 Cu1 H12 C32 N4 O24'
_cell_volume   1152.68930562
_cell_formula_units_Z   1
loop_
 _symmetry_equiv_pos_site_id
 _symmetry_equiv_pos_as_xyz
  1  'x, y, z'
loop_
 _atom_site_type_symbol
 _atom_site_label
 _atom_site_symmetry_multiplicity
 _atom_site_fract_x
 _atom_site_fract_y
 _atom_site_fract_z
 _atom_site_occupancy
  Sm  Sm0  1  0.41205000  0.40328000  0.36906000  1
  Sm  Sm1  1  0.58795000  0.59672000  0.63094000  1
  Cu  Cu2  1  0.00000000  0.50000000  0.50000000  1
  H  H3  1  0.00730000  0.83570000  0.64610000  1
  H  H4  1  0.08440000  0.67430000  0.80230000  1
  H  H5  1  0.10870000  0.33820000  0.84170000  1
  H  H6  1  0.17730000  0.76320000  0.33840000  1
  H  H7  1  0.31080000  0.51880000  0.05220000  1
  H  H8  1  0.35010000  0.98780000  0.46260000  1
  H  H9  1  0.64990000  0.01220000  0.53740000  1
  H  H10  1  0.68920000  0.48120000  0.94780000  1
  H  H11  1  0.82270000  0.23680000  0.66160000  1
  H  H12  1  0.89130000  0.66180000  0.15830000  1
  H  H13  1  0.91560000  0.32570000  0.19770000  1
  H  H14  1  0.99270000  0.16430000  0.35390000  1
  C  C15  1  0.02660000  0.35640000  0.90300000  1
  C  C16  1  0.03110000  0.32470000  0.02330000  1
  C  C17  1  0.06680000  0.08810000  0.36490000  1
  C  C18  1  0.07380000  0.96320000  0.33620000  1
  C  C19  1  0.08980000  0.65140000  0.88270000  1
  C  C20  1  0.10270000  0.58400000  0.12510000  1
  C  C21  1  0.10740000  0.54820000  0.25520000  1
  C  C22  1  0.16740000  0.23340000  0.43770000  1
  C  C23  1  0.17260000  0.09710000  0.41060000  1
  C  C24  1  0.17710000  0.84590000  0.35680000  1
  C  C25  1  0.21930000  0.59210000  0.91190000  1
  C  C26  1  0.22450000  0.55870000  0.03280000  1
  C  C27  1  0.27930000  0.98150000  0.43150000  1
  C  C28  1  0.28090000  0.85570000  0.40610000  1
  C  C29  1  0.35080000  0.57100000  0.81300000  1
  C  C30  1  0.39090000  0.73180000  0.43810000  1
  C  C31  1  0.60910000  0.26820000  0.56190000  1
  C  C32  1  0.64920000  0.42900000  0.18700000  1
  C  C33  1  0.71910000  0.14430000  0.59390000  1
  C  C34  1  0.72070000  0.01850000  0.56850000  1
  C  C35  1  0.77550000  0.44130000  0.96720000  1
  C  C36  1  0.78070000  0.40790000  0.08810000  1
  C  C37  1  0.82290000  0.15410000  0.64320000  1
  C  C38  1  0.82740000  0.90290000  0.58940000  1
  C  C39  1  0.83260000  0.76660000  0.56230000  1
  C  C40  1  0.89260000  0.45180000  0.74480000  1
  C  C41  1  0.89730000  0.41600000  0.87490000  1
  C  C42  1  0.91020000  0.34860000  0.11730000  1
  C  C43  1  0.92620000  0.03680000  0.66380000  1
  C  C44  1  0.93320000  0.91190000  0.63510000  1
  C  C45  1  0.96890000  0.67530000  0.97670000  1
  C  C46  1  0.97340000  0.64360000  0.09700000  1
  N  N47  1  0.03920000  0.04320000  0.71370000  1
  N  N48  1  0.16790000  0.26450000  0.05230000  1
  N  N49  1  0.83210000  0.73550000  0.94770000  1
  N  N50  1  0.96080000  0.95680000  0.28630000  1
  O  O51  1  0.00570000  0.44090000  0.66840000  1
  O  O52  1  0.04630000  0.15210000  0.72560000  1
  O  O53  1  0.04670000  0.32000000  0.45480000  1
  O  O54  1  0.12590000  0.93900000  0.73690000  1
  O  O55  1  0.17200000  0.24910000  0.15930000  1
  O  O56  1  0.22370000  0.51110000  0.28220000  1
  O  O57  1  0.27150000  0.23990000  0.96810000  1
  O  O58  1  0.27560000  0.25220000  0.44230000  1
  O  O59  1  0.33950000  0.61130000  0.70490000  1
  O  O60  1  0.39590000  0.62080000  0.40760000  1
  O  O61  1  0.46720000  0.51910000  0.83830000  1
  O  O62  1  0.47030000  0.74780000  0.49540000  1
  O  O63  1  0.52970000  0.25220000  0.50460000  1
  O  O64  1  0.53280000  0.48090000  0.16170000  1
  O  O65  1  0.60410000  0.37920000  0.59240000  1
  O  O66  1  0.66050000  0.38870000  0.29510000  1
  O  O67  1  0.72440000  0.74780000  0.55770000  1
  O  O68  1  0.72850000  0.76010000  0.03190000  1
  O  O69  1  0.77630000  0.48890000  0.71780000  1
  O  O70  1  0.82800000  0.75090000  0.84070000  1
  O  O71  1  0.87410000  0.06100000  0.26310000  1
  O  O72  1  0.95330000  0.68000000  0.54520000  1
  O  O73  1  0.95370000  0.84790000  0.27440000  1
  O  O74  1  0.99430000  0.55910000  0.33160000  1
