# generated using pymatgen
data_Cd5H36C54N18(ClO3)4
_symmetry_space_group_name_H-M   'P 1'
_cell_length_a   12.94600000
_cell_length_b   17.32100000
_cell_length_c   22.15300000
_cell_angle_alpha   70.13000000
_cell_angle_beta   76.08000000
_cell_angle_gamma   73.31000000
_symmetry_Int_Tables_number   1
_chemical_formula_structural   Cd5H36C54N18(ClO3)4
_chemical_formula_sum   'Cd10 H72 C108 N36 Cl8 O24'
_cell_volume   4418.28655204
_cell_formula_units_Z   2
loop_
 _symmetry_equiv_pos_site_id
 _symmetry_equiv_pos_as_xyz
  1  'x, y, z'
loop_
 _atom_site_type_symbol
 _atom_site_label
 _atom_site_symmetry_multiplicity
 _atom_site_fract_x
 _atom_site_fract_y
 _atom_site_fract_z
 _atom_site_occupancy
  Cd  Cd0  1  0.16515000  0.54865000  0.01310000  1
  Cd  Cd1  1  0.16746000  0.00526000  0.48319000  1
  Cd  Cd2  1  0.17465000  0.77685000  0.24808000  1
  Cd  Cd3  1  0.17631000  0.81187000  0.40831000  1
  Cd  Cd4  1  0.17809000  0.73405000  0.09075000  1
  Cd  Cd5  1  0.82191000  0.26595000  0.90925000  1
  Cd  Cd6  1  0.82369000  0.18813000  0.59169000  1
  Cd  Cd7  1  0.82535000  0.22315000  0.75192000  1
  Cd  Cd8  1  0.83254000  0.99474000  0.51681000  1
  Cd  Cd9  1  0.83485000  0.45135000  0.98690000  1
  H  H10  1  0.05340000  0.00630000  0.79950000  1
  H  H11  1  0.06250000  0.28010000  0.08040000  1
  H  H12  1  0.06840000  0.13940000  0.13780000  1
  H  H13  1  0.07880000  0.02100000  0.68880000  1
  H  H14  1  0.09600000  0.75730000  0.68420000  1
  H  H15  1  0.09610000  0.73440000  0.79300000  1
  H  H16  1  0.10220000  0.40470000  0.24060000  1
  H  H17  1  0.10320000  0.26420000  0.29440000  1
  H  H18  1  0.10700000  0.41700000  0.94080000  1
  H  H19  1  0.10880000  0.23410000  0.87320000  1
  H  H20  1  0.11010000  0.17350000  0.54950000  1
  H  H21  1  0.11710000  0.19900000  0.71750000  1
  H  H22  1  0.12870000  0.00780000  0.89720000  1
  H  H23  1  0.13030000  0.54960000  0.60910000  1
  H  H24  1  0.15620000  0.56910000  0.33870000  1
  H  H25  1  0.17790000  0.03260000  0.32280000  1
  H  H26  1  0.17870000  0.76450000  0.93330000  1
  H  H27  1  0.18000000  0.98680000  0.16010000  1
  H  H28  1  0.19260000  0.76970000  0.56570000  1
  H  H29  1  0.19540000  0.51670000  0.17380000  1
  H  H30  1  0.21990000  0.28140000  0.43910000  1
  H  H31  1  0.22030000  0.42260000  0.38440000  1
  H  H32  1  0.23960000  0.51630000  0.69900000  1
  H  H33  1  0.24390000  0.49160000  0.80800000  1
  H  H34  1  0.27740000  0.28380000  0.18150000  1
  H  H35  1  0.27900000  0.29370000  0.98270000  1
  H  H36  1  0.28650000  0.14270000  0.23690000  1
  H  H37  1  0.28850000  0.79260000  0.82240000  1
  H  H38  1  0.28870000  0.24920000  0.65730000  1
  H  H39  1  0.29220000  0.30500000  0.79860000  1
  H  H40  1  0.29320000  0.08220000  0.56750000  1
  H  H41  1  0.30410000  0.80370000  0.71370000  1
  H  H42  1  0.46630000  0.27540000  0.96480000  1
  H  H43  1  0.47910000  0.21930000  0.63710000  1
  H  H44  1  0.48150000  0.27110000  0.78540000  1
  H  H45  1  0.48190000  0.05490000  0.54530000  1
  H  H46  1  0.51810000  0.94510000  0.45470000  1
  H  H47  1  0.51850000  0.72890000  0.21460000  1
  H  H48  1  0.52090000  0.78070000  0.36290000  1
  H  H49  1  0.53370000  0.72460000  0.03520000  1
  H  H50  1  0.69590000  0.19630000  0.28630000  1
  H  H51  1  0.70680000  0.91780000  0.43250000  1
  H  H52  1  0.70780000  0.69500000  0.20140000  1
  H  H53  1  0.71130000  0.75080000  0.34270000  1
  H  H54  1  0.71150000  0.20740000  0.17760000  1
  H  H55  1  0.71350000  0.85730000  0.76310000  1
  H  H56  1  0.72100000  0.70630000  0.01730000  1
  H  H57  1  0.72260000  0.71620000  0.81850000  1
  H  H58  1  0.75610000  0.50840000  0.19200000  1
  H  H59  1  0.76040000  0.48370000  0.30100000  1
  H  H60  1  0.77970000  0.57740000  0.61560000  1
  H  H61  1  0.78010000  0.71860000  0.56090000  1
  H  H62  1  0.80460000  0.48330000  0.82620000  1
  H  H63  1  0.80740000  0.23030000  0.43430000  1
  H  H64  1  0.82000000  0.01320000  0.83990000  1
  H  H65  1  0.82130000  0.23550000  0.06670000  1
  H  H66  1  0.82210000  0.96740000  0.67720000  1
  H  H67  1  0.84380000  0.43090000  0.66130000  1
  H  H68  1  0.86970000  0.45040000  0.39090000  1
  H  H69  1  0.87130000  0.99220000  0.10280000  1
  H  H70  1  0.88290000  0.80100000  0.28250000  1
  H  H71  1  0.88990000  0.82650000  0.45050000  1
  H  H72  1  0.89120000  0.76590000  0.12680000  1
  H  H73  1  0.89300000  0.58300000  0.05920000  1
  H  H74  1  0.89680000  0.73580000  0.70560000  1
  H  H75  1  0.89780000  0.59530000  0.75940000  1
  H  H76  1  0.90390000  0.26560000  0.20700000  1
  H  H77  1  0.90400000  0.24270000  0.31580000  1
  H  H78  1  0.92120000  0.97900000  0.31120000  1
  H  H79  1  0.93160000  0.86060000  0.86220000  1
  H  H80  1  0.93750000  0.71990000  0.91960000  1
  H  H81  1  0.94660000  0.99370000  0.20050000  1
  C  C82  1  0.08480000  0.37840000  0.92880000  1
  C  C83  1  0.08550000  0.27820000  0.89180000  1
  C  C84  1  0.08820000  0.18250000  0.59020000  1
  C  C85  1  0.09260000  0.19670000  0.68220000  1
  C  C86  1  0.10500000  0.96660000  0.78180000  1
  C  C87  1  0.10670000  0.25310000  0.11240000  1
  C  C88  1  0.11030000  0.16880000  0.14650000  1
  C  C89  1  0.11910000  0.97440000  0.71600000  1
  C  C90  1  0.12520000  0.70380000  0.70970000  1
  C  C91  1  0.12580000  0.69050000  0.77440000  1
  C  C92  1  0.12740000  0.29580000  0.31260000  1
  C  C93  1  0.12800000  0.37930000  0.28010000  1
  C  C94  1  0.14020000  0.95040000  0.91860000  1
  C  C95  1  0.14200000  0.60320000  0.58630000  1
  C  C96  1  0.15980000  0.39050000  0.09040000  1
  C  C97  1  0.16280000  0.25920000  0.37230000  1
  C  C98  1  0.16430000  0.16770000  0.40720000  1
  C  C99  1  0.16560000  0.57390000  0.29470000  1
  C  C100  1  0.16680000  0.42470000  0.30600000  1
  C  C101  1  0.16730000  0.63880000  0.68210000  1
  C  C102  1  0.16760000  0.81780000  0.93780000  1
  C  C103  1  0.16800000  0.29710000  0.12540000  1
  C  C104  1  0.16970000  0.89850000  0.82070000  1
  C  C105  1  0.17140000  0.61030000  0.81180000  1
  C  C106  1  0.17260000  0.59430000  0.88300000  1
  C  C107  1  0.17590000  0.12970000  0.19300000  1
  C  C108  1  0.17610000  0.72220000  0.56310000  1
  C  C109  1  0.17870000  0.00530000  0.29300000  1
  C  C110  1  0.18010000  0.98020000  0.20350000  1
  C  C111  1  0.18720000  0.54520000  0.20400000  1
  C  C112  1  0.19200000  0.91360000  0.69080000  1
  C  C113  1  0.19710000  0.30590000  0.39870000  1
  C  C114  1  0.19840000  0.39040000  0.36580000  1
  C  C115  1  0.20580000  0.91990000  0.61950000  1
  C  C116  1  0.21140000  0.55980000  0.71810000  1
  C  C117  1  0.21380000  0.54520000  0.78320000  1
  C  C118  1  0.23520000  0.25500000  0.17240000  1
  C  C119  1  0.24030000  0.17080000  0.20600000  1
  C  C120  1  0.24520000  0.83760000  0.79580000  1
  C  C121  1  0.25510000  0.84490000  0.73090000  1
  C  C122  1  0.27010000  0.29920000  0.89220000  1
  C  C123  1  0.27500000  0.16750000  0.61350000  1
  C  C124  1  0.31970000  0.29020000  0.94260000  1
  C  C125  1  0.32780000  0.29490000  0.83320000  1
  C  C126  1  0.32790000  0.21020000  0.63510000  1
  C  C127  1  0.33090000  0.11020000  0.58080000  1
  C  C128  1  0.37730000  0.88360000  0.42440000  1
  C  C129  1  0.38230000  0.75760000  0.13360000  1
  C  C130  1  0.43170000  0.27580000  0.93240000  1
  C  C131  1  0.44080000  0.27530000  0.82530000  1
  C  C132  1  0.44160000  0.19260000  0.62230000  1
  C  C133  1  0.44350000  0.09380000  0.56760000  1
  C  C134  1  0.49350000  0.26210000  0.87640000  1
  C  C135  1  0.49930000  0.13600000  0.58800000  1
  C  C136  1  0.50070000  0.86400000  0.41200000  1
  C  C137  1  0.50650000  0.73790000  0.12360000  1
  C  C138  1  0.55650000  0.90620000  0.43240000  1
  C  C139  1  0.55840000  0.80740000  0.37770000  1
  C  C140  1  0.55920000  0.72470000  0.17470000  1
  C  C141  1  0.56830000  0.72420000  0.06760000  1
  C  C142  1  0.61770000  0.24240000  0.86640000  1
  C  C143  1  0.62270000  0.11640000  0.57560000  1
  C  C144  1  0.66910000  0.88980000  0.41920000  1
  C  C145  1  0.67210000  0.78980000  0.36490000  1
  C  C146  1  0.67220000  0.70510000  0.16680000  1
  C  C147  1  0.68030000  0.70980000  0.05740000  1
  C  C148  1  0.72500000  0.83250000  0.38650000  1
  C  C149  1  0.72990000  0.70080000  0.10780000  1
  C  C150  1  0.74490000  0.15510000  0.26910000  1
  C  C151  1  0.75480000  0.16240000  0.20420000  1
  C  C152  1  0.75970000  0.82920000  0.79400000  1
  C  C153  1  0.76480000  0.74500000  0.82760000  1
  C  C154  1  0.78620000  0.45480000  0.21680000  1
  C  C155  1  0.78860000  0.44020000  0.28190000  1
  C  C156  1  0.79420000  0.08010000  0.38050000  1
  C  C157  1  0.80160000  0.60960000  0.63420000  1
  C  C158  1  0.80290000  0.69410000  0.60130000  1
  C  C159  1  0.80800000  0.08640000  0.30920000  1
  C  C160  1  0.81280000  0.45480000  0.79600000  1
  C  C161  1  0.81990000  0.01980000  0.79650000  1
  C  C162  1  0.82130000  0.99470000  0.70700000  1
  C  C163  1  0.82390000  0.27780000  0.43690000  1
  C  C164  1  0.82410000  0.87030000  0.80700000  1
  C  C165  1  0.82740000  0.40570000  0.11700000  1
  C  C166  1  0.82860000  0.38970000  0.18820000  1
  C  C167  1  0.83030000  0.10150000  0.17930000  1
  C  C168  1  0.83200000  0.70290000  0.87460000  1
  C  C169  1  0.83240000  0.18220000  0.06220000  1
  C  C170  1  0.83270000  0.36120000  0.31790000  1
  C  C171  1  0.83320000  0.57530000  0.69400000  1
  C  C172  1  0.83440000  0.42610000  0.70530000  1
  C  C173  1  0.83570000  0.83230000  0.59280000  1
  C  C174  1  0.83720000  0.74080000  0.62770000  1
  C  C175  1  0.84020000  0.60950000  0.90960000  1
  C  C176  1  0.85800000  0.39680000  0.41370000  1
  C  C177  1  0.85980000  0.04960000  0.08140000  1
  C  C178  1  0.87200000  0.62070000  0.71990000  1
  C  C179  1  0.87260000  0.70420000  0.68740000  1
  C  C180  1  0.87420000  0.30950000  0.22560000  1
  C  C181  1  0.87480000  0.29620000  0.29030000  1
  C  C182  1  0.88090000  0.02560000  0.28400000  1
  C  C183  1  0.88970000  0.83120000  0.85350000  1
  C  C184  1  0.89330000  0.74690000  0.88760000  1
  C  C185  1  0.89500000  0.03340000  0.21820000  1
  C  C186  1  0.90740000  0.80330000  0.31780000  1
  C  C187  1  0.91180000  0.81750000  0.40980000  1
  C  C188  1  0.91450000  0.72180000  0.10820000  1
  C  C189  1  0.91520000  0.62160000  0.07120000  1
  N  N190  1  0.01120000  0.80280000  0.38150000  1
  N  N191  1  0.01170000  0.79230000  0.32220000  1
  N  N192  1  0.01590000  0.68980000  0.08880000  1
  N  N193  1  0.01680000  0.62630000  0.06500000  1
  N  N194  1  0.13990000  0.63600000  0.52520000  1
  N  N195  1  0.14090000  0.91930000  0.97950000  1
  N  N196  1  0.15260000  0.31810000  0.90220000  1
  N  N197  1  0.15730000  0.18190000  0.62810000  1
  N  N198  1  0.15830000  0.89020000  0.88820000  1
  N  N199  1  0.15910000  0.83250000  0.99190000  1
  N  N200  1  0.16280000  0.65360000  0.61430000  1
  N  N201  1  0.16310000  0.71300000  0.51100000  1
  N  N202  1  0.17300000  0.51040000  0.27020000  1
  N  N203  1  0.17370000  0.64280000  0.24740000  1
  N  N204  1  0.17910000  0.92530000  0.30730000  1
  N  N205  1  0.17950000  0.04240000  0.22800000  1
  N  N206  1  0.18090000  0.90940000  0.25050000  1
  N  N207  1  0.18740000  0.62420000  0.19030000  1
  N  N208  1  0.81260000  0.37580000  0.80970000  1
  N  N209  1  0.81910000  0.09060000  0.74950000  1
  N  N210  1  0.82050000  0.95760000  0.77200000  1
  N  N211  1  0.82090000  0.07470000  0.69270000  1
  N  N212  1  0.82630000  0.35720000  0.75260000  1
  N  N213  1  0.82700000  0.48960000  0.72980000  1
  N  N214  1  0.83690000  0.28700000  0.48900000  1
  N  N215  1  0.83720000  0.34640000  0.38570000  1
  N  N216  1  0.84090000  0.16750000  0.00810000  1
  N  N217  1  0.84170000  0.10980000  0.11180000  1
  N  N218  1  0.84270000  0.81810000  0.37190000  1
  N  N219  1  0.84740000  0.68190000  0.09780000  1
  N  N220  1  0.85910000  0.08070000  0.02050000  1
  N  N221  1  0.86010000  0.36400000  0.47480000  1
  N  N222  1  0.98320000  0.37370000  0.93500000  1
  N  N223  1  0.98410000  0.31020000  0.91120000  1
  N  N224  1  0.98830000  0.20770000  0.67780000  1
  N  N225  1  0.98880000  0.19720000  0.61850000  1
  Cl  Cl226  1  0.05532000  0.83723000  0.15491000  1
  Cl  Cl227  1  0.05536000  0.91954000  0.46810000  1
  Cl  Cl228  1  0.27952000  0.70458000  0.34725000  1
  Cl  Cl229  1  0.29231000  0.62030000  0.03149000  1
  Cl  Cl230  1  0.70769000  0.37970000  0.96851000  1
  Cl  Cl231  1  0.72048000  0.29542000  0.65275000  1
  Cl  Cl232  1  0.94464000  0.08046000  0.53190000  1
  Cl  Cl233  1  0.94468000  0.16277000  0.84509000  1
  O  O234  1  0.09800000  0.42470000  0.04920000  1
  O  O235  1  0.13570000  0.12480000  0.38170000  1
  O  O236  1  0.14360000  0.65480000  0.90630000  1
  O  O237  1  0.17160000  0.99370000  0.58370000  1
  O  O238  1  0.19730000  0.13740000  0.46150000  1
  O  O239  1  0.20250000  0.51960000  0.91680000  1
  O  O240  1  0.21420000  0.42830000  0.10360000  1
  O  O241  1  0.24420000  0.85700000  0.60020000  1
  O  O242  1  0.33100000  0.95350000  0.43410000  1
  O  O243  1  0.33333333  0.82970000  0.42310000  1
  O  O244  1  0.33600000  0.77290000  0.18380000  1
  O  O245  1  0.34140000  0.75600000  0.08880000  1
  O  O246  1  0.65860000  0.24400000  0.91120000  1
  O  O247  1  0.66400000  0.22710000  0.81620000  1
  O  O248  1  0.66666667  0.17030000  0.57690000  1
  O  O249  1  0.66900000  0.04650000  0.56590000  1
  O  O250  1  0.75580000  0.14300000  0.39980000  1
  O  O251  1  0.78580000  0.57170000  0.89640000  1
  O  O252  1  0.79750000  0.48040000  0.08320000  1
  O  O253  1  0.80270000  0.86260000  0.53850000  1
  O  O254  1  0.82840000  0.00630000  0.41630000  1
  O  O255  1  0.85640000  0.34520000  0.09370000  1
  O  O256  1  0.86430000  0.87520000  0.61830000  1
  O  O257  1  0.90200000  0.57530000  0.95080000  1
