# generated using pymatgen
data_Zn8H92C139(N15O16)2
_symmetry_space_group_name_H-M   'P 1'
_cell_length_a   17.99460000
_cell_length_b   20.49000000
_cell_length_c   27.77200000
_cell_angle_alpha   82.11300000
_cell_angle_beta   72.54300000
_cell_angle_gamma   84.88400000
_symmetry_Int_Tables_number   1
_chemical_formula_structural   Zn8H92C139(N15O16)2
_chemical_formula_sum   'Zn16 H184 C278 N60 O64'
_cell_volume   9663.27843155
_cell_formula_units_Z   2
loop_
 _symmetry_equiv_pos_site_id
 _symmetry_equiv_pos_as_xyz
  1  'x, y, z'
loop_
 _atom_site_type_symbol
 _atom_site_label
 _atom_site_symmetry_multiplicity
 _atom_site_fract_x
 _atom_site_fract_y
 _atom_site_fract_z
 _atom_site_occupancy
  Zn  Zn0  1  0.05452000  0.21076000  0.77753000  1
  Zn  Zn1  1  0.07493000  0.73242000  0.76985000  1
  Zn  Zn2  1  0.08757000  0.27917000  0.57110000  1
  Zn  Zn3  1  0.20231000  0.59918000  0.02450000  1
  Zn  Zn4  1  0.32790000  0.92911000  0.46839000  1
  Zn  Zn5  1  0.37466000  0.22275000  0.93025000  1
  Zn  Zn6  1  0.38972000  0.74144000  0.72586000  1
  Zn  Zn7  1  0.41772000  0.26196000  0.72040000  1
  Zn  Zn8  1  0.58228000  0.73804000  0.27960000  1
  Zn  Zn9  1  0.61028000  0.25856000  0.27414000  1
  Zn  Zn10  1  0.62534000  0.77725000  0.06975000  1
  Zn  Zn11  1  0.67210000  0.07089000  0.53161000  1
  Zn  Zn12  1  0.79769000  0.40082000  0.97550000  1
  Zn  Zn13  1  0.91243000  0.72083000  0.42890000  1
  Zn  Zn14  1  0.92507000  0.26758000  0.23015000  1
  Zn  Zn15  1  0.94548000  0.78924000  0.22247000  1
  H  H16  1  0.00650000  0.21330000  0.32120000  1
  H  H17  1  0.00780000  0.54910000  0.96960000  1
  H  H18  1  0.00960000  0.47950000  0.79170000  1
  H  H19  1  0.01450000  0.10600000  0.09160000  1
  H  H20  1  0.01460000  0.06360000  0.32370000  1
  H  H21  1  0.02170000  0.60020000  0.09570000  1
  H  H22  1  0.02280000  0.09480000  0.00890000  1
  H  H23  1  0.03510000  0.94960000  0.32440000  1
  H  H24  1  0.03980000  0.82810000  0.03810000  1
  H  H25  1  0.04580000  0.56360000  0.29610000  1
  H  H26  1  0.06080000  0.00280000  0.91330000  1
  H  H27  1  0.07180000  0.40800000  0.63090000  1
  H  H28  1  0.07600000  0.83430000  0.26850000  1
  H  H29  1  0.08170000  0.72120000  0.35580000  1
  H  H30  1  0.08610000  0.89700000  0.61220000  1
  H  H31  1  0.10230000  0.76970000  0.13730000  1
  H  H32  1  0.10350000  0.27180000  0.17640000  1
  H  H33  1  0.10450000  0.58420000  0.88010000  1
  H  H34  1  0.11140000  0.38810000  0.87660000  1
  H  H35  1  0.11250000  0.72340000  0.91860000  1
  H  H36  1  0.11370000  0.95710000  0.97510000  1
  H  H37  1  0.12920000  0.49120000  0.98880000  1
  H  H38  1  0.13310000  0.07230000  0.73680000  1
  H  H39  1  0.14220000  0.62030000  0.22230000  1
  H  H40  1  0.14490000  0.89490000  0.37060000  1
  H  H41  1  0.14810000  0.21800000  0.30950000  1
  H  H42  1  0.15110000  0.08340000  0.55510000  1
  H  H43  1  0.16010000  0.86770000  0.74080000  1
  H  H44  1  0.16610000  0.63420000  0.13630000  1
  H  H45  1  0.16620000  0.98320000  0.68700000  1
  H  H46  1  0.16840000  0.93230000  0.44640000  1
  H  H47  1  0.17000000  0.25000000  0.66890000  1
  H  H48  1  0.17050000  0.85470000  0.29810000  1
  H  H49  1  0.17820000  0.16580000  0.89200000  1
  H  H50  1  0.18080000  0.72870000  0.65580000  1
  H  H51  1  0.18950000  0.37130000  0.71260000  1
  H  H52  1  0.20100000  0.29270000  0.87660000  1
  H  H53  1  0.20260000  0.56630000  0.70510000  1
  H  H54  1  0.20450000  0.01460000  0.99320000  1
  H  H55  1  0.20930000  0.00820000  0.82010000  1
  H  H56  1  0.21340000  0.65540000  0.89360000  1
  H  H57  1  0.21410000  0.67440000  0.33370000  1
  H  H58  1  0.23020000  0.79940000  0.13560000  1
  H  H59  1  0.23870000  0.21330000  0.13390000  1
  H  H60  1  0.25630000  0.46730000  0.68030000  1
  H  H61  1  0.25940000  0.26710000  0.26290000  1
  H  H62  1  0.26180000  0.90890000  0.79490000  1
  H  H63  1  0.26190000  0.48530000  0.51760000  1
  H  H64  1  0.26270000  0.81630000  0.60370000  1
  H  H65  1  0.26480000  0.17790000  0.61810000  1
  H  H66  1  0.27640000  0.10330000  0.78800000  1
  H  H67  1  0.28690000  0.74440000  0.83950000  1
  H  H68  1  0.29470000  0.22210000  0.82480000  1
  H  H69  1  0.29570000  0.73130000  0.35440000  1
  H  H70  1  0.29610000  0.31810000  0.60370000  1
  H  H71  1  0.30280000  0.25060000  0.04400000  1
  H  H72  1  0.30310000  0.49020000  0.80970000  1
  H  H73  1  0.30410000  0.60480000  0.75580000  1
  H  H74  1  0.32050000  0.84050000  0.15930000  1
  H  H75  1  0.33950000  0.43760000  0.94090000  1
  H  H76  1  0.34350000  0.40140000  0.76280000  1
  H  H77  1  0.34370000  0.35900000  0.27270000  1
  H  H78  1  0.35380000  0.53370000  0.53970000  1
  H  H79  1  0.35960000  0.08470000  0.61700000  1
  H  H80  1  0.36430000  0.67320000  0.19200000  1
  H  H81  1  0.36480000  0.88890000  0.61670000  1
  H  H82  1  0.37030000  0.89910000  0.35250000  1
  H  H83  1  0.37040000  0.60300000  0.03990000  1
  H  H84  1  0.38260000  0.09400000  0.87190000  1
  H  H85  1  0.39000000  0.06410000  0.48690000  1
  H  H86  1  0.39230000  0.77640000  0.57150000  1
  H  H87  1  0.39380000  0.62130000  0.11950000  1
  H  H88  1  0.39560000  0.89700000  0.26830000  1
  H  H89  1  0.41780000  0.47750000  0.59370000  1
  H  H90  1  0.42140000  0.75780000  0.36100000  1
  H  H91  1  0.42330000  0.60450000  0.85900000  1
  H  H92  1  0.44740000  0.25980000  0.14060000  1
  H  H93  1  0.44890000  0.79370000  0.13450000  1
  H  H94  1  0.45510000  0.36410000  0.30540000  1
  H  H95  1  0.45650000  0.99450000  0.70660000  1
  H  H96  1  0.45990000  0.69080000  0.22770000  1
  H  H97  1  0.47200000  0.58960000  0.57750000  1
  H  H98  1  0.47350000  0.69480000  0.44320000  1
  H  H99  1  0.47520000  0.90460000  0.54610000  1
  H  H100  1  0.48300000  0.15660000  0.08860000  1
  H  H101  1  0.49120000  0.82840000  0.00810000  1
  H  H102  1  0.49340000  0.56560000  0.19390000  1
  H  H103  1  0.49460000  0.77350000  0.78650000  1
  H  H104  1  0.49510000  0.06530000  0.60380000  1
  H  H105  1  0.49780000  0.40340000  0.51100000  1
  H  H106  1  0.49900000  0.05380000  0.80830000  1
  H  H107  1  0.49960000  0.54980000  0.79570000  1
  H  H108  1  0.50040000  0.45020000  0.20430000  1
  H  H109  1  0.50100000  0.94620000  0.19170000  1
  H  H110  1  0.50220000  0.59660000  0.48900000  1
  H  H111  1  0.50490000  0.93470000  0.39620000  1
  H  H112  1  0.50540000  0.22650000  0.21350000  1
  H  H113  1  0.50660000  0.43440000  0.80610000  1
  H  H114  1  0.50880000  0.17160000  0.99190000  1
  H  H115  1  0.51700000  0.84340000  0.91140000  1
  H  H116  1  0.52480000  0.09540000  0.45390000  1
  H  H117  1  0.52650000  0.30520000  0.55680000  1
  H  H118  1  0.52800000  0.41040000  0.42250000  1
  H  H119  1  0.54010000  0.30920000  0.77230000  1
  H  H120  1  0.54350000  0.00550000  0.29340000  1
  H  H121  1  0.54490000  0.63590000  0.69460000  1
  H  H122  1  0.55110000  0.20630000  0.86550000  1
  H  H123  1  0.55260000  0.74020000  0.85940000  1
  H  H124  1  0.57670000  0.39550000  0.14100000  1
  H  H125  1  0.57860000  0.24220000  0.63900000  1
  H  H126  1  0.58220000  0.52250000  0.40630000  1
  H  H127  1  0.60440000  0.10300000  0.73170000  1
  H  H128  1  0.60620000  0.37870000  0.88050000  1
  H  H129  1  0.60770000  0.22360000  0.42850000  1
  H  H130  1  0.61000000  0.93590000  0.51310000  1
  H  H131  1  0.61740000  0.90600000  0.12810000  1
  H  H132  1  0.62960000  0.39700000  0.96010000  1
  H  H133  1  0.62970000  0.10090000  0.64750000  1
  H  H134  1  0.63520000  0.11110000  0.38330000  1
  H  H135  1  0.63570000  0.32680000  0.80800000  1
  H  H136  1  0.64040000  0.91530000  0.38300000  1
  H  H137  1  0.64620000  0.46630000  0.46030000  1
  H  H138  1  0.65630000  0.64100000  0.72730000  1
  H  H139  1  0.65650000  0.59860000  0.23720000  1
  H  H140  1  0.66050000  0.56240000  0.05910000  1
  H  H141  1  0.67950000  0.15950000  0.84070000  1
  H  H142  1  0.69590000  0.39520000  0.24420000  1
  H  H143  1  0.69690000  0.50980000  0.19030000  1
  H  H144  1  0.69720000  0.74940000  0.95600000  1
  H  H145  1  0.70390000  0.68190000  0.39630000  1
  H  H146  1  0.70430000  0.26870000  0.64560000  1
  H  H147  1  0.70530000  0.77790000  0.17520000  1
  H  H148  1  0.71310000  0.25560000  0.16050000  1
  H  H149  1  0.72360000  0.89670000  0.21200000  1
  H  H150  1  0.73520000  0.82210000  0.38190000  1
  H  H151  1  0.73730000  0.18370000  0.39630000  1
  H  H152  1  0.73810000  0.51470000  0.48240000  1
  H  H153  1  0.73820000  0.09110000  0.20510000  1
  H  H154  1  0.74060000  0.73290000  0.73710000  1
  H  H155  1  0.74370000  0.53270000  0.31970000  1
  H  H156  1  0.76130000  0.78670000  0.86610000  1
  H  H157  1  0.76980000  0.20060000  0.86440000  1
  H  H158  1  0.78590000  0.32560000  0.66630000  1
  H  H159  1  0.78660000  0.34460000  0.10640000  1
  H  H160  1  0.79070000  0.99180000  0.17990000  1
  H  H161  1  0.79550000  0.98540000  0.00680000  1
  H  H162  1  0.79740000  0.43370000  0.29490000  1
  H  H163  1  0.79900000  0.70730000  0.12340000  1
  H  H164  1  0.81050000  0.62870000  0.28740000  1
  H  H165  1  0.81920000  0.27130000  0.34420000  1
  H  H166  1  0.82180000  0.83420000  0.10800000  1
  H  H167  1  0.82950000  0.14530000  0.70190000  1
  H  H168  1  0.83000000  0.75000000  0.33110000  1
  H  H169  1  0.83160000  0.06770000  0.55360000  1
  H  H170  1  0.83380000  0.01680000  0.31300000  1
  H  H171  1  0.83390000  0.36580000  0.86370000  1
  H  H172  1  0.83990000  0.13230000  0.25920000  1
  H  H173  1  0.84890000  0.91660000  0.44490000  1
  H  H174  1  0.85190000  0.78200000  0.69050000  1
  H  H175  1  0.85510000  0.10510000  0.62940000  1
  H  H176  1  0.85780000  0.37970000  0.77770000  1
  H  H177  1  0.86690000  0.92770000  0.26320000  1
  H  H178  1  0.87080000  0.50880000  0.01120000  1
  H  H179  1  0.88630000  0.04290000  0.02490000  1
  H  H180  1  0.88750000  0.27660000  0.08140000  1
  H  H181  1  0.88860000  0.61190000  0.12340000  1
  H  H182  1  0.89550000  0.41580000  0.11990000  1
  H  H183  1  0.89650000  0.72820000  0.82360000  1
  H  H184  1  0.89770000  0.23030000  0.86270000  1
  H  H185  1  0.91390000  0.10300000  0.38780000  1
  H  H186  1  0.91830000  0.27880000  0.64420000  1
  H  H187  1  0.92400000  0.16570000  0.73150000  1
  H  H188  1  0.92820000  0.59200000  0.36910000  1
  H  H189  1  0.93920000  0.99720000  0.08670000  1
  H  H190  1  0.95420000  0.43640000  0.70390000  1
  H  H191  1  0.96020000  0.17190000  0.96190000  1
  H  H192  1  0.96490000  0.05040000  0.67560000  1
  H  H193  1  0.97720000  0.90520000  0.99110000  1
  H  H194  1  0.97830000  0.39980000  0.90430000  1
  H  H195  1  0.98540000  0.93640000  0.67630000  1
  H  H196  1  0.98550000  0.89400000  0.90840000  1
  H  H197  1  0.99040000  0.52050000  0.20830000  1
  H  H198  1  0.99220000  0.45090000  0.03040000  1
  H  H199  1  0.99350000  0.78670000  0.67880000  1
  C  C200  1  0.00530000  0.86900000  0.97630000  1
  C  C201  1  0.00630000  0.03310000  0.65080000  1
  C  C202  1  0.01000000  0.86230000  0.92660000  1
  C  C203  1  0.01780000  0.96490000  0.65150000  1
  C  C204  1  0.01930000  0.48120000  0.04160000  1
  C  C205  1  0.02640000  0.38490000  0.64270000  1
  C  C206  1  0.03560000  0.56020000  0.08240000  1
  C  C207  1  0.03660000  0.14710000  0.61600000  1
  C  C208  1  0.03940000  0.59730000  0.31650000  1
  C  C209  1  0.04200000  0.82270000  0.00500000  1
  C  C210  1  0.04430000  0.22590000  0.29090000  1
  C  C211  1  0.04630000  0.35350000  0.77490000  1
  C  C212  1  0.05030000  0.80940000  0.90420000  1
  C  C213  1  0.05490000  0.07620000  0.61430000  1
  C  C214  1  0.05600000  0.80000000  0.85080000  1
  C  C215  1  0.05720000  0.68570000  0.35080000  1
  C  C216  1  0.05930000  0.47630000  0.76900000  1
  C  C217  1  0.06790000  0.59880000  0.76870000  1
  C  C218  1  0.07810000  0.94210000  0.61450000  1
  C  C219  1  0.07840000  0.11690000  0.85350000  1
  C  C220  1  0.08170000  0.76820000  0.98220000  1
  C  C221  1  0.08620000  0.76040000  0.93310000  1
  C  C222  1  0.09130000  0.41480000  0.75400000  1
  C  C223  1  0.09210000  0.50170000  0.02000000  1
  C  C224  1  0.09550000  0.02680000  0.92190000  1
  C  C225  1  0.09680000  0.48540000  0.88260000  1
  C  C226  1  0.09690000  0.25180000  0.20940000  1
  C  C227  1  0.09840000  0.82190000  0.23600000  1
  C  C228  1  0.10130000  0.53210000  0.75010000  1
  C  C229  1  0.11160000  0.09130000  0.89570000  1
  C  C230  1  0.11360000  0.78660000  0.16350000  1
  C  C231  1  0.11750000  0.05460000  0.57870000  1
  C  C232  1  0.12100000  0.71500000  0.01210000  1
  C  C233  1  0.12250000  0.22730000  0.28470000  1
  C  C234  1  0.12710000  0.99870000  0.95820000  1
  C  C235  1  0.12880000  0.98630000  0.57950000  1
  C  C236  1  0.13250000  0.54540000  0.87030000  1
  C  C237  1  0.13610000  0.42780000  0.86810000  1
  C  C238  1  0.15370000  0.10790000  0.71350000  1
  C  C239  1  0.16480000  0.12410000  0.90880000  1
  C  C240  1  0.16590000  0.41170000  0.72190000  1
  C  C241  1  0.16750000  0.65000000  0.28210000  1
  C  C242  1  0.17440000  0.20440000  0.67640000  1
  C  C243  1  0.17470000  0.52840000  0.71740000  1
  C  C244  1  0.17490000  0.84360000  0.71310000  1
  C  C245  1  0.18010000  0.03410000  0.96920000  1
  C  C246  1  0.18110000  0.63540000  0.23300000  1
  C  C247  1  0.18440000  0.80250000  0.16210000  1
  C  C248  1  0.18690000  0.76840000  0.66666667  1
  C  C249  1  0.19270000  0.90150000  0.37520000  1
  C  C250  1  0.19880000  0.95250000  0.53980000  1
  C  C251  1  0.19910000  0.09760000  0.94620000  1
  C  C252  1  0.20460000  0.36470000  0.54810000  1
  C  C253  1  0.20650000  0.46960000  0.70310000  1
  C  C254  1  0.20690000  0.92000000  0.41790000  1
  C  C255  1  0.20960000  0.54600000  0.84340000  1
  C  C256  1  0.21430000  0.43050000  0.84030000  1
  C  C257  1  0.21880000  0.98430000  0.66890000  1
  C  C258  1  0.21980000  0.62780000  0.12270000  1
  C  C259  1  0.22020000  0.85930000  0.27540000  1
  C  C260  1  0.22470000  0.66850000  0.29960000  1
  C  C261  1  0.22650000  0.16520000  0.64810000  1
  C  C262  1  0.23200000  0.81640000  0.63720000  1
  C  C263  1  0.23560000  0.84600000  0.22580000  1
  C  C264  1  0.23600000  0.23890000  0.20220000  1
  C  C265  1  0.24030000  0.65600000  0.85930000  1
  C  C266  1  0.24050000  0.30580000  0.84730000  1
  C  C267  1  0.25070000  0.48910000  0.82820000  1
  C  C268  1  0.25530000  0.04270000  0.65660000  1
  C  C269  1  0.25640000  0.64450000  0.20030000  1
  C  C270  1  0.25880000  0.00580000  0.79710000  1
  C  C271  1  0.26090000  0.92720000  0.65390000  1
  C  C272  1  0.26110000  0.13380000  0.95940000  1
  C  C273  1  0.26850000  0.39770000  0.55870000  1
  C  C274  1  0.26930000  0.22670000  0.15200000  1
  C  C275  1  0.28060000  0.88000000  0.29100000  1
  C  C276  1  0.28100000  0.70440000  0.82910000  1
  C  C277  1  0.28180000  0.25900000  0.22928000  1
  C  C278  1  0.28710000  0.46160000  0.53980000  1
  C  C279  1  0.29030000  0.62890000  0.78350000  1
  C  C280  1  0.29040000  0.94630000  0.78200000  1
  C  C281  1  0.29230000  0.26790000  0.81870000  1
  C  C282  1  0.29860000  0.67860000  0.26640000  1
  C  C283  1  0.29920000  0.06260000  0.77870000  1
  C  C284  1  0.30690000  0.36200000  0.59200000  1
  C  C285  1  0.31050000  0.85030000  0.19250000  1
  C  C286  1  0.31520000  0.66650000  0.21500000  1
  C  C287  1  0.31650000  0.90340000  0.36650000  1
  C  C288  1  0.31960000  0.36540000  0.78420000  1
  C  C289  1  0.32360000  0.56120000  0.94710000  1
  C  C290  1  0.33190000  0.61070000  0.06980000  1
  C  C291  1  0.33490000  0.04500000  0.62700000  1
  C  C292  1  0.33760000  0.92800000  0.62650000  1
  C  C293  1  0.34170000  0.49050000  0.55300000  1
  C  C294  1  0.34360000  0.72630000  0.32990000  1
  C  C295  1  0.34550000  0.62140000  0.11380000  1
  C  C296  1  0.34850000  0.23450000  0.12893000  1
  C  C297  1  0.34860000  0.22240000  0.04300000  1
  C  C298  1  0.35540000  0.88410000  0.25770000  1
  C  C299  1  0.36100000  0.26680000  0.20621000  1
  C  C300  1  0.36140000  0.39190000  0.60770000  1
  C  C301  1  0.36500000  0.94030000  0.74740000  1
  C  C302  1  0.36970000  0.86890000  0.20850000  1
  C  C303  1  0.37300000  0.45950000  0.91210000  1
  C  C304  1  0.37440000  0.52720000  0.90480000  1
  C  C305  1  0.37440000  0.98590000  0.61360000  1
  C  C306  1  0.37620000  0.05790000  0.74520000  1
  C  C307  1  0.37960000  0.45700000  0.58580000  1
  C  C308  1  0.38960000  0.33270000  0.26510000  1
  C  C309  1  0.39440000  0.25460000  0.15600000  1
  C  C310  1  0.39810000  0.87660000  0.72810000  1
  C  C311  1  0.39860000  0.35740000  0.64570000  1
  C  C312  1  0.40690000  0.80730000  0.47500000  1
  C  C313  1  0.40690000  0.99730000  0.72950000  1
  C  C314  1  0.41300000  0.74180000  0.33340000  1
  C  C315  1  0.41360000  0.68180000  0.63830000  1
  C  C316  1  0.41380000  0.73970000  0.55490000  1
  C  C317  1  0.42150000  0.11880000  0.72480000  1
  C  C318  1  0.42280000  0.55880000  0.86230000  1
  C  C319  1  0.42610000  0.42380000  0.87300000  1
  C  C320  1  0.42780000  0.74480000  0.50300000  1
  C  C321  1  0.43000000  0.04200000  0.46430000  1
  C  C322  1  0.43000000  0.68290000  0.58340000  1
  C  C323  1  0.43130000  0.11200000  0.86230000  1
  C  C324  1  0.43400000  0.35070000  0.88030000  1
  C  C325  1  0.43470000  0.70440000  0.25940000  1
  C  C326  1  0.44910000  0.17390000  0.06850000  1
  C  C327  1  0.45130000  0.33510000  0.28330000  1
  C  C328  1  0.46020000  0.18100000  0.01670000  1
  C  C329  1  0.46180000  0.69180000  0.47840000  1
  C  C330  1  0.46190000  0.62890000  0.55890000  1
  C  C331  1  0.46930000  0.52670000  0.82520000  1
  C  C332  1  0.47240000  0.45730000  0.83120000  1
  C  C333  1  0.47710000  0.82570000  0.14090000  1
  C  C334  1  0.47930000  0.63290000  0.50580000  1
  C  C335  1  0.47940000  0.25950000  0.23310000  1
  C  C336  1  0.49260000  0.97070000  0.41470000  1
  C  C337  1  0.49500000  0.08910000  0.82690000  1
  C  C338  1  0.49580000  0.94080000  0.55350000  1
  C  C339  1  0.50420000  0.05920000  0.44650000  1
  C  C340  1  0.50500000  0.91090000  0.17310000  1
  C  C341  1  0.50740000  0.02930000  0.58530000  1
  C  C342  1  0.52060000  0.74050000  0.76690000  1
  C  C343  1  0.52070000  0.36710000  0.49420000  1
  C  C344  1  0.52290000  0.17430000  0.85910000  1
  C  C345  1  0.52760000  0.54270000  0.16880000  1
  C  C346  1  0.53070000  0.47330000  0.17480000  1
  C  C347  1  0.53810000  0.37110000  0.44110000  1
  C  C348  1  0.53820000  0.30820000  0.52160000  1
  C  C349  1  0.53980000  0.81900000  0.98330000  1
  C  C350  1  0.54870000  0.66490000  0.71670000  1
  C  C351  1  0.55090000  0.82610000  0.93150000  1
  C  C352  1  0.56530000  0.29560000  0.74060000  1
  C  C353  1  0.56600000  0.64930000  0.11970000  1
  C  C354  1  0.56870000  0.88800000  0.13770000  1
  C  C355  1  0.57000000  0.31710000  0.41660000  1
  C  C356  1  0.57000000  0.95800000  0.53570000  1
  C  C357  1  0.57220000  0.25520000  0.49700000  1
  C  C358  1  0.57390000  0.57620000  0.12700000  1
  C  C359  1  0.57720000  0.44120000  0.13770000  1
  C  C360  1  0.57850000  0.88120000  0.27520000  1
  C  C361  1  0.58620000  0.26030000  0.44510000  1
  C  C362  1  0.58640000  0.31820000  0.36170000  1
  C  C363  1  0.58700000  0.25820000  0.66666667  1
  C  C364  1  0.59310000  0.00270000  0.27050000  1
  C  C365  1  0.59310000  0.19270000  0.52500000  1
  C  C366  1  0.60140000  0.64260000  0.35430000  1
  C  C367  1  0.60190000  0.12340000  0.27190000  1
  C  C368  1  0.60560000  0.74540000  0.84400000  1
  C  C369  1  0.61040000  0.66730000  0.73490000  1
  C  C370  1  0.62040000  0.54300000  0.41420000  1
  C  C371  1  0.62380000  0.94210000  0.25480000  1
  C  C372  1  0.62560000  0.01410000  0.38640000  1
  C  C373  1  0.62560000  0.47280000  0.09520000  1
  C  C374  1  0.62700000  0.54050000  0.08790000  1
  C  C375  1  0.63030000  0.13110000  0.79150000  1
  C  C376  1  0.63500000  0.05970000  0.25260000  1
  C  C377  1  0.63860000  0.60810000  0.39230000  1
  C  C378  1  0.63900000  0.73320000  0.79379000  1
  C  C379  1  0.64460000  0.11590000  0.74230000  1
  C  C380  1  0.65140000  0.77760000  0.95700000  1
  C  C381  1  0.65150000  0.76550000  0.87107000  1
  C  C382  1  0.65450000  0.37860000  0.88620000  1
  C  C383  1  0.65640000  0.27370000  0.67010000  1
  C  C384  1  0.65830000  0.50950000  0.44700000  1
  C  C385  1  0.66240000  0.07200000  0.37350000  1
  C  C386  1  0.66510000  0.95500000  0.37300000  1
  C  C387  1  0.66810000  0.38930000  0.93020000  1
  C  C388  1  0.67640000  0.43880000  0.05290000  1
  C  C389  1  0.68040000  0.63460000  0.21580000  1
  C  C390  1  0.68350000  0.09660000  0.63350000  1
  C  C391  1  0.68480000  0.33350000  0.78500000  1
  C  C392  1  0.68950000  0.14970000  0.80750000  1
  C  C393  1  0.69310000  0.63800000  0.40800000  1
  C  C394  1  0.70080000  0.93740000  0.22130000  1
  C  C395  1  0.70140000  0.32140000  0.73360000  1
  C  C396  1  0.70770000  0.73210000  0.18130000  1
  C  C397  1  0.70960000  0.05370000  0.21800000  1
  C  C398  1  0.70970000  0.37110000  0.21650000  1
  C  C399  1  0.71290000  0.53840000  0.46020000  1
  C  C400  1  0.71820000  0.74100000  0.77072000  1
  C  C401  1  0.71900000  0.29560000  0.17090000  1
  C  C402  1  0.71940000  0.12000000  0.70900000  1
  C  C403  1  0.73070000  0.77330000  0.84800000  1
  C  C404  1  0.73150000  0.60230000  0.44130000  1
  C  C405  1  0.73890000  0.86620000  0.04060000  1
  C  C406  1  0.73910000  0.07280000  0.34610000  1
  C  C407  1  0.74120000  0.99420000  0.20290000  1
  C  C408  1  0.74360000  0.35550000  0.79970000  1
  C  C409  1  0.74470000  0.95730000  0.34340000  1
  C  C410  1  0.74930000  0.51090000  0.17180000  1
  C  C411  1  0.75950000  0.69420000  0.15270000  1
  C  C412  1  0.75970000  0.34400000  0.14070000  1
  C  C413  1  0.76400000  0.76110000  0.79780000  1
  C  C414  1  0.76440000  0.15400000  0.77420000  1
  C  C415  1  0.76800000  0.18360000  0.36280000  1
  C  C416  1  0.77350000  0.83480000  0.35190000  1
  C  C417  1  0.77530000  0.33150000  0.70040000  1
  C  C418  1  0.77980000  0.14070000  0.72460000  1
  C  C419  1  0.78020000  0.37220000  0.87730000  1
  C  C420  1  0.78120000  0.01570000  0.33110000  1
  C  C421  1  0.78570000  0.56950000  0.15970000  1
  C  C422  1  0.79040000  0.45400000  0.15660000  1
  C  C423  1  0.79310000  0.08000000  0.58210000  1
  C  C424  1  0.79350000  0.53040000  0.29690000  1
  C  C425  1  0.79540000  0.63530000  0.45190000  1
  C  C426  1  0.80090000  0.90240000  0.05380000  1
  C  C427  1  0.80120000  0.04750000  0.46020000  1
  C  C428  1  0.80730000  0.09850000  0.62480000  1
  C  C429  1  0.81310000  0.23160000  0.33340000  1
  C  C430  1  0.81560000  0.19750000  0.83790000  1
  C  C431  1  0.81890000  0.36460000  0.76700000  1
  C  C432  1  0.81990000  0.96590000  0.03080000  1
  C  C433  1  0.82510000  0.15640000  0.28690000  1
  C  C434  1  0.82530000  0.47160000  0.28260000  1
  C  C435  1  0.82560000  0.79560000  0.32360000  1
  C  C436  1  0.83250000  0.35000000  0.71790000  1
  C  C437  1  0.83410000  0.58830000  0.27810000  1
  C  C438  1  0.83520000  0.87590000  0.09120000  1
  C  C439  1  0.84630000  0.89210000  0.28650000  1
  C  C440  1  0.86390000  0.57220000  0.13190000  1
  C  C441  1  0.86750000  0.45460000  0.12970000  1
  C  C442  1  0.87120000  0.01370000  0.42050000  1
  C  C443  1  0.87290000  0.00130000  0.04180000  1
  C  C444  1  0.87750000  0.77270000  0.71530000  1
  C  C445  1  0.87900000  0.28500000  0.98790000  1
  C  C446  1  0.88250000  0.94540000  0.42130000  1
  C  C447  1  0.88640000  0.21340000  0.83650000  1
  C  C448  1  0.88840000  0.90870000  0.10430000  1
  C  C449  1  0.89870000  0.46790000  0.24990000  1
  C  C450  1  0.90160000  0.17810000  0.76400000  1
  C  C451  1  0.90310000  0.74820000  0.79060000  1
  C  C452  1  0.90320000  0.51460000  0.11740000  1
  C  C453  1  0.90450000  0.97320000  0.07810000  1
  C  C454  1  0.90790000  0.49830000  0.98000000  1
  C  C455  1  0.90870000  0.58520000  0.24600000  1
  C  C456  1  0.91380000  0.23960000  0.06690000  1
  C  C457  1  0.91830000  0.23180000  0.01780000  1
  C  C458  1  0.92160000  0.88310000  0.14650000  1
  C  C459  1  0.92190000  0.05790000  0.38550000  1
  C  C460  1  0.93210000  0.40120000  0.23130000  1
  C  C461  1  0.94070000  0.52370000  0.23100000  1
  C  C462  1  0.94280000  0.31430000  0.64920000  1
  C  C463  1  0.94400000  0.20000000  0.14920000  1
  C  C464  1  0.94510000  0.92380000  0.38570000  1
  C  C465  1  0.94970000  0.19060000  0.09580000  1
  C  C466  1  0.95370000  0.64650000  0.22510000  1
  C  C467  1  0.95570000  0.77410000  0.70910000  1
  C  C468  1  0.95800000  0.17730000  0.99500000  1
  C  C469  1  0.96060000  0.40270000  0.68350000  1
  C  C470  1  0.96340000  0.85290000  0.38400000  1
  C  C471  1  0.96440000  0.43980000  0.91760000  1
  C  C472  1  0.97360000  0.61510000  0.35730000  1
  C  C473  1  0.98070000  0.51880000  0.95840000  1
  C  C474  1  0.98220000  0.03510000  0.34850000  1
  C  C475  1  0.99000000  0.13770000  0.07340000  1
  C  C476  1  0.99370000  0.96690000  0.34920000  1
  C  C477  1  0.99470000  0.13100000  0.02370000  1
  N  N478  1  0.01400000  0.48310000  0.91120000  1
  N  N479  1  0.01520000  0.32960000  0.62300000  1
  N  N480  1  0.02820000  0.24170000  0.24180000  1
  N  N481  1  0.06090000  0.79800000  0.20751000  1
  N  N482  1  0.09080000  0.64380000  0.31600000  1
  N  N483  1  0.10490000  0.54590000  0.05680000  1
  N  N484  1  0.12800000  0.16940000  0.71776000  1
  N  N485  1  0.15160000  0.78530000  0.71420000  1
  N  N486  1  0.15480000  0.23170000  0.22700000  1
  N  N487  1  0.17520000  0.82470000  0.20880000  1
  N  N488  1  0.21350000  0.10280000  0.67145000  1
  N  N489  1  0.22230000  0.86540000  0.66788000  1
  N  N490  1  0.24640000  0.60670000  0.82886000  1
  N  N491  1  0.25340000  0.61320000  0.07610000  1
  N  N492  1  0.25660000  0.37070000  0.82470000  1
  N  N493  1  0.26670000  0.89550000  0.34081000  1
  N  N494  1  0.27160000  0.63250000  0.14905000  1
  N  N495  1  0.28410000  0.91740000  0.41240000  1
  N  N496  1  0.31260000  0.68860000  0.78140000  1
  N  N497  1  0.34340000  0.30360000  0.77817000  1
  N  N498  1  0.35530000  0.70200000  0.28450000  1
  N  N499  1  0.37670000  0.20260000  0.08530000  1
  N  N500  1  0.39260000  0.20030000  0.00320000  1
  N  N501  1  0.40730000  0.28530000  0.23420000  1
  N  N502  1  0.42260000  0.98590000  0.44350000  1
  N  N503  1  0.44730000  0.86870000  0.17490000  1
  N  N504  1  0.44800000  0.16550000  0.88230000  1
  N  N505  1  0.45620000  0.98660000  0.58472000  1
  N  N506  1  0.46830000  0.73000000  0.28950000  1
  N  N507  1  0.49180000  0.71280000  0.73650000  1
  N  N508  1  0.50820000  0.28720000  0.26350000  1
  N  N509  1  0.53170000  0.27000000  0.71050000  1
  N  N510  1  0.54380000  0.01340000  0.41528000  1
  N  N511  1  0.55200000  0.83450000  0.11770000  1
  N  N512  1  0.55270000  0.13130000  0.82510000  1
  N  N513  1  0.57740000  0.01410000  0.55650000  1
  N  N514  1  0.59270000  0.71470000  0.76580000  1
  N  N515  1  0.60740000  0.79970000  0.99680000  1
  N  N516  1  0.62330000  0.79740000  0.91470000  1
  N  N517  1  0.64470000  0.29800000  0.71550000  1
  N  N518  1  0.65660000  0.69640000  0.22183000  1
  N  N519  1  0.68740000  0.31140000  0.21860000  1
  N  N520  1  0.71590000  0.08260000  0.58760000  1
  N  N521  1  0.72840000  0.36750000  0.85095000  1
  N  N522  1  0.73330000  0.10450000  0.65919000  1
  N  N523  1  0.74340000  0.62930000  0.17530000  1
  N  N524  1  0.74660000  0.38680000  0.92390000  1
  N  N525  1  0.75360000  0.39330000  0.17114000  1
  N  N526  1  0.77770000  0.13460000  0.33212000  1
  N  N527  1  0.78650000  0.89720000  0.32855000  1
  N  N528  1  0.82480000  0.17530000  0.79120000  1
  N  N529  1  0.84520000  0.76830000  0.77300000  1
  N  N530  1  0.84840000  0.21470000  0.28580000  1
  N  N531  1  0.87200000  0.83060000  0.28224000  1
  N  N532  1  0.89510000  0.45410000  0.94320000  1
  N  N533  1  0.90920000  0.35620000  0.68400000  1
  N  N534  1  0.93910000  0.20200000  0.79249000  1
  N  N535  1  0.97180000  0.75830000  0.75820000  1
  N  N536  1  0.98480000  0.67040000  0.37700000  1
  N  N537  1  0.98600000  0.51690000  0.08880000  1
  O  O538  1  0.00240000  0.60320000  0.79820000  1
  O  O539  1  0.01920000  0.64210000  0.19550000  1
  O  O540  1  0.02590000  0.83220000  0.35630000  1
  O  O541  1  0.04410000  0.84610000  0.82050000  1
  O  O542  1  0.04770000  0.08210000  0.83426000  1
  O  O543  1  0.07280000  0.74050000  0.83934000  1
  O  O544  1  0.08290000  0.30160000  0.75808000  1
  O  O545  1  0.08680000  0.17900000  0.83944000  1
  O  O546  1  0.08740000  0.18460000  0.58310000  1
  O  O547  1  0.10680000  0.71400000  0.05740000  1
  O  O548  1  0.11310000  0.64549000  0.75201000  1
  O  O549  1  0.16450000  0.67220000  0.98543000  1
  O  O550  1  0.16550000  0.39840000  0.52290000  1
  O  O551  1  0.19060000  0.30530000  0.56840000  1
  O  O552  1  0.19310000  0.89110000  0.53420000  1
  O  O553  1  0.24970000  0.98790000  0.51440000  1
  O  O554  1  0.26550000  0.53520000  0.97770000  1
  O  O555  1  0.27380000  0.19040000  0.93460000  1
  O  O556  1  0.29420000  0.10590000  0.98940000  1
  O  O557  1  0.34270000  0.61730000  0.95270000  1
  O  O558  1  0.35450000  0.82830000  0.74682000  1
  O  O559  1  0.36690000  0.85160000  0.50412000  1
  O  O560  1  0.37440000  0.31800000  0.90970000  1
  O  O561  1  0.38350000  0.17290000  0.73916000  1
  O  O562  1  0.38920000  0.29580000  0.65843000  1
  O  O563  1  0.39450000  0.73640000  0.65678000  1
  O  O564  1  0.42020000  0.63040000  0.66560000  1
  O  O565  1  0.42490000  0.81840000  0.42940000  1
  O  O566  1  0.43290000  0.39080000  0.66697000  1
  O  O567  1  0.46250000  0.87290000  0.69900000  1
  O  O568  1  0.48960000  0.11470000  0.69726000  1
  O  O569  1  0.49470000  0.31920000  0.85924000  1
  O  O570  1  0.50530000  0.68080000  0.14076000  1
  O  O571  1  0.51040000  0.88530000  0.30274000  1
  O  O572  1  0.53750000  0.12710000  0.30100000  1
  O  O573  1  0.56710000  0.60920000  0.33303000  1
  O  O574  1  0.57510000  0.18160000  0.57060000  1
  O  O575  1  0.57980000  0.36960000  0.33440000  1
  O  O576  1  0.60550000  0.26360000  0.34322000  1
  O  O577  1  0.61080000  0.70420000  0.34157000  1
  O  O578  1  0.61650000  0.82710000  0.26084000  1
  O  O579  1  0.62560000  0.68200000  0.09030000  1
  O  O580  1  0.63310000  0.14840000  0.49588000  1
  O  O581  1  0.64550000  0.17170000  0.25318000  1
  O  O582  1  0.65730000  0.38270000  0.04730000  1
  O  O583  1  0.70580000  0.89410000  0.01060000  1
  O  O584  1  0.72620000  0.80960000  0.06540000  1
  O  O585  1  0.73450000  0.46480000  0.02230000  1
  O  O586  1  0.75030000  0.01210000  0.48560000  1
  O  O587  1  0.80690000  0.10890000  0.46580000  1
  O  O588  1  0.80940000  0.69470000  0.43160000  1
  O  O589  1  0.83450000  0.60160000  0.47710000  1
  O  O590  1  0.83550000  0.32780000  0.01457000  1
  O  O591  1  0.88690000  0.35451000  0.24799000  1
  O  O592  1  0.89320000  0.28600000  0.94260000  1
  O  O593  1  0.91260000  0.81540000  0.41690000  1
  O  O594  1  0.91320000  0.82100000  0.16056000  1
  O  O595  1  0.91710000  0.69840000  0.24192000  1
  O  O596  1  0.92720000  0.25950000  0.16066000  1
  O  O597  1  0.95230000  0.91790000  0.16574000  1
  O  O598  1  0.95590000  0.15390000  0.17950000  1
  O  O599  1  0.97410000  0.16780000  0.64370000  1
  O  O600  1  0.98080000  0.35790000  0.80450000  1
  O  O601  1  0.99760000  0.39680000  0.20180000  1
