# generated using pymatgen
data_Cd(CN)2
_symmetry_space_group_name_H-M   'P 1'
_cell_length_a   8.93640000
_cell_length_b   8.93640000
_cell_length_c   8.93640000
_cell_angle_alpha   60.00000000
_cell_angle_beta   60.00000000
_cell_angle_gamma   60.00000000
_symmetry_Int_Tables_number   1
_chemical_formula_structural   Cd(CN)2
_chemical_formula_sum   'Cd2 C4 N4'
_cell_volume   504.62969360
_cell_formula_units_Z   2
loop_
 _symmetry_equiv_pos_site_id
 _symmetry_equiv_pos_as_xyz
  1  'x, y, z'
loop_
 _atom_site_type_symbol
 _atom_site_label
 _atom_site_symmetry_multiplicity
 _atom_site_fract_x
 _atom_site_fract_y
 _atom_site_fract_z
 _atom_site_occupancy
  Cd  Cd0  1  0.37500000  0.37500000  0.87500000  1
  Cd  Cd1  1  0.62500000  0.62500000  0.12500000  1
  C  C2  1  0.08100000  0.47300000  0.97300000  1
  C  C3  1  0.47300000  0.08100000  0.97300000  1
  C  C4  1  0.52700000  0.52700000  0.41900000  1
  C  C5  1  0.52700000  0.52700000  0.02700000  1
  N  N6  1  0.47300000  0.47300000  0.97300000  1
  N  N7  1  0.47300000  0.47300000  0.58100000  1
  N  N8  1  0.52700000  0.91900000  0.02700000  1
  N  N9  1  0.91900000  0.52700000  0.02700000  1
