# generated using pymatgen
data_LaNi6Ag8H87C62S12(N6O13)2
_symmetry_space_group_name_H-M   'P 1'
_cell_length_a   24.36870000
_cell_length_b   24.36870000
_cell_length_c   47.32200000
_cell_angle_alpha   90.00000000
_cell_angle_beta   90.00000000
_cell_angle_gamma   90.00000000
_symmetry_Int_Tables_number   1
_chemical_formula_structural   LaNi6Ag8H87C62S12(N6O13)2
_chemical_formula_sum   'La8 Ni48 Ag64 H696 C496 S96 N96 O208'
_cell_volume   28101.39076521
_cell_formula_units_Z   8
loop_
 _symmetry_equiv_pos_site_id
 _symmetry_equiv_pos_as_xyz
  1  'x, y, z'
loop_
 _atom_site_type_symbol
 _atom_site_label
 _atom_site_symmetry_multiplicity
 _atom_site_fract_x
 _atom_site_fract_y
 _atom_site_fract_z
 _atom_site_occupancy
  La  La0  1  0.08148000  0.37847000  0.63724000  1
  La  La1  1  0.12153000  0.58148000  0.88724000  1
  La  La2  1  0.37847000  0.08148000  0.36276000  1
  La  La3  1  0.41852000  0.87847000  0.61276000  1
  La  La4  1  0.58148000  0.12153000  0.11276000  1
  La  La5  1  0.62153000  0.91852000  0.86276000  1
  La  La6  1  0.87847000  0.41852000  0.38724000  1
  La  La7  1  0.91852000  0.62153000  0.13724000  1
  Ni  Ni8  1  0.00407000  0.74293000  0.79525000  1
  Ni  Ni9  1  0.02693000  0.81556000  0.65471000  1
  Ni  Ni10  1  0.04422000  0.56512000  0.43659000  1
  Ni  Ni11  1  0.06512000  0.45578000  0.18659000  1
  Ni  Ni12  1  0.07376000  0.18774000  0.76773000  1
  Ni  Ni13  1  0.16095000  0.77355000  0.52076000  1
  Ni  Ni14  1  0.18444000  0.97307000  0.84529000  1
  Ni  Ni15  1  0.18774000  0.07376000  0.23227000  1
  Ni  Ni16  1  0.22645000  0.83905000  0.97924000  1
  Ni  Ni17  1  0.23553000  0.74759000  0.37710000  1
  Ni  Ni18  1  0.24293000  0.49593000  0.54525000  1
  Ni  Ni19  1  0.24759000  0.26447000  0.12710000  1
  Ni  Ni20  1  0.25241000  0.76447000  0.12290000  1
  Ni  Ni21  1  0.25707000  0.99593000  0.70475000  1
  Ni  Ni22  1  0.26447000  0.24759000  0.87290000  1
  Ni  Ni23  1  0.27355000  0.33905000  0.27076000  1
  Ni  Ni24  1  0.31226000  0.57376000  0.01773000  1
  Ni  Ni25  1  0.31556000  0.47307000  0.40471000  1
  Ni  Ni26  1  0.33905000  0.27355000  0.72924000  1
  Ni  Ni27  1  0.42624000  0.68774000  0.48227000  1
  Ni  Ni28  1  0.43488000  0.95578000  0.06341000  1
  Ni  Ni29  1  0.45578000  0.06512000  0.81341000  1
  Ni  Ni30  1  0.47307000  0.31556000  0.59529000  1
  Ni  Ni31  1  0.49593000  0.24293000  0.45475000  1
  Ni  Ni32  1  0.50407000  0.75707000  0.95475000  1
  Ni  Ni33  1  0.52693000  0.68444000  0.09529000  1
  Ni  Ni34  1  0.54422000  0.93488000  0.31341000  1
  Ni  Ni35  1  0.56512000  0.04422000  0.56341000  1
  Ni  Ni36  1  0.57376000  0.31226000  0.98227000  1
  Ni  Ni37  1  0.66095000  0.72645000  0.22924000  1
  Ni  Ni38  1  0.68444000  0.52693000  0.90471000  1
  Ni  Ni39  1  0.68774000  0.42624000  0.51773000  1
  Ni  Ni40  1  0.72645000  0.66095000  0.77076000  1
  Ni  Ni41  1  0.73553000  0.75241000  0.37290000  1
  Ni  Ni42  1  0.74293000  0.00407000  0.20475000  1
  Ni  Ni43  1  0.74759000  0.23553000  0.62290000  1
  Ni  Ni44  1  0.75241000  0.73553000  0.62710000  1
  Ni  Ni45  1  0.75707000  0.50407000  0.04525000  1
  Ni  Ni46  1  0.76447000  0.25241000  0.87710000  1
  Ni  Ni47  1  0.77355000  0.16095000  0.47924000  1
  Ni  Ni48  1  0.81226000  0.92624000  0.73227000  1
  Ni  Ni49  1  0.81556000  0.02693000  0.34529000  1
  Ni  Ni50  1  0.83905000  0.22645000  0.02076000  1
  Ni  Ni51  1  0.92624000  0.81226000  0.26773000  1
  Ni  Ni52  1  0.93488000  0.54422000  0.68659000  1
  Ni  Ni53  1  0.95578000  0.43488000  0.93659000  1
  Ni  Ni54  1  0.97307000  0.18444000  0.15471000  1
  Ni  Ni55  1  0.99593000  0.25707000  0.29525000  1
  Ag  Ag56  1  0.00353000  0.31087000  0.21287000  1
  Ag  Ag57  1  0.05688000  0.17482000  0.22745000  1
  Ag  Ag58  1  0.09285000  0.29808000  0.15645000  1
  Ag  Ag59  1  0.10745000  0.35251000  0.24987000  1
  Ag  Ag60  1  0.12970000  0.70674000  0.44115000  1
  Ag  Ag61  1  0.13970000  0.16030000  0.16268000  1
  Ag  Ag62  1  0.14749000  0.60745000  0.49987000  1
  Ag  Ag63  1  0.15584000  0.22204000  0.26866000  1
  Ag  Ag64  1  0.16030000  0.13970000  0.83732000  1
  Ag  Ag65  1  0.17482000  0.05688000  0.77255000  1
  Ag  Ag66  1  0.18913000  0.50353000  0.46287000  1
  Ag  Ag67  1  0.20192000  0.59285000  0.40645000  1
  Ag  Ag68  1  0.20674000  0.37030000  0.19115000  1
  Ag  Ag69  1  0.22204000  0.15584000  0.73134000  1
  Ag  Ag70  1  0.23242000  0.23702000  0.78945000  1
  Ag  Ag71  1  0.23702000  0.23242000  0.21055000  1
  Ag  Ag72  1  0.26298000  0.73242000  0.03945000  1
  Ag  Ag73  1  0.26758000  0.73702000  0.46055000  1
  Ag  Ag74  1  0.27796000  0.65584000  0.51866000  1
  Ag  Ag75  1  0.29326000  0.87030000  0.05885000  1
  Ag  Ag76  1  0.29808000  0.09285000  0.84355000  1
  Ag  Ag77  1  0.31087000  0.00353000  0.78713000  1
  Ag  Ag78  1  0.32518000  0.55688000  0.47745000  1
  Ag  Ag79  1  0.33970000  0.63970000  0.41268000  1
  Ag  Ag80  1  0.34416000  0.72204000  0.98134000  1
  Ag  Ag81  1  0.35251000  0.10745000  0.75013000  1
  Ag  Ag82  1  0.36030000  0.66030000  0.08732000  1
  Ag  Ag83  1  0.37030000  0.20674000  0.80885000  1
  Ag  Ag84  1  0.39255000  0.85251000  0.00013000  1
  Ag  Ag85  1  0.40715000  0.79808000  0.09355000  1
  Ag  Ag86  1  0.44312000  0.67482000  0.02255000  1
  Ag  Ag87  1  0.49647000  0.81087000  0.03713000  1
  Ag  Ag88  1  0.50353000  0.18913000  0.53713000  1
  Ag  Ag89  1  0.55688000  0.32518000  0.52255000  1
  Ag  Ag90  1  0.59285000  0.20192000  0.59355000  1
  Ag  Ag91  1  0.60745000  0.14749000  0.50013000  1
  Ag  Ag92  1  0.62970000  0.79326000  0.30885000  1
  Ag  Ag93  1  0.63970000  0.33970000  0.58732000  1
  Ag  Ag94  1  0.64749000  0.89255000  0.25013000  1
  Ag  Ag95  1  0.65584000  0.27796000  0.48134000  1
  Ag  Ag96  1  0.66030000  0.36030000  0.91268000  1
  Ag  Ag97  1  0.67482000  0.44312000  0.97745000  1
  Ag  Ag98  1  0.68913000  0.99647000  0.28713000  1
  Ag  Ag99  1  0.70192000  0.90715000  0.34355000  1
  Ag  Ag100  1  0.70674000  0.12970000  0.55885000  1
  Ag  Ag101  1  0.72204000  0.34416000  0.01866000  1
  Ag  Ag102  1  0.73242000  0.26298000  0.96055000  1
  Ag  Ag103  1  0.73702000  0.26758000  0.53945000  1
  Ag  Ag104  1  0.76298000  0.76758000  0.71055000  1
  Ag  Ag105  1  0.76758000  0.76298000  0.28945000  1
  Ag  Ag106  1  0.77796000  0.84416000  0.23134000  1
  Ag  Ag107  1  0.79326000  0.62970000  0.69115000  1
  Ag  Ag108  1  0.79808000  0.40715000  0.90645000  1
  Ag  Ag109  1  0.81087000  0.49647000  0.96287000  1
  Ag  Ag110  1  0.82518000  0.94312000  0.27255000  1
  Ag  Ag111  1  0.83970000  0.86030000  0.33732000  1
  Ag  Ag112  1  0.84416000  0.77796000  0.76866000  1
  Ag  Ag113  1  0.85251000  0.39255000  0.99987000  1
  Ag  Ag114  1  0.86030000  0.83970000  0.66268000  1
  Ag  Ag115  1  0.87030000  0.29326000  0.94115000  1
  Ag  Ag116  1  0.89255000  0.64749000  0.74987000  1
  Ag  Ag117  1  0.90715000  0.70192000  0.65645000  1
  Ag  Ag118  1  0.94312000  0.82518000  0.72745000  1
  Ag  Ag119  1  0.99647000  0.68913000  0.71287000  1
  H  H120  1  0.00350000  0.06910000  0.29970000  1
  H  H121  1  0.00560000  0.56770000  0.74920000  1
  H  H122  1  0.00590000  0.42150000  0.99900000  1
  H  H123  1  0.00930000  0.96840000  0.28090000  1
  H  H124  1  0.01020000  0.33690000  0.46050000  1
  H  H125  1  0.01170000  0.74590000  0.60040000  1
  H  H126  1  0.01180000  0.15300000  0.82300000  1
  H  H127  1  0.01290000  0.37570000  0.31920000  1
  H  H128  1  0.01300000  0.36360000  0.11550000  1
  H  H129  1  0.01310000  0.56650000  0.81340000  1
  H  H130  1  0.01350000  0.27600000  0.00040000  1
  H  H131  1  0.01450000  0.03320000  0.83300000  1
  H  H132  1  0.01970000  0.07370000  0.76090000  1
  H  H133  1  0.02090000  0.24600000  0.07220000  1
  H  H134  1  0.02380000  0.09020000  0.27020000  1
  H  H135  1  0.02460000  0.32430000  0.94290000  1
  H  H136  1  0.02470000  0.05310000  0.22630000  1
  H  H137  1  0.02520000  0.07620000  0.17530000  1
  H  H138  1  0.02590000  0.88110000  0.78510000  1
  H  H139  1  0.02660000  0.42580000  0.12010000  1
  H  H140  1  0.02790000  0.61730000  0.51890000  1
  H  H141  1  0.02810000  0.73490000  0.47580000  1
  H  H142  1  0.03110000  0.59160000  0.60850000  1
  H  H143  1  0.03160000  0.99070000  0.21910000  1
  H  H144  1  0.03320000  0.01450000  0.16700000  1
  H  H145  1  0.03320000  0.11670000  0.10490000  1
  H  H146  1  0.03500000  0.37240000  0.01430000  1
  H  H147  1  0.03800000  0.64930000  0.98130000  1
  H  H148  1  0.03870000  0.70430000  0.96410000  1
  H  H149  1  0.04180000  0.41660000  0.29840000  1
  H  H150  1  0.04310000  0.66930000  0.36320000  1
  H  H151  1  0.04650000  0.28060000  0.09690000  1
  H  H152  1  0.04920000  0.71220000  0.50480000  1
  H  H153  1  0.05030000  0.44100000  0.51540000  1
  H  H154  1  0.05040000  0.68380000  0.64730000  1
  H  H155  1  0.05310000  0.02470000  0.77370000  1
  H  H156  1  0.05430000  0.44160000  0.43070000  1
  H  H157  1  0.05480000  0.18230000  0.34060000  1
  H  H158  1  0.05630000  0.87290000  0.73320000  1
  H  H159  1  0.05840000  0.55430000  0.68070000  1
  H  H160  1  0.05880000  0.07490000  0.84370000  1
  H  H161  1  0.05900000  0.55030000  0.76540000  1
  H  H162  1  0.05920000  0.69630000  0.39210000  1
  H  H163  1  0.06070000  0.59910000  0.74380000  1
  H  H164  1  0.06650000  0.48690000  0.56340000  1
  H  H165  1  0.06770000  0.49440000  0.49920000  1
  H  H166  1  0.06910000  0.00350000  0.70030000  1
  H  H167  1  0.07120000  0.29520000  0.84030000  1
  H  H168  1  0.07370000  0.01970000  0.23910000  1
  H  H169  1  0.07410000  0.78150000  0.75120000  1
  H  H170  1  0.07420000  0.52660000  0.37010000  1
  H  H171  1  0.07450000  0.88890000  0.70250000  1
  H  H172  1  0.07460000  0.63490000  0.38610000  1
  H  H173  1  0.07490000  0.05880000  0.15630000  1
  H  H174  1  0.07620000  0.02520000  0.82470000  1
  H  H175  1  0.07850000  0.50590000  0.24900000  1
  H  H176  1  0.07920000  0.65200000  0.67200000  1
  H  H177  1  0.08290000  0.09940000  0.68040000  1
  H  H178  1  0.08340000  0.54180000  0.54840000  1
  H  H179  1  0.08360000  0.70270000  0.56140000  1
  H  H180  1  0.08590000  0.84390000  0.48050000  1
  H  H181  1  0.08810000  0.23380000  0.84510000  1
  H  H182  1  0.08830000  0.77950000  0.03060000  1
  H  H183  1  0.08980000  0.22360000  0.70760000  1
  H  H184  1  0.09020000  0.02380000  0.72980000  1
  H  H185  1  0.09160000  0.46890000  0.35850000  1
  H  H186  1  0.09320000  0.63920000  0.55950000  1
  H  H187  1  0.09440000  0.66860000  0.58890000  1
  H  H188  1  0.09620000  0.64050000  0.64060000  1
  H  H189  1  0.09910000  0.43930000  0.49380000  1
  H  H190  1  0.09940000  0.08290000  0.31960000  1
  H  H191  1  0.09960000  0.31920000  0.76410000  1
  H  H192  1  0.10180000  0.31270000  0.31840000  1
  H  H193  1  0.10210000  0.26280000  0.81650000  1
  H  H194  1  0.10260000  0.11830000  0.71040000  1
  H  H195  1  0.10260000  0.65840000  0.77720000  1
  H  H196  1  0.10290000  0.73710000  0.73240000  1
  H  H197  1  0.10550000  0.18570000  0.07220000  1
  H  H198  1  0.10870000  0.77320000  0.36840000  1
  H  H199  1  0.11110000  0.92550000  0.79750000  1
  H  H200  1  0.11300000  0.34930000  0.10130000  1
  H  H201  1  0.11350000  0.84980000  0.06900000  1
  H  H202  1  0.11670000  0.03320000  0.89510000  1
  H  H203  1  0.11730000  0.47210000  0.26890000  1
  H  H204  1  0.11830000  0.10260000  0.28960000  1
  H  H205  1  0.11870000  0.35660000  0.73900000  1
  H  H206  1  0.11880000  0.87980000  0.72610000  1
  H  H207  1  0.11890000  0.97410000  0.71490000  1
  H  H208  1  0.11990000  0.64600000  0.32770000  1
  H  H209  1  0.12020000  0.88120000  0.77390000  1
  H  H210  1  0.12170000  0.82880000  0.43150000  1
  H  H211  1  0.12220000  0.15660000  0.10040000  1
  H  H212  1  0.12430000  0.51290000  0.56920000  1
  H  H213  1  0.12700000  0.75990000  0.68300000  1
  H  H214  1  0.12710000  0.94370000  0.76680000  1
  H  H215  1  0.12760000  0.53500000  0.26430000  1
  H  H216  1  0.12830000  0.14000000  0.31610000  1
  H  H217  1  0.13030000  0.22010000  0.09710000  1
  H  H218  1  0.13080000  0.76860000  0.00630000  1
  H  H219  1  0.13140000  0.31120000  0.34790000  1
  H  H220  1  0.13260000  0.64400000  0.08760000  1
  H  H221  1  0.13490000  0.42540000  0.13610000  1
  H  H222  1  0.13640000  0.51300000  0.36550000  1
  H  H223  1  0.13650000  0.78710000  0.74390000  1
  H  H224  1  0.13770000  0.26180000  0.88910000  1
  H  H225  1  0.13920000  0.40680000  0.30950000  1
  H  H226  1  0.14000000  0.12830000  0.68390000  1
  H  H227  1  0.14050000  0.40380000  0.39060000  1
  H  H228  1  0.14150000  0.26420000  0.32590000  1
  H  H229  1  0.14290000  0.74790000  0.03710000  1
  H  H230  1  0.14340000  0.61870000  0.98900000  1
  H  H231  1  0.14400000  0.36740000  0.83760000  1
  H  H232  1  0.14600000  0.38010000  0.07770000  1
  H  H233  1  0.14930000  0.46200000  0.73130000  1
  H  H234  1  0.15000000  0.70580000  0.09010000  1
  H  H235  1  0.15020000  0.88650000  0.43100000  1
  H  H236  1  0.15070000  0.61300000  0.35130000  1
  H  H237  1  0.15200000  0.42080000  0.42200000  1
  H  H238  1  0.15300000  0.01180000  0.17700000  1
  H  H239  1  0.15610000  0.91410000  0.01950000  1
  H  H240  1  0.15660000  0.12220000  0.89960000  1
  H  H241  1  0.15840000  0.39740000  0.52720000  1
  H  H242  1  0.16170000  0.31980000  0.08580000  1
  H  H243  1  0.16190000  0.33350000  0.76040000  1
  H  H244  1  0.16310000  0.51020000  0.71050000  1
  H  H245  1  0.16650000  0.66190000  0.01040000  1
  H  H246  1  0.16660000  0.81520000  0.07470000  1
  H  H247  1  0.16740000  0.67140000  0.06360000  1
  H  H248  1  0.16860000  0.40560000  0.33890000  1
  H  H249  1  0.16930000  0.45690000  0.11320000  1
  H  H250  1  0.17120000  0.87830000  0.06850000  1
  H  H251  1  0.17140000  0.33260000  0.81360000  1
  H  H252  1  0.17260000  0.31160000  0.69790000  1
  H  H253  1  0.17570000  0.52460000  0.19290000  1
  H  H254  1  0.18020000  0.66170000  0.33580000  1
  H  H255  1  0.18080000  0.59960000  0.01410000  1
  H  H256  1  0.18230000  0.05480000  0.65940000  1
  H  H257  1  0.18380000  0.44960000  0.39730000  1
  H  H258  1  0.18440000  0.24840000  0.69940000  1
  H  H259  1  0.18480000  0.83340000  0.42530000  1
  H  H260  1  0.18570000  0.10550000  0.92780000  1
  H  H261  1  0.18730000  0.60180000  0.56840000  1
  H  H262  1  0.18840000  0.67260000  0.94790000  1
  H  H263  1  0.18880000  0.63140000  0.59790000  1
  H  H264  1  0.19630000  0.44080000  0.14210000  1
  H  H265  1  0.20270000  0.41640000  0.31140000  1
  H  H266  1  0.20430000  0.46130000  0.71410000  1
  H  H267  1  0.20480000  0.57120000  0.09030000  1
  H  H268  1  0.20580000  0.35000000  0.84010000  1
  H  H269  1  0.21130000  0.71540000  0.96970000  1
  H  H270  1  0.21220000  0.45080000  0.25480000  1
  H  H271  1  0.21290000  0.86350000  0.75610000  1
  H  H272  1  0.21540000  0.28870000  0.71970000  1
  H  H273  1  0.21850000  0.92590000  0.74880000  1
  H  H274  1  0.21940000  0.54650000  0.34690000  1
  H  H275  1  0.22010000  0.13030000  0.90290000  1
  H  H276  1  0.22050000  0.91170000  0.46940000  1
  H  H277  1  0.22300000  0.74140000  0.57550000  1
  H  H278  1  0.22360000  0.08980000  0.29240000  1
  H  H279  1  0.22400000  0.51350000  0.25040000  1
  H  H280  1  0.22680000  0.89130000  0.13160000  1
  H  H281  1  0.23140000  0.86920000  0.49370000  1
  H  H282  1  0.23380000  0.08810000  0.15490000  1
  H  H283  1  0.23490000  0.47190000  0.22580000  1
  H  H284  1  0.23580000  0.64150000  0.57590000  1
  H  H285  1  0.23710000  0.39710000  0.48240000  1
  H  H286  1  0.23720000  0.60210000  0.06650000  1
  H  H287  1  0.23820000  0.63770000  0.13910000  1
  H  H288  1  0.24010000  0.87300000  0.81700000  1
  H  H289  1  0.24140000  0.27700000  0.32550000  1
  H  H290  1  0.24590000  0.48830000  0.35040000  1
  H  H291  1  0.24600000  0.02090000  0.92780000  1
  H  H292  1  0.24790000  0.35710000  0.78710000  1
  H  H293  1  0.24840000  0.18440000  0.30060000  1
  H  H294  1  0.25160000  0.68440000  0.94940000  1
  H  H295  1  0.25210000  0.85710000  0.46290000  1
  H  H296  1  0.25400000  0.52090000  0.32220000  1
  H  H297  1  0.25410000  0.98830000  0.89960000  1
  H  H298  1  0.25860000  0.77700000  0.92450000  1
  H  H299  1  0.25990000  0.37300000  0.43300000  1
  H  H300  1  0.26180000  0.13770000  0.11090000  1
  H  H301  1  0.26280000  0.10210000  0.18350000  1
  H  H302  1  0.26290000  0.89710000  0.76760000  1
  H  H303  1  0.26420000  0.14150000  0.67410000  1
  H  H304  1  0.26510000  0.97190000  0.02420000  1
  H  H305  1  0.26620000  0.58810000  0.09510000  1
  H  H306  1  0.26860000  0.36920000  0.75630000  1
  H  H307  1  0.27320000  0.39130000  0.11840000  1
  H  H308  1  0.27600000  0.01350000  0.99960000  1
  H  H309  1  0.27640000  0.58980000  0.95760000  1
  H  H310  1  0.27700000  0.24140000  0.67450000  1
  H  H311  1  0.27950000  0.41170000  0.78060000  1
  H  H312  1  0.27990000  0.63030000  0.34710000  1
  H  H313  1  0.28060000  0.04650000  0.90310000  1
  H  H314  1  0.28150000  0.42590000  0.50120000  1
  H  H315  1  0.28460000  0.78870000  0.53030000  1
  H  H316  1  0.28710000  0.36350000  0.49390000  1
  H  H317  1  0.28780000  0.95080000  0.99520000  1
  H  H318  1  0.28870000  0.21540000  0.28030000  1
  H  H319  1  0.29420000  0.85000000  0.40990000  1
  H  H320  1  0.29520000  0.07120000  0.15970000  1
  H  H321  1  0.29570000  0.96130000  0.53590000  1
  H  H322  1  0.29730000  0.91640000  0.93860000  1
  H  H323  1  0.30370000  0.94080000  0.10790000  1
  H  H324  1  0.31120000  0.13140000  0.65210000  1
  H  H325  1  0.31160000  0.17260000  0.30210000  1
  H  H326  1  0.31270000  0.10180000  0.68160000  1
  H  H327  1  0.31430000  0.60550000  0.32220000  1
  H  H328  1  0.31520000  0.33340000  0.82470000  1
  H  H329  1  0.31560000  0.74840000  0.55060000  1
  H  H330  1  0.31620000  0.94960000  0.85270000  1
  H  H331  1  0.31770000  0.55480000  0.59060000  1
  H  H332  1  0.31920000  0.09960000  0.23590000  1
  H  H333  1  0.31980000  0.16170000  0.91420000  1
  H  H334  1  0.32430000  0.02460000  0.05710000  1
  H  H335  1  0.32740000  0.81160000  0.55210000  1
  H  H336  1  0.32860000  0.83260000  0.43640000  1
  H  H337  1  0.32880000  0.37830000  0.18150000  1
  H  H338  1  0.33070000  0.95690000  0.13680000  1
  H  H339  1  0.33140000  0.90560000  0.91110000  1
  H  H340  1  0.33260000  0.17140000  0.18640000  1
  H  H341  1  0.33340000  0.31520000  0.17530000  1
  H  H342  1  0.33350000  0.16190000  0.23960000  1
  H  H343  1  0.33690000  0.01020000  0.53950000  1
  H  H344  1  0.33810000  0.83350000  0.48960000  1
  H  H345  1  0.33830000  0.81980000  0.16420000  1
  H  H346  1  0.34160000  0.89740000  0.72280000  1
  H  H347  1  0.34340000  0.62220000  0.35040000  1
  H  H348  1  0.34390000  0.41410000  0.23050000  1
  H  H349  1  0.34700000  0.51180000  0.07300000  1
  H  H350  1  0.34800000  0.92080000  0.82800000  1
  H  H351  1  0.34930000  0.11300000  0.89870000  1
  H  H352  1  0.34980000  0.38650000  0.81900000  1
  H  H353  1  0.35000000  0.20580000  0.15990000  1
  H  H354  1  0.35070000  0.96200000  0.51870000  1
  H  H355  1  0.35400000  0.88010000  0.17230000  1
  H  H356  1  0.35600000  0.86740000  0.41240000  1
  H  H357  1  0.35660000  0.11870000  0.26100000  1
  H  H358  1  0.35710000  0.24790000  0.21290000  1
  H  H359  1  0.35850000  0.76420000  0.92410000  1
  H  H360  1  0.35950000  0.90380000  0.85940000  1
  H  H361  1  0.36000000  0.62830000  0.56610000  1
  H  H362  1  0.36080000  0.90680000  0.94050000  1
  H  H363  1  0.36230000  0.76180000  0.36090000  1
  H  H364  1  0.36350000  0.28710000  0.50610000  1
  H  H365  1  0.36360000  0.01300000  0.88450000  1
  H  H366  1  0.36510000  0.92540000  0.11390000  1
  H  H367  1  0.36740000  0.14400000  0.16240000  1
  H  H368  1  0.36860000  0.81120000  0.90210000  1
  H  H369  1  0.36920000  0.26860000  0.24370000  1
  H  H370  1  0.36970000  0.72010000  0.15290000  1
  H  H371  1  0.37170000  0.64000000  0.93390000  1
  H  H372  1  0.37240000  0.03500000  0.98570000  1
  H  H373  1  0.37290000  0.44370000  0.48320000  1
  H  H374  1  0.37300000  0.25990000  0.56700000  1
  H  H375  1  0.37570000  0.01290000  0.68080000  1
  H  H376  1  0.37780000  0.65660000  0.14960000  1
  H  H377  1  0.37830000  0.32880000  0.81850000  1
  H  H378  1  0.37980000  0.38120000  0.47610000  1
  H  H379  1  0.38010000  0.14600000  0.92230000  1
  H  H380  1  0.38110000  0.47410000  0.53510000  1
  H  H381  1  0.38120000  0.37980000  0.52390000  1
  H  H382  1  0.38130000  0.85660000  0.51100000  1
  H  H383  1  0.38170000  0.60260000  0.96040000  1
  H  H384  1  0.38270000  0.97210000  0.98110000  1
  H  H385  1  0.38330000  0.53320000  0.35490000  1
  H  H386  1  0.38650000  0.34980000  0.18100000  1
  H  H387  1  0.38700000  0.84930000  0.14870000  1
  H  H388  1  0.38890000  0.42550000  0.45250000  1
  H  H389  1  0.39130000  0.27320000  0.88160000  1
  H  H390  1  0.39450000  0.68570000  0.17780000  1
  H  H391  1  0.39710000  0.23710000  0.51760000  1
  H  H392  1  0.39740000  0.15840000  0.47280000  1
  H  H393  1  0.39740000  0.61830000  0.53960000  1
  H  H394  1  0.39790000  0.76280000  0.43350000  1
  H  H395  1  0.39820000  0.81270000  0.93160000  1
  H  H396  1  0.40040000  0.81920000  0.48590000  1
  H  H397  1  0.40060000  0.58290000  0.93040000  1
  H  H398  1  0.40090000  0.93930000  0.75620000  1
  H  H399  1  0.40380000  0.14050000  0.60940000  1
  H  H400  1  0.40560000  0.16860000  0.66110000  1
  H  H401  1  0.40680000  0.13920000  0.69050000  1
  H  H402  1  0.40840000  0.96890000  0.89150000  1
  H  H403  1  0.40980000  0.52380000  0.52020000  1
  H  H404  1  0.41020000  0.72360000  0.54240000  1
  H  H405  1  0.41170000  0.27950000  0.21940000  1
  H  H406  1  0.41190000  0.73380000  0.40490000  1
  H  H407  1  0.41410000  0.34390000  0.76950000  1
  H  H408  1  0.41640000  0.20270000  0.68860000  1
  H  H409  1  0.41660000  0.04180000  0.70160000  1
  H  H410  1  0.41710000  0.59940000  0.56960000  1
  H  H411  1  0.42080000  0.15200000  0.57800000  1
  H  H412  1  0.42150000  0.00590000  0.00100000  1
  H  H413  1  0.42380000  0.52520000  0.42530000  1
  H  H414  1  0.42510000  0.55880000  0.09370000  1
  H  H415  1  0.42540000  0.13490000  0.86390000  1
  H  H416  1  0.42550000  0.38890000  0.54750000  1
  H  H417  1  0.42580000  0.02660000  0.87990000  1
  H  H418  1  0.42590000  0.28150000  0.49880000  1
  H  H419  1  0.42630000  0.51970000  0.01090000  1
  H  H420  1  0.42880000  0.79520000  0.40970000  1
  H  H421  1  0.43090000  0.50350000  0.54970000  1
  H  H422  1  0.43230000  0.99440000  0.75080000  1
  H  H423  1  0.43350000  0.98690000  0.68660000  1
  H  H424  1  0.43930000  0.09910000  0.50620000  1
  H  H425  1  0.44080000  0.19630000  0.85790000  1
  H  H426  1  0.44100000  0.05030000  0.48460000  1
  H  H427  1  0.44120000  0.57490000  0.40630000  1
  H  H428  1  0.44160000  0.05430000  0.56930000  1
  H  H429  1  0.44370000  0.37290000  0.51680000  1
  H  H430  1  0.44520000  0.68230000  0.90940000  1
  H  H431  1  0.44570000  0.94160000  0.81930000  1
  H  H432  1  0.44690000  0.52470000  0.47630000  1
  H  H433  1  0.44960000  0.18380000  0.60270000  1
  H  H434  1  0.44970000  0.94100000  0.73460000  1
  H  H435  1  0.45080000  0.21220000  0.74520000  1
  H  H436  1  0.45350000  0.78060000  0.15310000  1
  H  H437  1  0.45690000  0.16930000  0.88680000  1
  H  H438  1  0.45820000  0.91660000  0.95160000  1
  H  H439  1  0.46130000  0.20430000  0.28590000  1
  H  H440  1  0.46200000  0.14930000  0.26870000  1
  H  H441  1  0.46500000  0.87240000  0.23570000  1
  H  H442  1  0.46680000  0.51450000  0.08300000  1
  H  H443  1  0.46680000  0.61670000  0.14510000  1
  H  H444  1  0.46840000  0.49070000  0.03090000  1
  H  H445  1  0.46890000  0.09160000  0.64150000  1
  H  H446  1  0.47190000  0.23490000  0.77420000  1
  H  H447  1  0.47210000  0.11730000  0.73110000  1
  H  H448  1  0.47340000  0.92580000  0.12990000  1
  H  H449  1  0.47410000  0.38110000  0.46490000  1
  H  H450  1  0.47480000  0.57620000  0.07470000  1
  H  H451  1  0.47530000  0.55310000  0.02370000  1
  H  H452  1  0.47540000  0.82430000  0.30710000  1
  H  H453  1  0.47620000  0.59020000  0.97980000  1
  H  H454  1  0.47910000  0.74600000  0.17780000  1
  H  H455  1  0.48030000  0.57370000  0.48910000  1
  H  H456  1  0.48550000  0.53320000  0.41700000  1
  H  H457  1  0.48650000  0.77600000  0.24960000  1
  H  H458  1  0.48690000  0.06650000  0.43660000  1
  H  H459  1  0.48700000  0.86360000  0.13450000  1
  H  H460  1  0.48710000  0.87570000  0.93080000  1
  H  H461  1  0.48820000  0.65300000  0.42700000  1
  H  H462  1  0.48830000  0.24590000  0.64960000  1
  H  H463  1  0.48980000  0.83690000  0.78950000  1
  H  H464  1  0.49070000  0.46840000  0.96910000  1
  H  H465  1  0.49410000  0.92150000  0.25100000  1
  H  H466  1  0.49440000  0.06770000  0.50080000  1
  H  H467  1  0.49650000  0.56910000  0.95030000  1
  H  H468  1  0.50350000  0.43090000  0.45030000  1
  H  H469  1  0.50560000  0.93230000  0.00080000  1
  H  H470  1  0.50590000  0.07850000  0.75100000  1
  H  H471  1  0.50930000  0.53160000  0.46910000  1
  H  H472  1  0.51020000  0.16310000  0.28950000  1
  H  H473  1  0.51170000  0.75410000  0.14960000  1
  H  H474  1  0.51180000  0.34700000  0.92700000  1
  H  H475  1  0.51290000  0.12430000  0.43080000  1
  H  H476  1  0.51300000  0.13640000  0.63450000  1
  H  H477  1  0.51310000  0.93350000  0.93660000  1
  H  H478  1  0.51350000  0.22400000  0.74960000  1
  H  H479  1  0.51450000  0.46680000  0.91700000  1
  H  H480  1  0.51970000  0.42630000  0.98910000  1
  H  H481  1  0.52090000  0.25400000  0.67780000  1
  H  H482  1  0.52380000  0.40980000  0.47980000  1
  H  H483  1  0.52460000  0.17570000  0.80710000  1
  H  H484  1  0.52470000  0.44690000  0.52370000  1
  H  H485  1  0.52520000  0.42380000  0.57470000  1
  H  H486  1  0.52590000  0.61890000  0.96490000  1
  H  H487  1  0.52660000  0.07420000  0.62990000  1
  H  H488  1  0.52790000  0.88270000  0.23110000  1
  H  H489  1  0.52810000  0.76510000  0.27420000  1
  H  H490  1  0.53110000  0.90840000  0.14150000  1
  H  H491  1  0.53160000  0.50930000  0.53090000  1
  H  H492  1  0.53320000  0.38330000  0.64510000  1
  H  H493  1  0.53320000  0.48550000  0.58300000  1
  H  H494  1  0.53500000  0.12760000  0.73570000  1
  H  H495  1  0.53800000  0.85070000  0.76870000  1
  H  H496  1  0.53870000  0.79570000  0.78590000  1
  H  H497  1  0.54180000  0.08340000  0.45160000  1
  H  H498  1  0.54310000  0.83070000  0.38680000  1
  H  H499  1  0.54650000  0.21940000  0.65310000  1
  H  H500  1  0.54920000  0.78780000  0.24520000  1
  H  H501  1  0.55030000  0.05900000  0.23460000  1
  H  H502  1  0.55040000  0.81620000  0.10270000  1
  H  H503  1  0.55310000  0.47530000  0.97630000  1
  H  H504  1  0.55430000  0.05840000  0.31930000  1
  H  H505  1  0.55480000  0.31770000  0.40940000  1
  H  H506  1  0.55630000  0.62710000  0.01680000  1
  H  H507  1  0.55840000  0.94570000  0.06930000  1
  H  H508  1  0.55880000  0.42510000  0.90630000  1
  H  H509  1  0.55900000  0.94970000  0.98460000  1
  H  H510  1  0.55920000  0.80370000  0.35790000  1
  H  H511  1  0.56070000  0.90090000  0.00620000  1
  H  H512  1  0.56650000  0.01310000  0.18660000  1
  H  H513  1  0.56770000  0.00560000  0.25080000  1
  H  H514  1  0.56910000  0.49650000  0.04970000  1
  H  H515  1  0.57120000  0.20480000  0.90970000  1
  H  H516  1  0.57370000  0.48030000  0.51090000  1
  H  H517  1  0.57410000  0.71850000  0.99880000  1
  H  H518  1  0.57420000  0.97340000  0.37990000  1
  H  H519  1  0.57450000  0.61110000  0.04750000  1
  H  H520  1  0.57460000  0.86510000  0.36390000  1
  H  H521  1  0.57490000  0.44120000  0.59370000  1
  H  H522  1  0.57620000  0.47480000  0.92530000  1
  H  H523  1  0.57850000  0.99410000  0.50100000  1
  H  H524  1  0.57920000  0.84800000  0.07800000  1
  H  H525  1  0.58290000  0.40060000  0.06960000  1
  H  H526  1  0.58340000  0.95820000  0.20160000  1
  H  H527  1  0.58360000  0.79730000  0.18860000  1
  H  H528  1  0.58590000  0.65610000  0.26950000  1
  H  H529  1  0.58810000  0.26620000  0.90490000  1
  H  H530  1  0.58830000  0.72050000  0.71940000  1
  H  H531  1  0.58980000  0.27640000  0.04240000  1
  H  H532  1  0.59020000  0.47620000  0.02020000  1
  H  H533  1  0.59160000  0.03110000  0.39150000  1
  H  H534  1  0.59320000  0.86080000  0.19050000  1
  H  H535  1  0.59440000  0.83140000  0.16110000  1
  H  H536  1  0.59620000  0.85950000  0.10940000  1
  H  H537  1  0.59910000  0.06070000  0.25620000  1
  H  H538  1  0.59940000  0.41710000  0.43040000  1
  H  H539  1  0.59960000  0.18080000  0.98590000  1
  H  H540  1  0.60180000  0.18730000  0.43160000  1
  H  H541  1  0.60210000  0.23720000  0.93350000  1
  H  H542  1  0.60260000  0.38170000  0.03960000  1
  H  H543  1  0.60260000  0.84160000  0.97280000  1
  H  H544  1  0.60290000  0.76290000  0.01760000  1
  H  H545  1  0.60550000  0.31430000  0.67780000  1
  H  H546  1  0.60870000  0.72680000  0.38160000  1
  H  H547  1  0.61110000  0.57450000  0.95250000  1
  H  H548  1  0.61300000  0.15070000  0.64870000  1
  H  H549  1  0.61350000  0.65020000  0.68100000  1
  H  H550  1  0.61670000  0.46680000  0.85490000  1
  H  H551  1  0.61730000  0.02790000  0.48110000  1
  H  H552  1  0.61830000  0.39740000  0.46040000  1
  H  H553  1  0.61870000  0.14340000  0.01100000  1
  H  H554  1  0.61880000  0.62020000  0.02390000  1
  H  H555  1  0.61890000  0.52590000  0.03510000  1
  H  H556  1  0.61990000  0.85400000  0.42230000  1
  H  H557  1  0.62020000  0.61880000  0.97610000  1
  H  H558  1  0.62170000  0.67120000  0.31850000  1
  H  H559  1  0.62220000  0.34340000  0.64960000  1
  H  H560  1  0.62430000  0.98710000  0.18080000  1
  H  H561  1  0.62700000  0.74010000  0.06700000  1
  H  H562  1  0.62710000  0.55630000  0.98320000  1
  H  H563  1  0.62760000  0.96500000  0.48570000  1
  H  H564  1  0.62830000  0.36000000  0.43390000  1
  H  H565  1  0.63030000  0.27990000  0.65290000  1
  H  H566  1  0.63080000  0.73140000  0.74370000  1
  H  H567  1  0.63140000  0.18880000  0.40210000  1
  H  H568  1  0.63260000  0.85600000  0.66240000  1
  H  H569  1  0.63490000  0.07460000  0.61390000  1
  H  H570  1  0.63640000  0.98700000  0.38450000  1
  H  H571  1  0.63650000  0.71290000  0.00610000  1
  H  H572  1  0.63770000  0.23820000  0.86090000  1
  H  H573  1  0.63920000  0.09320000  0.44050000  1
  H  H574  1  0.64000000  0.37170000  0.06610000  1
  H  H575  1  0.64050000  0.09620000  0.35940000  1
  H  H576  1  0.64150000  0.23580000  0.42410000  1
  H  H577  1  0.64290000  0.75210000  0.71290000  1
  H  H578  1  0.64340000  0.88130000  0.76100000  1
  H  H579  1  0.64400000  0.13260000  0.91240000  1
  H  H580  1  0.64600000  0.11990000  0.67230000  1
  H  H581  1  0.64930000  0.03800000  0.01870000  1
  H  H582  1  0.65000000  0.79420000  0.65990000  1
  H  H583  1  0.65020000  0.61350000  0.31900000  1
  H  H584  1  0.65070000  0.88700000  0.39870000  1
  H  H585  1  0.65200000  0.07920000  0.32800000  1
  H  H586  1  0.65300000  0.48820000  0.57300000  1
  H  H587  1  0.65610000  0.58590000  0.73050000  1
  H  H588  1  0.65660000  0.37780000  0.85040000  1
  H  H589  1  0.65840000  0.10260000  0.22280000  1
  H  H590  1  0.66170000  0.18020000  0.66420000  1
  H  H591  1  0.66190000  0.16650000  0.98960000  1
  H  H592  1  0.66310000  0.98980000  0.03950000  1
  H  H593  1  0.66650000  0.83810000  0.73960000  1
  H  H594  1  0.66666667  0.68480000  0.67530000  1
  H  H595  1  0.66740000  0.82860000  0.68640000  1
  H  H596  1  0.66860000  0.09440000  0.41110000  1
  H  H597  1  0.66930000  0.04310000  0.63680000  1
  H  H598  1  0.67120000  0.62170000  0.68150000  1
  H  H599  1  0.67140000  0.16740000  0.93640000  1
  H  H600  1  0.67260000  0.18840000  0.05210000  1
  H  H601  1  0.67570000  0.97540000  0.55710000  1
  H  H602  1  0.68020000  0.83830000  0.41420000  1
  H  H603  1  0.68080000  0.90040000  0.73590000  1
  H  H604  1  0.68230000  0.44520000  0.09060000  1
  H  H605  1  0.68380000  0.05040000  0.35270000  1
  H  H606  1  0.68440000  0.25160000  0.05060000  1
  H  H607  1  0.68480000  0.66666667  0.32470000  1
  H  H608  1  0.68570000  0.39450000  0.82220000  1
  H  H609  1  0.68730000  0.89820000  0.18160000  1
  H  H610  1  0.68840000  0.82740000  0.80210000  1
  H  H611  1  0.68880000  0.86860000  0.15210000  1
  H  H612  1  0.69630000  0.05920000  0.60790000  1
  H  H613  1  0.70270000  0.08360000  0.43860000  1
  H  H614  1  0.70430000  0.03870000  0.03590000  1
  H  H615  1  0.70480000  0.92880000  0.65970000  1
  H  H616  1  0.70580000  0.15000000  0.90990000  1
  H  H617  1  0.71130000  0.78460000  0.78030000  1
  H  H618  1  0.71220000  0.04920000  0.49520000  1
  H  H619  1  0.71290000  0.63650000  0.99390000  1
  H  H620  1  0.71540000  0.21130000  0.03030000  1
  H  H621  1  0.71850000  0.57410000  0.00120000  1
  H  H622  1  0.71940000  0.95350000  0.40310000  1
  H  H623  1  0.72010000  0.36970000  0.84710000  1
  H  H624  1  0.72050000  0.58830000  0.28060000  1
  H  H625  1  0.72300000  0.75860000  0.17450000  1
  H  H626  1  0.72360000  0.41020000  0.45760000  1
  H  H627  1  0.72400000  0.98650000  0.49960000  1
  H  H628  1  0.72680000  0.60870000  0.61840000  1
  H  H629  1  0.73140000  0.63080000  0.25630000  1
  H  H630  1  0.73380000  0.41190000  0.59510000  1
  H  H631  1  0.73490000  0.02810000  0.52420000  1
  H  H632  1  0.73580000  0.85850000  0.17410000  1
  H  H633  1  0.73710000  0.10290000  0.26760000  1
  H  H634  1  0.73720000  0.89790000  0.68350000  1
  H  H635  1  0.73820000  0.86230000  0.61090000  1
  H  H636  1  0.74010000  0.62700000  0.93300000  1
  H  H637  1  0.74140000  0.22300000  0.42450000  1
  H  H638  1  0.74590000  0.01170000  0.39960000  1
  H  H639  1  0.74600000  0.47910000  0.82220000  1
  H  H640  1  0.74790000  0.14290000  0.96290000  1
  H  H641  1  0.74840000  0.31560000  0.44940000  1
  H  H642  1  0.75160000  0.81560000  0.80060000  1
  H  H643  1  0.75210000  0.64290000  0.28710000  1
  H  H644  1  0.75400000  0.97910000  0.42780000  1
  H  H645  1  0.75410000  0.51170000  0.85040000  1
  H  H646  1  0.75860000  0.72300000  0.82550000  1
  H  H647  1  0.75990000  0.12700000  0.31700000  1
  H  H648  1  0.76180000  0.36230000  0.63910000  1
  H  H649  1  0.76280000  0.39790000  0.56650000  1
  H  H650  1  0.76290000  0.60290000  0.98240000  1
  H  H651  1  0.76420000  0.35850000  0.07590000  1
  H  H652  1  0.76510000  0.52810000  0.72580000  1
  H  H653  1  0.76620000  0.91190000  0.65490000  1
  H  H654  1  0.76860000  0.13080000  0.99370000  1
  H  H655  1  0.77320000  0.10870000  0.63160000  1
  H  H656  1  0.77600000  0.48650000  0.75040000  1
  H  H657  1  0.77640000  0.91020000  0.79240000  1
  H  H658  1  0.77700000  0.25860000  0.07550000  1
  H  H659  1  0.77950000  0.08830000  0.96940000  1
  H  H660  1  0.77990000  0.86970000  0.40290000  1
  H  H661  1  0.78060000  0.45350000  0.84690000  1
  H  H662  1  0.78150000  0.07410000  0.24880000  1
  H  H663  1  0.78460000  0.71130000  0.21970000  1
  H  H664  1  0.78710000  0.13650000  0.25610000  1
  H  H665  1  0.78780000  0.54920000  0.75480000  1
  H  H666  1  0.78870000  0.28460000  0.46970000  1
  H  H667  1  0.79420000  0.65000000  0.34010000  1
  H  H668  1  0.79520000  0.42880000  0.59030000  1
  H  H669  1  0.79570000  0.53870000  0.21410000  1
  H  H670  1  0.79730000  0.58360000  0.81140000  1
  H  H671  1  0.80370000  0.55920000  0.64210000  1
  H  H672  1  0.81120000  0.36860000  0.09790000  1
  H  H673  1  0.81160000  0.32740000  0.44790000  1
  H  H674  1  0.81270000  0.39820000  0.06840000  1
  H  H675  1  0.81430000  0.89450000  0.42780000  1
  H  H676  1  0.81520000  0.16660000  0.92530000  1
  H  H677  1  0.81560000  0.75160000  0.19940000  1
  H  H678  1  0.81620000  0.55040000  0.89730000  1
  H  H679  1  0.81770000  0.94520000  0.15940000  1
  H  H680  1  0.81920000  0.40040000  0.51410000  1
  H  H681  1  0.81980000  0.33830000  0.83580000  1
  H  H682  1  0.82430000  0.47540000  0.69290000  1
  H  H683  1  0.82740000  0.68840000  0.19790000  1
  H  H684  1  0.82860000  0.66740000  0.31360000  1
  H  H685  1  0.82880000  0.12170000  0.56850000  1
  H  H686  1  0.83070000  0.54310000  0.61320000  1
  H  H687  1  0.83140000  0.59440000  0.83890000  1
  H  H688  1  0.83260000  0.32860000  0.56360000  1
  H  H689  1  0.83340000  0.18480000  0.57470000  1
  H  H690  1  0.83350000  0.33810000  0.51040000  1
  H  H691  1  0.83690000  0.48980000  0.21050000  1
  H  H692  1  0.83810000  0.66650000  0.26040000  1
  H  H693  1  0.83830000  0.68020000  0.58580000  1
  H  H694  1  0.84160000  0.60260000  0.02720000  1
  H  H695  1  0.84340000  0.87780000  0.39960000  1
  H  H696  1  0.84390000  0.08590000  0.51950000  1
  H  H697  1  0.84700000  0.98820000  0.67700000  1
  H  H698  1  0.84800000  0.57920000  0.92200000  1
  H  H699  1  0.84930000  0.38700000  0.85130000  1
  H  H700  1  0.84980000  0.11350000  0.93100000  1
  H  H701  1  0.85000000  0.29420000  0.59010000  1
  H  H702  1  0.85070000  0.53800000  0.23130000  1
  H  H703  1  0.85400000  0.61990000  0.57770000  1
  H  H704  1  0.85600000  0.63260000  0.33760000  1
  H  H705  1  0.85660000  0.38130000  0.48900000  1
  H  H706  1  0.85710000  0.25210000  0.53710000  1
  H  H707  1  0.85850000  0.73580000  0.82590000  1
  H  H708  1  0.85950000  0.59620000  0.89060000  1
  H  H709  1  0.86000000  0.87170000  0.18390000  1
  H  H710  1  0.86080000  0.59320000  0.80950000  1
  H  H711  1  0.86230000  0.73820000  0.38910000  1
  H  H712  1  0.86350000  0.21290000  0.24390000  1
  H  H713  1  0.86360000  0.48700000  0.86550000  1
  H  H714  1  0.86510000  0.57460000  0.63610000  1
  H  H715  1  0.86740000  0.35600000  0.58760000  1
  H  H716  1  0.86860000  0.68880000  0.84790000  1
  H  H717  1  0.86920000  0.23140000  0.50630000  1
  H  H718  1  0.86970000  0.77990000  0.59710000  1
  H  H719  1  0.87170000  0.86000000  0.81610000  1
  H  H720  1  0.87240000  0.46500000  0.76430000  1
  H  H721  1  0.87290000  0.05630000  0.26680000  1
  H  H722  1  0.87300000  0.24010000  0.18300000  1
  H  H723  1  0.87570000  0.48710000  0.06920000  1
  H  H724  1  0.87780000  0.84340000  0.60040000  1
  H  H725  1  0.87830000  0.17120000  0.93150000  1
  H  H726  1  0.87980000  0.11880000  0.27390000  1
  H  H727  1  0.88010000  0.35400000  0.82770000  1
  H  H728  1  0.88110000  0.02590000  0.21490000  1
  H  H729  1  0.88120000  0.12020000  0.22610000  1
  H  H730  1  0.88130000  0.64340000  0.23900000  1
  H  H731  1  0.88170000  0.89740000  0.78960000  1
  H  H732  1  0.88270000  0.52790000  0.76890000  1
  H  H733  1  0.88330000  0.96680000  0.39510000  1
  H  H734  1  0.88650000  0.15020000  0.56900000  1
  H  H735  1  0.88700000  0.65070000  0.60130000  1
  H  H736  1  0.88890000  0.07450000  0.29750000  1
  H  H737  1  0.89130000  0.22680000  0.86840000  1
  H  H738  1  0.89450000  0.81430000  0.57220000  1
  H  H739  1  0.89710000  0.26290000  0.23240000  1
  H  H740  1  0.89740000  0.34160000  0.27720000  1
  H  H741  1  0.89740000  0.88170000  0.21040000  1
  H  H742  1  0.89790000  0.73720000  0.31650000  1
  H  H743  1  0.89820000  0.68730000  0.81840000  1
  H  H744  1  0.90040000  0.68080000  0.26410000  1
  H  H745  1  0.90060000  0.91710000  0.81960000  1
  H  H746  1  0.90090000  0.56070000  0.99380000  1
  H  H747  1  0.90380000  0.35950000  0.14060000  1
  H  H748  1  0.90560000  0.33140000  0.08890000  1
  H  H749  1  0.90680000  0.36080000  0.05950000  1
  H  H750  1  0.90840000  0.53110000  0.85850000  1
  H  H751  1  0.90980000  0.97620000  0.22980000  1
  H  H752  1  0.91020000  0.77640000  0.20760000  1
  H  H753  1  0.91170000  0.22050000  0.53060000  1
  H  H754  1  0.91190000  0.76620000  0.34510000  1
  H  H755  1  0.91410000  0.15610000  0.98050000  1
  H  H756  1  0.91640000  0.29730000  0.06140000  1
  H  H757  1  0.91660000  0.45820000  0.04840000  1
  H  H758  1  0.91710000  0.90060000  0.18040000  1
  H  H759  1  0.92080000  0.34800000  0.17200000  1
  H  H760  1  0.92150000  0.49410000  0.74900000  1
  H  H761  1  0.92380000  0.97480000  0.32470000  1
  H  H762  1  0.92510000  0.94120000  0.65630000  1
  H  H763  1  0.92540000  0.36510000  0.88610000  1
  H  H764  1  0.92550000  0.11110000  0.20250000  1
  H  H765  1  0.92580000  0.47340000  0.87010000  1
  H  H766  1  0.92590000  0.21850000  0.25120000  1
  H  H767  1  0.92630000  0.98030000  0.73910000  1
  H  H768  1  0.92880000  0.70480000  0.34030000  1
  H  H769  1  0.93090000  0.99650000  0.20030000  1
  H  H770  1  0.93230000  0.50560000  0.99920000  1
  H  H771  1  0.93350000  0.51310000  0.06340000  1
  H  H772  1  0.93930000  0.40090000  0.24380000  1
  H  H773  1  0.94080000  0.30370000  0.89210000  1
  H  H774  1  0.94100000  0.44970000  0.26540000  1
  H  H775  1  0.94120000  0.92510000  0.34370000  1
  H  H776  1  0.94160000  0.44570000  0.18070000  1
  H  H777  1  0.94370000  0.12710000  0.23320000  1
  H  H778  1  0.94520000  0.81770000  0.84060000  1
  H  H779  1  0.94570000  0.55840000  0.93070000  1
  H  H780  1  0.94690000  0.97530000  0.27370000  1
  H  H781  1  0.94960000  0.31620000  0.14730000  1
  H  H782  1  0.94970000  0.55900000  0.01540000  1
  H  H783  1  0.95080000  0.28780000  0.00480000  1
  H  H784  1  0.95350000  0.71940000  0.59690000  1
  H  H785  1  0.95690000  0.33070000  0.86320000  1
  H  H786  1  0.95820000  0.58340000  0.79840000  1
  H  H787  1  0.96130000  0.29570000  0.46410000  1
  H  H788  1  0.96200000  0.35070000  0.48130000  1
  H  H789  1  0.96500000  0.62760000  0.51430000  1
  H  H790  1  0.96680000  0.88330000  0.60490000  1
  H  H791  1  0.96680000  0.98550000  0.66700000  1
  H  H792  1  0.96840000  0.00930000  0.71910000  1
  H  H793  1  0.96890000  0.40840000  0.10850000  1
  H  H794  1  0.97190000  0.26510000  0.97580000  1
  H  H795  1  0.97210000  0.38270000  0.01890000  1
  H  H796  1  0.97340000  0.57420000  0.62010000  1
  H  H797  1  0.97410000  0.11890000  0.28510000  1
  H  H798  1  0.97480000  0.92380000  0.67530000  1
  H  H799  1  0.97530000  0.94690000  0.72630000  1
  H  H800  1  0.97540000  0.67570000  0.44290000  1
  H  H801  1  0.97620000  0.90980000  0.77020000  1
  H  H802  1  0.97910000  0.75400000  0.57220000  1
  H  H803  1  0.98030000  0.92630000  0.26090000  1
  H  H804  1  0.98550000  0.96680000  0.33300000  1
  H  H805  1  0.98650000  0.72400000  0.50040000  1
  H  H806  1  0.98690000  0.43350000  0.31340000  1
  H  H807  1  0.98700000  0.63640000  0.61550000  1
  H  H808  1  0.98710000  0.62430000  0.81920000  1
  H  H809  1  0.98820000  0.84700000  0.32300000  1
  H  H810  1  0.98830000  0.25410000  0.10040000  1
  H  H811  1  0.98980000  0.66310000  0.96050000  1
  H  H812  1  0.99070000  0.03160000  0.78090000  1
  H  H813  1  0.99410000  0.57850000  0.49900000  1
  H  H814  1  0.99440000  0.43230000  0.24920000  1
  H  H815  1  0.99650000  0.93090000  0.79970000  1
  C  C816  1  0.00030000  0.88350000  0.84916000  1
  C  C817  1  0.00040000  0.13230000  0.80630000  1
  C  C818  1  0.00160000  0.38440000  0.00550000  1
  C  C819  1  0.00170000  0.60150000  0.62104000  1
  C  C820  1  0.00430000  0.85820000  0.56890000  1
  C  C821  1  0.00700000  0.40360000  0.30520000  1
  C  C822  1  0.00870000  0.10100000  0.28805000  1
  C  C823  1  0.01120000  0.65220000  0.48084000  1
  C  C824  1  0.01280000  0.14950000  0.09913000  1
  C  C825  1  0.01950000  0.71140000  0.49150000  1
  C  C826  1  0.02190000  0.41350000  0.39280000  1
  C  C827  1  0.02340000  0.60520000  0.65105000  1
  C  C828  1  0.02410000  0.24940000  0.09240000  1
  C  C829  1  0.02430000  0.05070000  0.77720000  1
  C  C830  1  0.02510000  0.62010000  0.78109000  1
  C  C831  1  0.02530000  0.16410000  0.33006000  1
  C  C832  1  0.02860000  0.66620000  0.96360000  1
  C  C833  1  0.03140000  0.35250000  0.95720000  1
  C  C834  1  0.03880000  0.58070000  0.75778000  1
  C  C835  1  0.03920000  0.08590000  0.80247000  1
  C  C836  1  0.04230000  0.54890000  0.66188000  1
  C  C837  1  0.04800000  0.05180000  0.82824000  1
  C  C838  1  0.04860000  0.14100000  0.30293000  1
  C  C839  1  0.04890000  0.45770000  0.41188000  1
  C  C840  1  0.04970000  0.19910000  0.10402000  1
  C  C841  1  0.05070000  0.02430000  0.22280000  1
  C  C842  1  0.05180000  0.04800000  0.17176000  1
  C  C843  1  0.05640000  0.30200000  0.69920000  1
  C  C844  1  0.06030000  0.88640000  0.31080000  1
  C  C845  1  0.06230000  0.63480000  0.93730000  1
  C  C846  1  0.06620000  0.64940000  0.65290000  1
  C  C847  1  0.07040000  0.67070000  0.37780000  1
  C  C848  1  0.07350000  0.88590000  0.01420000  1
  C  C849  1  0.07860000  0.64860000  0.79301000  1
  C  C850  1  0.08070000  0.46120000  0.50778000  1
  C  C851  1  0.08190000  0.25570000  0.71938000  1
  C  C852  1  0.08390000  0.86780000  0.71898000  1
  C  C853  1  0.08590000  0.03920000  0.19753000  1
  C  C854  1  0.08650000  0.52190000  0.64280000  1
  C  C855  1  0.08710000  0.80750000  0.71115000  1
  C  C856  1  0.08920000  0.34410000  0.97030000  1
  C  C857  1  0.09090000  0.75050000  0.32650000  1
  C  C858  1  0.09640000  0.50700000  0.55520000  1
  C  C859  1  0.09860000  0.26790000  0.83650000  1
  C  C860  1  0.10100000  0.00870000  0.71195000  1
  C  C861  1  0.10140000  0.77540000  0.73699000  1
  C  C862  1  0.10150000  0.49830000  0.37104000  1
  C  C863  1  0.10330000  0.67220000  0.56930000  1
  C  C864  1  0.10360000  0.11420000  0.30750000  1
  C  C865  1  0.10520000  0.47660000  0.40105000  1
  C  C866  1  0.10730000  0.18950000  0.09240000  1
  C  C867  1  0.10870000  0.38940000  0.56350000  1
  C  C868  1  0.11060000  0.60870000  0.81350000  1
  C  C869  1  0.11360000  0.93970000  0.18920000  1
  C  C870  1  0.11410000  0.92650000  0.48580000  1
  C  C871  1  0.11420000  0.10360000  0.69250000  1
  C  C872  1  0.11560000  0.50160000  0.25550000  1
  C  C873  1  0.11650000  0.99970000  0.65084000  1
  C  C874  1  0.12010000  0.47490000  0.53109000  1
  C  C875  1  0.12030000  0.86110000  0.48650000  1
  C  C876  1  0.12250000  0.34540000  0.88990000  1
  C  C877  1  0.12390000  0.68870000  0.36544000  1
  C  C878  1  0.12500000  0.74860000  0.35430000  1
  C  C879  1  0.12550000  0.79930000  0.68707000  1
  C  C880  1  0.12660000  0.77670000  0.02610000  1
  C  C881  1  0.12830000  0.32580000  0.75063000  1
  C  C882  1  0.13220000  0.91610000  0.78102000  1
  C  C883  1  0.13230000  0.00040000  0.19370000  1
  C  C884  1  0.13480000  0.43770000  0.68730000  1
  C  C885  1  0.13500000  0.30280000  0.32814000  1
  C  C886  1  0.13590000  0.27500000  0.73208000  1
  C  C887  1  0.13890000  0.87970000  0.01350000  1
  C  C888  1  0.14100000  0.04860000  0.69707000  1
  C  C889  1  0.14180000  0.99570000  0.93110000  1
  C  C890  1  0.14570000  0.64860000  0.34300000  1
  C  C891  1  0.14750000  0.53140000  0.20720000  1
  C  C892  1  0.14860000  0.35430000  0.09300000  1
  C  C893  1  0.14860000  0.42140000  0.54301000  1
  C  C894  1  0.14940000  0.43380000  0.40290000  1
  C  C895  1  0.14950000  0.01280000  0.90087000  1
  C  C896  1  0.15150000  0.84530000  0.06410000  1
  C  C897  1  0.15220000  0.48880000  0.23084000  1
  C  C898  1  0.15320000  0.28650000  0.84859000  1
  C  C899  1  0.15460000  0.62250000  0.13990000  1
  C  C900  1  0.15470000  0.29410000  0.88032000  1
  C  C901  1  0.15470000  0.84850000  0.43590000  1
  C  C902  1  0.15590000  0.58920000  0.22030000  1
  C  C903  1  0.15640000  0.83350000  0.03310000  1
  C  C904  1  0.16110000  0.67020000  0.08360000  1
  C  C905  1  0.16410000  0.02530000  0.66994000  1
  C  C906  1  0.16580000  0.68200000  0.56604000  1
  C  C907  1  0.16620000  0.47140000  0.71360000  1
  C  C908  1  0.16650000  0.84360000  0.46690000  1
  C  C909  1  0.17020000  0.33890000  0.83360000  1
  C  C910  1  0.17070000  0.42960000  0.12780000  1
  C  C911  1  0.17070000  0.74530000  0.60930000  1
  C  C912  1  0.17220000  0.39670000  0.31930000  1
  C  C913  1  0.17420000  0.62830000  0.00063000  1
  C  C914  1  0.18060000  0.81430000  0.80705000  1
  C  C915  1  0.18130000  0.28150000  0.71024000  1
  C  C916  1  0.18200000  0.33420000  0.31604000  1
  C  C917  1  0.18320000  0.73830000  0.57789000  1
  C  C918  1  0.18570000  0.81940000  0.69295000  1
  C  C919  1  0.18870000  0.37610000  0.11544000  1
  C  C920  1  0.18950000  0.10730000  0.90760000  1
  C  C921  1  0.19250000  0.91290000  0.78885000  1
  C  C922  1  0.19720000  0.63500000  0.57814000  1
  C  C923  1  0.19800000  0.55640000  0.94920000  1
  C  C924  1  0.19910000  0.04970000  0.89598000  1
  C  C925  1  0.20070000  0.87450000  0.81293000  1
  C  C926  1  0.20590000  0.65470000  0.13032000  1
  C  C927  1  0.21140000  0.48050000  0.24150000  1
  C  C928  1  0.21350000  0.65320000  0.09859000  1
  C  C929  1  0.21850000  0.68130000  0.96024000  1
  C  C930  1  0.22330000  0.87340000  0.47390000  1
  C  C931  1  0.22460000  0.89860000  0.76301000  1
  C  C932  1  0.22500000  0.63590000  0.98208000  1
  C  C933  1  0.23210000  0.59860000  0.08650000  1
  C  C934  1  0.23830000  0.31680000  0.32789000  1
  C  C935  1  0.24430000  0.58190000  0.96938000  1
  C  C936  1  0.24530000  0.32930000  0.35930000  1
  C  C937  1  0.24860000  0.37500000  0.10430000  1
  C  C938  1  0.24940000  0.02410000  0.90760000  1
  C  C939  1  0.24950000  0.90910000  0.17350000  1
  C  C940  1  0.25050000  0.40910000  0.07650000  1
  C  C941  1  0.25060000  0.52410000  0.34240000  1
  C  C942  1  0.25140000  0.87500000  0.14570000  1
  C  C943  1  0.25470000  0.82930000  0.89070000  1
  C  C944  1  0.25570000  0.08190000  0.28062000  1
  C  C945  1  0.26170000  0.81680000  0.92211000  1
  C  C946  1  0.26790000  0.09860000  0.16350000  1
  C  C947  1  0.27500000  0.13590000  0.26792000  1
  C  C948  1  0.27540000  0.39860000  0.48699000  1
  C  C949  1  0.27670000  0.37340000  0.77610000  1
  C  C950  1  0.28150000  0.18130000  0.28976000  1
  C  C951  1  0.28650000  0.15320000  0.15141000  1
  C  C952  1  0.28860000  0.98050000  0.00850000  1
  C  C953  1  0.29410000  0.15470000  0.11968000  1
  C  C954  1  0.29930000  0.37450000  0.43707000  1
  C  C955  1  0.30090000  0.54970000  0.35402000  1
  C  C956  1  0.30200000  0.05640000  0.30080000  1
  C  C957  1  0.30280000  0.13500000  0.67186000  1
  C  C958  1  0.30750000  0.41290000  0.46115000  1
  C  C959  1  0.31050000  0.60730000  0.34240000  1
  C  C960  1  0.31130000  0.87610000  0.13456000  1
  C  C961  1  0.31430000  0.31940000  0.55705000  1
  C  C962  1  0.31680000  0.23830000  0.67211000  1
  C  C963  1  0.31800000  0.83420000  0.93396000  1
  C  C964  1  0.31870000  0.78150000  0.53976000  1
  C  C965  1  0.31940000  0.31430000  0.44295000  1
  C  C966  1  0.32580000  0.12830000  0.24937000  1
  C  C967  1  0.32780000  0.89670000  0.93070000  1
  C  C968  1  0.32930000  0.24530000  0.64070000  1
  C  C969  1  0.32930000  0.92960000  0.12220000  1
  C  C970  1  0.32980000  0.83890000  0.41640000  1
  C  C971  1  0.33350000  0.34360000  0.78310000  1
  C  C972  1  0.33380000  0.97140000  0.53640000  1
  C  C973  1  0.33420000  0.18200000  0.68396000  1
  C  C974  1  0.33590000  0.52530000  0.58006000  1
  C  C975  1  0.33890000  0.17020000  0.16640000  1
  C  C976  1  0.34360000  0.33350000  0.21690000  1
  C  C977  1  0.34410000  0.08920000  0.02970000  1
  C  C978  1  0.34530000  0.34850000  0.81410000  1
  C  C979  1  0.34530000  0.79410000  0.36968000  1
  C  C980  1  0.34540000  0.12250000  0.11010000  1
  C  C981  1  0.34680000  0.78650000  0.40141000  1
  C  C982  1  0.34780000  0.98880000  0.01916000  1
  C  C983  1  0.34850000  0.34530000  0.18590000  1
  C  C984  1  0.35050000  0.51280000  0.34913000  1
  C  C985  1  0.35060000  0.93380000  0.84710000  1
  C  C986  1  0.35140000  0.85430000  0.15700000  1
  C  C987  1  0.35140000  0.92140000  0.70699000  1
  C  C988  1  0.35250000  0.03140000  0.04280000  1
  C  C989  1  0.35430000  0.14860000  0.90700000  1
  C  C990  1  0.35820000  0.49570000  0.31890000  1
  C  C991  1  0.35900000  0.54860000  0.55293000  1
  C  C992  1  0.36110000  0.37970000  0.23650000  1
  C  C993  1  0.36410000  0.77500000  0.51792000  1
  C  C994  1  0.36500000  0.80280000  0.92186000  1
  C  C995  1  0.36520000  0.93770000  0.56270000  1
  C  C996  1  0.36770000  0.50040000  0.05630000  1
  C  C997  1  0.36780000  0.41610000  0.46898000  1
  C  C998  1  0.37170000  0.82580000  0.49937000  1
  C  C999  1  0.37340000  0.27670000  0.22390000  1
  C  C1000  1  0.37450000  0.29930000  0.56293000  1
  C  C1001  1  0.37500000  0.24860000  0.89570000  1
  C  C1002  1  0.37610000  0.18870000  0.88456000  1
  C  C1003  1  0.37750000  0.84540000  0.36010000  1
  C  C1004  1  0.37970000  0.36110000  0.76350000  1
  C  C1005  1  0.37990000  0.97490000  0.71891000  1
  C  C1006  1  0.38350000  0.49970000  0.59916000  1
  C  C1007  1  0.38440000  0.00160000  0.99450000  1
  C  C1008  1  0.38580000  0.60360000  0.55750000  1
  C  C1009  1  0.38590000  0.42650000  0.76420000  1
  C  C1010  1  0.38640000  0.43970000  0.06080000  1
  C  C1011  1  0.38940000  0.10870000  0.43650000  1
  C  C1012  1  0.39130000  0.88940000  0.68650000  1
  C  C1013  1  0.39270000  0.68950000  0.15760000  1
  C  C1014  1  0.39480000  0.97660000  0.84895000  1
  C  C1015  1  0.39640000  0.61420000  0.94250000  1
  C  C1016  1  0.39670000  0.17220000  0.68070000  1
  C  C1017  1  0.39850000  0.99830000  0.87896000  1
  C  C1018  1  0.39860000  0.27540000  0.51301000  1
  C  C1019  1  0.39900000  0.50870000  0.53805000  1
  C  C1020  1  0.40140000  0.76790000  0.41350000  1
  C  C1021  1  0.40360000  0.00700000  0.69480000  1
  C  C1022  1  0.40910000  0.25050000  0.92350000  1
  C  C1023  1  0.41080000  0.84410000  0.27970000  1
  C  C1024  1  0.41290000  0.30750000  0.53885000  1
  C  C1025  1  0.41350000  0.02190000  0.60720000  1
  C  C1026  1  0.41410000  0.53920000  0.05247000  1
  C  C1027  1  0.41610000  0.36780000  0.53102000  1
  C  C1028  1  0.41810000  0.75570000  0.53062000  1
  C  C1029  1  0.41930000  0.96120000  0.74222000  1
  C  C1030  1  0.42140000  0.14860000  0.45699000  1
  C  C1031  1  0.42650000  0.38590000  0.23580000  1
  C  C1032  1  0.42960000  0.17070000  0.87220000  1
  C  C1033  1  0.43380000  0.14940000  0.59710000  1
  C  C1034  1  0.43770000  0.13480000  0.31270000  1
  C  C1035  1  0.43970000  0.38640000  0.93920000  1
  C  C1036  1  0.44360000  0.80200000  0.55080000  1
  C  C1037  1  0.44820000  0.54800000  0.07824000  1
  C  C1038  1  0.44930000  0.52430000  0.02720000  1
  C  C1039  1  0.45030000  0.69910000  0.14598000  1
  C  C1040  1  0.45110000  0.95770000  0.83812000  1
  C  C1041  1  0.45140000  0.64100000  0.94707000  1
  C  C1042  1  0.45200000  0.55180000  0.42176000  1
  C  C1043  1  0.45770000  0.04890000  0.58812000  1
  C  C1044  1  0.46080000  0.58590000  0.44753000  1
  C  C1045  1  0.46120000  0.08070000  0.49222000  1
  C  C1046  1  0.46860000  0.85250000  0.29280000  1
  C  C1047  1  0.47140000  0.16620000  0.28640000  1
  C  C1048  1  0.47470000  0.66410000  0.91994000  1
  C  C1049  1  0.47490000  0.12010000  0.46891000  1
  C  C1050  1  0.47570000  0.55070000  0.47280000  1
  C  C1051  1  0.47590000  0.74940000  0.15760000  1
  C  C1052  1  0.47660000  0.10520000  0.59895000  1
  C  C1053  1  0.47810000  0.91350000  0.85720000  1
  C  C1054  1  0.48050000  0.21140000  0.75850000  1
  C  C1055  1  0.48720000  0.64950000  0.15087000  1
  C  C1056  1  0.48880000  0.15220000  0.76916000  1
  C  C1057  1  0.49130000  0.60100000  0.96195000  1
  C  C1058  1  0.49300000  0.90360000  0.94480000  1
  C  C1059  1  0.49570000  0.35820000  0.68110000  1
  C  C1060  1  0.49830000  0.10150000  0.62896000  1
  C  C1061  1  0.49840000  0.88440000  0.24450000  1
  C  C1062  1  0.49960000  0.63230000  0.44370000  1
  C  C1063  1  0.49970000  0.38350000  0.40084000  1
  C  C1064  1  0.50030000  0.61650000  0.90084000  1
  C  C1065  1  0.50040000  0.36770000  0.94370000  1
  C  C1066  1  0.50160000  0.11560000  0.74450000  1
  C  C1067  1  0.50170000  0.89850000  0.12896000  1
  C  C1068  1  0.50430000  0.64180000  0.18110000  1
  C  C1069  1  0.50700000  0.09640000  0.44480000  1
  C  C1070  1  0.50870000  0.39900000  0.46195000  1
  C  C1071  1  0.51120000  0.84780000  0.26916000  1
  C  C1072  1  0.51280000  0.35050000  0.65087000  1
  C  C1073  1  0.51950000  0.78860000  0.25850000  1
  C  C1074  1  0.52190000  0.08650000  0.35720000  1
  C  C1075  1  0.52340000  0.89480000  0.09895000  1
  C  C1076  1  0.52410000  0.25060000  0.65760000  1
  C  C1077  1  0.52430000  0.44930000  0.97280000  1
  C  C1078  1  0.52510000  0.87990000  0.96891000  1
  C  C1079  1  0.52530000  0.33590000  0.41994000  1
  C  C1080  1  0.52860000  0.83380000  0.78640000  1
  C  C1081  1  0.53140000  0.14750000  0.79280000  1
  C  C1082  1  0.53880000  0.91930000  0.99222000  1
  C  C1083  1  0.53920000  0.41410000  0.94753000  1
  C  C1084  1  0.54230000  0.95110000  0.08812000  1
  C  C1085  1  0.54800000  0.44820000  0.92176000  1
  C  C1086  1  0.54860000  0.35900000  0.44707000  1
  C  C1087  1  0.54890000  0.04230000  0.33812000  1
  C  C1088  1  0.54970000  0.30090000  0.64598000  1
  C  C1089  1  0.55070000  0.47570000  0.52720000  1
  C  C1090  1  0.55180000  0.45200000  0.57824000  1
  C  C1091  1  0.55640000  0.19800000  0.05080000  1
  C  C1092  1  0.56030000  0.61360000  0.43920000  1
  C  C1093  1  0.56230000  0.86520000  0.81270000  1
  C  C1094  1  0.56620000  0.85060000  0.09710000  1
  C  C1095  1  0.57040000  0.82930000  0.37220000  1
  C  C1096  1  0.57350000  0.61410000  0.73580000  1
  C  C1097  1  0.57860000  0.85140000  0.95699000  1
  C  C1098  1  0.58070000  0.03880000  0.24222000  1
  C  C1099  1  0.58190000  0.24430000  0.03062000  1
  C  C1100  1  0.58390000  0.63220000  0.03102000  1
  C  C1101  1  0.58590000  0.46080000  0.55247000  1
  C  C1102  1  0.58650000  0.97810000  0.10720000  1
  C  C1103  1  0.58710000  0.69250000  0.03885000  1
  C  C1104  1  0.58920000  0.15590000  0.77970000  1
  C  C1105  1  0.59090000  0.74950000  0.42350000  1
  C  C1106  1  0.59640000  0.99300000  0.19480000  1
  C  C1107  1  0.59860000  0.23210000  0.91350000  1
  C  C1108  1  0.60100000  0.49130000  0.03805000  1
  C  C1109  1  0.60140000  0.72460000  0.01301000  1
  C  C1110  1  0.60150000  0.00170000  0.37896000  1
  C  C1111  1  0.60330000  0.82780000  0.18070000  1
  C  C1112  1  0.60360000  0.38580000  0.44250000  1
  C  C1113  1  0.60520000  0.02340000  0.34895000  1
  C  C1114  1  0.60730000  0.31050000  0.65760000  1
  C  C1115  1  0.60870000  0.11060000  0.18650000  1
  C  C1116  1  0.61060000  0.89130000  0.93650000  1
  C  C1117  1  0.61360000  0.56030000  0.56080000  1
  C  C1118  1  0.61410000  0.57350000  0.26420000  1
  C  C1119  1  0.61420000  0.39640000  0.05750000  1
  C  C1120  1  0.61560000  0.99840000  0.49450000  1
  C  C1121  1  0.61650000  0.50030000  0.09916000  1
  C  C1122  1  0.62010000  0.02510000  0.21891000  1
  C  C1123  1  0.62030000  0.63890000  0.26350000  1
  C  C1124  1  0.62250000  0.15460000  0.86010000  1
  C  C1125  1  0.62390000  0.81130000  0.38456000  1
  C  C1126  1  0.62500000  0.75140000  0.39570000  1
  C  C1127  1  0.62550000  0.70070000  0.06293000  1
  C  C1128  1  0.62660000  0.72330000  0.72390000  1
  C  C1129  1  0.62830000  0.17420000  0.99937000  1
  C  C1130  1  0.63220000  0.58390000  0.96898000  1
  C  C1131  1  0.63230000  0.49960000  0.55630000  1
  C  C1132  1  0.63480000  0.06230000  0.06270000  1
  C  C1133  1  0.63500000  0.19720000  0.42186000  1
  C  C1134  1  0.63590000  0.22500000  0.01792000  1
  C  C1135  1  0.63890000  0.62030000  0.73650000  1
  C  C1136  1  0.64100000  0.45140000  0.05293000  1
  C  C1137  1  0.64180000  0.50430000  0.81890000  1
  C  C1138  1  0.64570000  0.85140000  0.40700000  1
  C  C1139  1  0.64750000  0.96860000  0.54280000  1
  C  C1140  1  0.64860000  0.07860000  0.20699000  1
  C  C1141  1  0.64860000  0.14570000  0.65700000  1
  C  C1142  1  0.64940000  0.06620000  0.34710000  1
  C  C1143  1  0.64950000  0.48720000  0.84913000  1
  C  C1144  1  0.65150000  0.65470000  0.68590000  1
  C  C1145  1  0.65220000  0.01120000  0.51916000  1
  C  C1146  1  0.65320000  0.21350000  0.90141000  1
  C  C1147  1  0.65460000  0.87750000  0.61010000  1
  C  C1148  1  0.65470000  0.20590000  0.86968000  1
  C  C1149  1  0.65470000  0.65150000  0.31410000  1
  C  C1150  1  0.65590000  0.91080000  0.52970000  1
  C  C1151  1  0.65640000  0.66650000  0.71690000  1
  C  C1152  1  0.66110000  0.82980000  0.66640000  1
  C  C1153  1  0.66410000  0.47470000  0.08006000  1
  C  C1154  1  0.66580000  0.81800000  0.18396000  1
  C  C1155  1  0.66620000  0.02860000  0.03640000  1
  C  C1156  1  0.66650000  0.65640000  0.28310000  1
  C  C1157  1  0.67020000  0.16110000  0.91640000  1
  C  C1158  1  0.67070000  0.07040000  0.62220000  1
  C  C1159  1  0.67070000  0.75470000  0.14070000  1
  C  C1160  1  0.67220000  0.10330000  0.43070000  1
  C  C1161  1  0.67420000  0.87170000  0.74937000  1
  C  C1162  1  0.68060000  0.68570000  0.94295000  1
  C  C1163  1  0.68130000  0.21850000  0.03976000  1
  C  C1164  1  0.68200000  0.16580000  0.43396000  1
  C  C1165  1  0.68320000  0.76170000  0.17211000  1
  C  C1166  1  0.68570000  0.68060000  0.05705000  1
  C  C1167  1  0.68870000  0.12390000  0.63456000  1
  C  C1168  1  0.68950000  0.39270000  0.84240000  1
  C  C1169  1  0.69250000  0.58710000  0.96115000  1
  C  C1170  1  0.69720000  0.86500000  0.17186000  1
  C  C1171  1  0.69800000  0.94360000  0.80080000  1
  C  C1172  1  0.69910000  0.45030000  0.85402000  1
  C  C1173  1  0.70070000  0.62550000  0.93707000  1
  C  C1174  1  0.70590000  0.84530000  0.61968000  1
  C  C1175  1  0.71140000  0.01950000  0.50850000  1
  C  C1176  1  0.71350000  0.84680000  0.65141000  1
  C  C1177  1  0.71850000  0.81870000  0.78976000  1
  C  C1178  1  0.72330000  0.62660000  0.27610000  1
  C  C1179  1  0.72460000  0.60140000  0.98699000  1
  C  C1180  1  0.72500000  0.86410000  0.76792000  1
  C  C1181  1  0.73210000  0.90140000  0.66350000  1
  C  C1182  1  0.73830000  0.18320000  0.42211000  1
  C  C1183  1  0.74430000  0.91810000  0.78062000  1
  C  C1184  1  0.74530000  0.17070000  0.39070000  1
  C  C1185  1  0.74860000  0.12500000  0.64570000  1
  C  C1186  1  0.74940000  0.47590000  0.84240000  1
  C  C1187  1  0.74950000  0.59090000  0.57650000  1
  C  C1188  1  0.75050000  0.09090000  0.67350000  1
  C  C1189  1  0.75060000  0.97590000  0.40760000  1
  C  C1190  1  0.75140000  0.62500000  0.60430000  1
  C  C1191  1  0.75470000  0.67070000  0.85930000  1
  C  C1192  1  0.75570000  0.41810000  0.46938000  1
  C  C1193  1  0.76170000  0.68320000  0.82789000  1
  C  C1194  1  0.76790000  0.40140000  0.58650000  1
  C  C1195  1  0.77500000  0.36410000  0.48208000  1
  C  C1196  1  0.77540000  0.10140000  0.26301000  1
  C  C1197  1  0.77670000  0.12660000  0.97390000  1
  C  C1198  1  0.78150000  0.31870000  0.46024000  1
  C  C1199  1  0.78650000  0.34680000  0.59859000  1
  C  C1200  1  0.78860000  0.51950000  0.74150000  1
  C  C1201  1  0.79410000  0.34530000  0.63032000  1
  C  C1202  1  0.79930000  0.12550000  0.31293000  1
  C  C1203  1  0.80090000  0.95030000  0.39598000  1
  C  C1204  1  0.80200000  0.44360000  0.44920000  1
  C  C1205  1  0.80280000  0.36500000  0.07814000  1
  C  C1206  1  0.80750000  0.08710000  0.28885000  1
  C  C1207  1  0.81050000  0.89270000  0.40760000  1
  C  C1208  1  0.81130000  0.62390000  0.61544000  1
  C  C1209  1  0.81430000  0.18060000  0.19295000  1
  C  C1210  1  0.81680000  0.26170000  0.07789000  1
  C  C1211  1  0.81800000  0.66580000  0.81604000  1
  C  C1212  1  0.81870000  0.71850000  0.21024000  1
  C  C1213  1  0.81940000  0.18570000  0.30705000  1
  C  C1214  1  0.82580000  0.37170000  0.50063000  1
  C  C1215  1  0.82780000  0.60330000  0.81930000  1
  C  C1216  1  0.82930000  0.25470000  0.10930000  1
  C  C1217  1  0.82930000  0.57040000  0.62780000  1
  C  C1218  1  0.82980000  0.66110000  0.33360000  1
  C  C1219  1  0.83350000  0.15640000  0.96690000  1
  C  C1220  1  0.83380000  0.52860000  0.21360000  1
  C  C1221  1  0.83420000  0.31800000  0.06604000  1
  C  C1222  1  0.83590000  0.97470000  0.16994000  1
  C  C1223  1  0.83890000  0.32980000  0.58360000  1
  C  C1224  1  0.84360000  0.16650000  0.53310000  1
  C  C1225  1  0.84410000  0.41080000  0.72030000  1
  C  C1226  1  0.84530000  0.15150000  0.93590000  1
  C  C1227  1  0.84530000  0.70590000  0.38032000  1
  C  C1228  1  0.84540000  0.37750000  0.63990000  1
  C  C1229  1  0.84680000  0.71350000  0.34859000  1
  C  C1230  1  0.84780000  0.51120000  0.73084000  1
  C  C1231  1  0.84850000  0.15470000  0.56410000  1
  C  C1232  1  0.85050000  0.98720000  0.40087000  1
  C  C1233  1  0.85060000  0.56620000  0.90290000  1
  C  C1234  1  0.85140000  0.57860000  0.04301000  1
  C  C1235  1  0.85140000  0.64570000  0.59300000  1
  C  C1236  1  0.85250000  0.46860000  0.70720000  1
  C  C1237  1  0.85430000  0.35140000  0.84300000  1
  C  C1238  1  0.85820000  0.00430000  0.43110000  1
  C  C1239  1  0.85900000  0.95140000  0.19707000  1
  C  C1240  1  0.86110000  0.12030000  0.51350000  1
  C  C1241  1  0.86410000  0.72500000  0.23208000  1
  C  C1242  1  0.86500000  0.69720000  0.82814000  1
  C  C1243  1  0.86520000  0.56230000  0.18730000  1
  C  C1244  1  0.86770000  0.99960000  0.69370000  1
  C  C1245  1  0.86780000  0.08390000  0.28102000  1
  C  C1246  1  0.87170000  0.67420000  0.25063000  1
  C  C1247  1  0.87340000  0.22330000  0.52610000  1
  C  C1248  1  0.87450000  0.20070000  0.18707000  1
  C  C1249  1  0.87500000  0.25140000  0.85430000  1
  C  C1250  1  0.87610000  0.31130000  0.86544000  1
  C  C1251  1  0.87750000  0.65460000  0.38990000  1
  C  C1252  1  0.87970000  0.13890000  0.98650000  1
  C  C1253  1  0.87990000  0.52510000  0.03109000  1
  C  C1254  1  0.88350000  0.00030000  0.15084000  1
  C  C1255  1  0.88440000  0.49840000  0.75550000  1
  C  C1256  1  0.88580000  0.89640000  0.19250000  1
  C  C1257  1  0.88590000  0.07350000  0.98580000  1
  C  C1258  1  0.88640000  0.06030000  0.68920000  1
  C  C1259  1  0.88940000  0.39130000  0.31350000  1
  C  C1260  1  0.89130000  0.61060000  0.06350000  1
  C  C1261  1  0.89270000  0.81050000  0.59240000  1
  C  C1262  1  0.89480000  0.52340000  0.90105000  1
  C  C1263  1  0.89640000  0.88580000  0.80750000  1
  C  C1264  1  0.89670000  0.32780000  0.06930000  1
  C  C1265  1  0.89850000  0.50170000  0.87104000  1
  C  C1266  1  0.89860000  0.22460000  0.23699000  1
  C  C1267  1  0.89900000  0.99130000  0.21195000  1
  C  C1268  1  0.90140000  0.73210000  0.33650000  1
  C  C1269  1  0.90360000  0.49300000  0.05520000  1
  C  C1270  1  0.90910000  0.24950000  0.82650000  1
  C  C1271  1  0.91080000  0.65590000  0.47030000  1
  C  C1272  1  0.91290000  0.19250000  0.21115000  1
  C  C1273  1  0.91350000  0.47810000  0.14280000  1
  C  C1274  1  0.91410000  0.96080000  0.69753000  1
  C  C1275  1  0.91610000  0.13220000  0.21898000  1
  C  C1276  1  0.91810000  0.74430000  0.21938000  1
  C  C1277  1  0.91930000  0.53880000  0.00778000  1
  C  C1278  1  0.92140000  0.35140000  0.29301000  1
  C  C1279  1  0.92650000  0.11410000  0.51420000  1
  C  C1280  1  0.92960000  0.32930000  0.87780000  1
  C  C1281  1  0.93380000  0.35060000  0.15290000  1
  C  C1282  1  0.93770000  0.36520000  0.43730000  1
  C  C1283  1  0.93970000  0.11360000  0.81080000  1
  C  C1284  1  0.94360000  0.69800000  0.19920000  1
  C  C1285  1  0.94820000  0.95200000  0.67176000  1
  C  C1286  1  0.94930000  0.97570000  0.72280000  1
  C  C1287  1  0.95030000  0.80090000  0.60402000  1
  C  C1288  1  0.95110000  0.54230000  0.91188000  1
  C  C1289  1  0.95140000  0.85900000  0.80293000  1
  C  C1290  1  0.95200000  0.94820000  0.32824000  1
  C  C1291  1  0.95770000  0.45110000  0.16188000  1
  C  C1292  1  0.96080000  0.91410000  0.30247000  1
  C  C1293  1  0.96120000  0.41930000  0.25778000  1
  C  C1294  1  0.96860000  0.64750000  0.45720000  1
  C  C1295  1  0.97140000  0.33380000  0.46360000  1
  C  C1296  1  0.97470000  0.83590000  0.83006000  1
  C  C1297  1  0.97490000  0.37990000  0.28109000  1
  C  C1298  1  0.97570000  0.94930000  0.27720000  1
  C  C1299  1  0.97590000  0.75060000  0.59240000  1
  C  C1300  1  0.97660000  0.39480000  0.15105000  1
  C  C1301  1  0.97810000  0.58650000  0.89280000  1
  C  C1302  1  0.98050000  0.28860000  0.99150000  1
  C  C1303  1  0.98720000  0.85050000  0.59913000  1
  C  C1304  1  0.98880000  0.34780000  0.98084000  1
  C  C1305  1  0.99130000  0.89900000  0.78805000  1
  C  C1306  1  0.99300000  0.59640000  0.80520000  1
  C  C1307  1  0.99570000  0.14180000  0.06890000  1
  C  C1308  1  0.99830000  0.39850000  0.12104000  1
  C  C1309  1  0.99840000  0.61560000  0.50550000  1
  C  C1310  1  0.99960000  0.86770000  0.30630000  1
  C  C1311  1  0.99970000  0.11650000  0.34916000  1
  S  S1312  1  0.01334000  0.32247000  0.26540000  1
  S  S1313  1  0.01955000  0.78565000  0.69756000  1
  S  S1314  1  0.03340000  0.37577000  0.17521000  1
  S  S1315  1  0.05595000  0.20590000  0.14264000  1
  S  S1316  1  0.05738000  0.20134000  0.27940000  1
  S  S1317  1  0.07610000  0.62913000  0.46366000  1
  S  S1318  1  0.10465000  0.12083000  0.79345000  1
  S  S1319  1  0.12083000  0.10465000  0.20655000  1
  S  S1320  1  0.12423000  0.53340000  0.42521000  1
  S  S1321  1  0.12913000  0.42390000  0.21366000  1
  S  S1322  1  0.15451000  0.21651000  0.75529000  1
  S  S1323  1  0.17549000  0.77081000  0.47583000  1
  S  S1324  1  0.17599000  0.69066000  0.39416000  1
  S  S1325  1  0.17753000  0.51334000  0.51540000  1
  S  S1326  1  0.18271000  0.68855000  0.52777000  1
  S  S1327  1  0.18855000  0.31729000  0.27777000  1
  S  S1328  1  0.19066000  0.32401000  0.14416000  1
  S  S1329  1  0.20134000  0.05738000  0.72060000  1
  S  S1330  1  0.20376000  0.23224000  0.84056000  1
  S  S1331  1  0.20590000  0.05595000  0.85736000  1
  S  S1332  1  0.21435000  0.98045000  0.80244000  1
  S  S1333  1  0.21651000  0.15451000  0.24471000  1
  S  S1334  1  0.22919000  0.82451000  0.02417000  1
  S  S1335  1  0.23224000  0.20376000  0.15944000  1
  S  S1336  1  0.26776000  0.70376000  0.09056000  1
  S  S1337  1  0.27081000  0.32451000  0.22583000  1
  S  S1338  1  0.28349000  0.65451000  0.00529000  1
  S  S1339  1  0.28565000  0.48045000  0.44756000  1
  S  S1340  1  0.29410000  0.55595000  0.39264000  1
  S  S1341  1  0.29624000  0.73224000  0.40944000  1
  S  S1342  1  0.29866000  0.55738000  0.52940000  1
  S  S1343  1  0.30934000  0.82401000  0.10584000  1
  S  S1344  1  0.31145000  0.81729000  0.97223000  1
  S  S1345  1  0.31729000  0.18855000  0.72223000  1
  S  S1346  1  0.32247000  0.01334000  0.73460000  1
  S  S1347  1  0.32401000  0.19066000  0.85584000  1
  S  S1348  1  0.32451000  0.27081000  0.77417000  1
  S  S1349  1  0.34549000  0.71651000  0.49471000  1
  S  S1350  1  0.37087000  0.92390000  0.03634000  1
  S  S1351  1  0.37577000  0.03340000  0.82479000  1
  S  S1352  1  0.37917000  0.60465000  0.04345000  1
  S  S1353  1  0.39535000  0.62083000  0.45655000  1
  S  S1354  1  0.42390000  0.12913000  0.78634000  1
  S  S1355  1  0.44262000  0.70134000  0.97060000  1
  S  S1356  1  0.44405000  0.70590000  0.10736000  1
  S  S1357  1  0.46660000  0.87577000  0.07479000  1
  S  S1358  1  0.48045000  0.28565000  0.55244000  1
  S  S1359  1  0.48666000  0.82247000  0.98460000  1
  S  S1360  1  0.51334000  0.17753000  0.48460000  1
  S  S1361  1  0.51955000  0.71435000  0.05244000  1
  S  S1362  1  0.53340000  0.12423000  0.57479000  1
  S  S1363  1  0.55595000  0.29410000  0.60736000  1
  S  S1364  1  0.55738000  0.29866000  0.47060000  1
  S  S1365  1  0.57610000  0.87087000  0.28634000  1
  S  S1366  1  0.60465000  0.37917000  0.95655000  1
  S  S1367  1  0.62083000  0.39535000  0.54345000  1
  S  S1368  1  0.62423000  0.96660000  0.32479000  1
  S  S1369  1  0.62913000  0.07610000  0.53634000  1
  S  S1370  1  0.65451000  0.28349000  0.99471000  1
  S  S1371  1  0.67549000  0.72919000  0.27417000  1
  S  S1372  1  0.67599000  0.80934000  0.35584000  1
  S  S1373  1  0.67753000  0.98666000  0.23460000  1
  S  S1374  1  0.68271000  0.81145000  0.22223000  1
  S  S1375  1  0.68855000  0.18271000  0.47223000  1
  S  S1376  1  0.69066000  0.17599000  0.60584000  1
  S  S1377  1  0.70134000  0.44262000  0.02940000  1
  S  S1378  1  0.70376000  0.26776000  0.90944000  1
  S  S1379  1  0.70590000  0.44405000  0.89264000  1
  S  S1380  1  0.71435000  0.51955000  0.94756000  1
  S  S1381  1  0.71651000  0.34549000  0.50529000  1
  S  S1382  1  0.72919000  0.67549000  0.72583000  1
  S  S1383  1  0.73224000  0.29624000  0.59056000  1
  S  S1384  1  0.76776000  0.79624000  0.65944000  1
  S  S1385  1  0.77081000  0.17549000  0.52417000  1
  S  S1386  1  0.78349000  0.84549000  0.74471000  1
  S  S1387  1  0.78565000  0.01955000  0.30244000  1
  S  S1388  1  0.79410000  0.94405000  0.35736000  1
  S  S1389  1  0.79624000  0.76776000  0.34056000  1
  S  S1390  1  0.79866000  0.94262000  0.22060000  1
  S  S1391  1  0.80934000  0.67599000  0.64416000  1
  S  S1392  1  0.81145000  0.68271000  0.77777000  1
  S  S1393  1  0.81729000  0.31145000  0.02777000  1
  S  S1394  1  0.82247000  0.48666000  0.01540000  1
  S  S1395  1  0.82401000  0.30934000  0.89416000  1
  S  S1396  1  0.82451000  0.22919000  0.97583000  1
  S  S1397  1  0.84549000  0.78349000  0.25529000  1
  S  S1398  1  0.87087000  0.57610000  0.71366000  1
  S  S1399  1  0.87577000  0.46660000  0.92521000  1
  S  S1400  1  0.87917000  0.89535000  0.70655000  1
  S  S1401  1  0.89535000  0.87917000  0.29345000  1
  S  S1402  1  0.92390000  0.37087000  0.96366000  1
  S  S1403  1  0.94262000  0.79866000  0.77940000  1
  S  S1404  1  0.94405000  0.79410000  0.64264000  1
  S  S1405  1  0.96660000  0.62423000  0.67521000  1
  S  S1406  1  0.98045000  0.21435000  0.19756000  1
  S  S1407  1  0.98666000  0.67753000  0.76540000  1
  N  N1408  1  0.00080000  0.17070000  0.78144000  1
  N  N1409  1  0.00550000  0.48760000  0.16503000  1
  N  N1410  1  0.01240000  0.50550000  0.41503000  1
  N  N1411  1  0.01880000  0.79580000  0.82435000  1
  N  N1412  1  0.02860000  0.40660000  0.94434000  1
  N  N1413  1  0.03710000  0.84650000  0.61743000  1
  N  N1414  1  0.04350000  0.23900000  0.74053000  1
  N  N1415  1  0.06410000  0.69930000  0.80904000  1
  N  N1416  1  0.09340000  0.52860000  0.19434000  1
  N  N1417  1  0.10340000  0.82760000  0.66133000  1
  N  N1418  1  0.13240000  0.84620000  0.51635000  1
  N  N1419  1  0.15350000  0.96290000  0.88257000  1
  N  N1420  1  0.15380000  0.86760000  0.98365000  1
  N  N1421  1  0.15760000  0.78330000  0.56148000  1
  N  N1422  1  0.17070000  0.00080000  0.21856000  1
  N  N1423  1  0.17240000  0.89660000  0.83867000  1
  N  N1424  1  0.18310000  0.76570000  0.34837000  1
  N  N1425  1  0.19930000  0.43590000  0.55904000  1
  N  N1426  1  0.20280000  0.71270000  0.14012000  1
  N  N1427  1  0.20420000  0.98120000  0.67565000  1
  N  N1428  1  0.21270000  0.29720000  0.89012000  1
  N  N1429  1  0.21670000  0.84240000  0.93852000  1
  N  N1430  1  0.23430000  0.81690000  0.15163000  1
  N  N1431  1  0.23900000  0.04350000  0.25947000  1
  N  N1432  1  0.26100000  0.54350000  0.99053000  1
  N  N1433  1  0.26570000  0.31690000  0.09837000  1
  N  N1434  1  0.28330000  0.34240000  0.31148000  1
  N  N1435  1  0.28730000  0.79720000  0.35988000  1
  N  N1436  1  0.29580000  0.48120000  0.57435000  1
  N  N1437  1  0.29720000  0.21270000  0.10988000  1
  N  N1438  1  0.30070000  0.93590000  0.69096000  1
  N  N1439  1  0.31690000  0.26570000  0.90163000  1
  N  N1440  1  0.32760000  0.39660000  0.41133000  1
  N  N1441  1  0.32930000  0.50080000  0.03144000  1
  N  N1442  1  0.34240000  0.28330000  0.68852000  1
  N  N1443  1  0.34620000  0.36760000  0.26635000  1
  N  N1444  1  0.34650000  0.46290000  0.36743000  1
  N  N1445  1  0.36760000  0.34620000  0.73365000  1
  N  N1446  1  0.39660000  0.32760000  0.58867000  1
  N  N1447  1  0.40660000  0.02860000  0.05566000  1
  N  N1448  1  0.43590000  0.19930000  0.44096000  1
  N  N1449  1  0.45650000  0.73900000  0.50947000  1
  N  N1450  1  0.46290000  0.34650000  0.63257000  1
  N  N1451  1  0.47140000  0.90660000  0.30566000  1
  N  N1452  1  0.48120000  0.29580000  0.42565000  1
  N  N1453  1  0.48760000  0.00550000  0.83497000  1
  N  N1454  1  0.49450000  0.98760000  0.08497000  1
  N  N1455  1  0.49920000  0.67070000  0.46856000  1
  N  N1456  1  0.50080000  0.32930000  0.96856000  1
  N  N1457  1  0.50550000  0.01240000  0.58497000  1
  N  N1458  1  0.51240000  0.99450000  0.33497000  1
  N  N1459  1  0.51880000  0.70420000  0.92565000  1
  N  N1460  1  0.52860000  0.09340000  0.80566000  1
  N  N1461  1  0.53710000  0.65350000  0.13257000  1
  N  N1462  1  0.54350000  0.26100000  0.00947000  1
  N  N1463  1  0.56410000  0.80070000  0.94096000  1
  N  N1464  1  0.59340000  0.97140000  0.55566000  1
  N  N1465  1  0.60340000  0.67240000  0.08867000  1
  N  N1466  1  0.63240000  0.65380000  0.23365000  1
  N  N1467  1  0.65350000  0.53710000  0.86743000  1
  N  N1468  1  0.65380000  0.63240000  0.76635000  1
  N  N1469  1  0.65760000  0.71670000  0.18852000  1
  N  N1470  1  0.67070000  0.49920000  0.53144000  1
  N  N1471  1  0.67240000  0.60340000  0.91133000  1
  N  N1472  1  0.68310000  0.73430000  0.40163000  1
  N  N1473  1  0.69930000  0.06410000  0.19096000  1
  N  N1474  1  0.70280000  0.78730000  0.60988000  1
  N  N1475  1  0.70420000  0.51880000  0.07435000  1
  N  N1476  1  0.71270000  0.20280000  0.85988000  1
  N  N1477  1  0.71670000  0.65760000  0.81148000  1
  N  N1478  1  0.73430000  0.68310000  0.59837000  1
  N  N1479  1  0.73900000  0.45650000  0.49053000  1
  N  N1480  1  0.76100000  0.95650000  0.75947000  1
  N  N1481  1  0.76570000  0.18310000  0.65163000  1
  N  N1482  1  0.78330000  0.15760000  0.43852000  1
  N  N1483  1  0.78730000  0.70280000  0.39012000  1
  N  N1484  1  0.79580000  0.01880000  0.17565000  1
  N  N1485  1  0.79720000  0.28730000  0.64012000  1
  N  N1486  1  0.80070000  0.56410000  0.05904000  1
  N  N1487  1  0.81690000  0.23430000  0.84837000  1
  N  N1488  1  0.82760000  0.10340000  0.33867000  1
  N  N1489  1  0.82930000  0.99920000  0.71856000  1
  N  N1490  1  0.84240000  0.21670000  0.06148000  1
  N  N1491  1  0.84620000  0.13240000  0.48365000  1
  N  N1492  1  0.84650000  0.03710000  0.38257000  1
  N  N1493  1  0.86760000  0.15380000  0.01635000  1
  N  N1494  1  0.89660000  0.17240000  0.16133000  1
  N  N1495  1  0.90660000  0.47140000  0.69434000  1
  N  N1496  1  0.93590000  0.30070000  0.30904000  1
  N  N1497  1  0.95650000  0.76100000  0.24053000  1
  N  N1498  1  0.96290000  0.15350000  0.11743000  1
  N  N1499  1  0.97140000  0.59340000  0.44434000  1
  N  N1500  1  0.98120000  0.20420000  0.32435000  1
  N  N1501  1  0.98760000  0.49450000  0.91503000  1
  N  N1502  1  0.99450000  0.51240000  0.66503000  1
  N  N1503  1  0.99920000  0.82930000  0.28144000  1
  O  O1504  1  0.01300000  0.32400000  0.70806000  1
  O  O1505  1  0.02140000  0.57220000  0.88042000  1
  O  O1506  1  0.03080000  0.12120000  0.05239000  1
  O  O1507  1  0.03490000  0.08940000  0.36250000  1
  O  O1508  1  0.04110000  0.75080000  0.32770000  1
  O  O1509  1  0.04420000  0.36810000  0.39161000  1
  O  O1510  1  0.04610000  0.87090000  0.99330000  1
  O  O1511  1  0.05020000  0.88860000  0.84960000  1
  O  O1512  1  0.05150000  0.84050000  0.56093000  1
  O  O1513  1  0.05560000  0.91080000  0.03620000  1
  O  O1514  1  0.06670000  0.58710000  0.93706000  1
  O  O1515  1  0.06900000  0.36750000  0.55245000  1
  O  O1516  1  0.07110000  0.34160000  0.89030000  1
  O  O1517  1  0.07140000  0.89950000  0.33700000  1
  O  O1518  1  0.07220000  0.47860000  0.63042000  1
  O  O1519  1  0.08120000  0.31250000  0.67730000  1
  O  O1520  1  0.08630000  0.66840000  0.91450000  1
  O  O1521  1  0.08710000  0.43330000  0.68706000  1
  O  O1522  1  0.08910000  0.89060000  0.28850000  1
  O  O1523  1  0.08920000  0.94440000  0.46380000  1
  O  O1524  1  0.08940000  0.03490000  0.63750000  1
  O  O1525  1  0.10050000  0.92860000  0.16300000  1
  O  O1526  1  0.10700000  0.30040000  0.97480000  1
  O  O1527  1  0.10850000  0.61850000  0.83878000  1
  O  O1528  1  0.10940000  0.91090000  0.21150000  1
  O  O1529  1  0.11140000  0.94980000  0.65040000  1
  O  O1530  1  0.11350000  0.64940000  0.14559000  1
  O  O1531  1  0.11480000  0.61690000  0.22300000  1
  O  O1532  1  0.11540000  0.75500000  0.30420000  1
  O  O1533  1  0.11690000  0.38520000  0.97300000  1
  O  O1534  1  0.11850000  0.39150000  0.58878000  1
  O  O1535  1  0.12120000  0.03080000  0.94761000  1
  O  O1536  1  0.12560000  0.76700000  0.61482000  1
  O  O1537  1  0.12910000  0.95390000  0.50670000  1
  O  O1538  1  0.13190000  0.54420000  0.64161000  1
  O  O1539  1  0.13250000  0.56900000  0.80245000  1
  O  O1540  1  0.13710000  0.79860000  0.81571000  1
  O  O1541  1  0.14940000  0.38650000  0.89559000  1
  O  O1542  1  0.15840000  0.57110000  0.14030000  1
  O  O1543  1  0.15950000  0.94850000  0.93907000  1
  O  O1544  1  0.16840000  0.41370000  0.66450000  1
  O  O1545  1  0.17600000  0.51300000  0.95806000  1
  O  O1546  1  0.18750000  0.58120000  0.92730000  1
  O  O1547  1  0.19960000  0.60700000  0.22480000  1
  O  O1548  1  0.20140000  0.86290000  0.68429000  1
  O  O1549  1  0.20320000  0.72330000  0.62615000  1
  O  O1550  1  0.21340000  0.78430000  0.70622000  1
  O  O1551  1  0.21570000  0.78660000  0.79378000  1
  O  O1552  1  0.22330000  0.29680000  0.37615000  1
  O  O1553  1  0.23300000  0.87440000  0.88518000  1
  O  O1554  1  0.24500000  0.88460000  0.19580000  1
  O  O1555  1  0.24920000  0.95890000  0.17230000  1
  O  O1556  1  0.25080000  0.45890000  0.07770000  1
  O  O1557  1  0.25500000  0.38460000  0.05420000  1
  O  O1558  1  0.26700000  0.37440000  0.36482000  1
  O  O1559  1  0.27670000  0.79680000  0.87385000  1
  O  O1560  1  0.28430000  0.28660000  0.45622000  1
  O  O1561  1  0.28660000  0.28430000  0.54378000  1
  O  O1562  1  0.29680000  0.22330000  0.62385000  1
  O  O1563  1  0.29860000  0.36290000  0.56571000  1
  O  O1564  1  0.30040000  0.10700000  0.02520000  1
  O  O1565  1  0.31250000  0.08120000  0.32270000  1
  O  O1566  1  0.32400000  0.01300000  0.29194000  1
  O  O1567  1  0.33160000  0.91370000  0.58550000  1
  O  O1568  1  0.34050000  0.44850000  0.31093000  1
  O  O1569  1  0.34160000  0.07110000  0.10970000  1
  O  O1570  1  0.35060000  0.88650000  0.35441000  1
  O  O1571  1  0.36290000  0.29860000  0.43429000  1
  O  O1572  1  0.36750000  0.06900000  0.44755000  1
  O  O1573  1  0.36810000  0.04420000  0.60839000  1
  O  O1574  1  0.37090000  0.45390000  0.74330000  1
  O  O1575  1  0.37440000  0.26700000  0.63518000  1
  O  O1576  1  0.37880000  0.53080000  0.30239000  1
  O  O1577  1  0.38150000  0.89150000  0.66122000  1
  O  O1578  1  0.38310000  0.88520000  0.27700000  1
  O  O1579  1  0.38460000  0.25500000  0.94580000  1
  O  O1580  1  0.38520000  0.11690000  0.02700000  1
  O  O1581  1  0.38650000  0.14940000  0.10441000  1
  O  O1582  1  0.38860000  0.44980000  0.59960000  1
  O  O1583  1  0.39060000  0.41090000  0.03850000  1
  O  O1584  1  0.39150000  0.11850000  0.41122000  1
  O  O1585  1  0.39300000  0.80040000  0.27520000  1
  O  O1586  1  0.39950000  0.42860000  0.08700000  1
  O  O1587  1  0.41060000  0.53490000  0.61250000  1
  O  O1588  1  0.41080000  0.44440000  0.78620000  1
  O  O1589  1  0.41090000  0.39060000  0.96150000  1
  O  O1590  1  0.41290000  0.93330000  0.56294000  1
  O  O1591  1  0.41370000  0.16840000  0.33550000  1
  O  O1592  1  0.41880000  0.81250000  0.57270000  1
  O  O1593  1  0.42780000  0.97860000  0.61958000  1
  O  O1594  1  0.42860000  0.39950000  0.91300000  1
  O  O1595  1  0.42890000  0.84160000  0.35970000  1
  O  O1596  1  0.43100000  0.86750000  0.69755000  1
  O  O1597  1  0.43330000  0.08710000  0.31294000  1
  O  O1598  1  0.44440000  0.41080000  0.21380000  1
  O  O1599  1  0.44850000  0.34050000  0.68907000  1
  O  O1600  1  0.44980000  0.38860000  0.40040000  1
  O  O1601  1  0.45390000  0.37090000  0.25670000  1
  O  O1602  1  0.45580000  0.86810000  0.85839000  1
  O  O1603  1  0.45890000  0.25080000  0.92230000  1
  O  O1604  1  0.46510000  0.58940000  0.88750000  1
  O  O1605  1  0.46920000  0.62120000  0.19761000  1
  O  O1606  1  0.47860000  0.07220000  0.36958000  1
  O  O1607  1  0.48700000  0.82400000  0.54194000  1
  O  O1608  1  0.51300000  0.17600000  0.04194000  1
  O  O1609  1  0.52140000  0.92780000  0.86958000  1
  O  O1610  1  0.53080000  0.37880000  0.69761000  1
  O  O1611  1  0.53490000  0.41060000  0.38750000  1
  O  O1612  1  0.54110000  0.74920000  0.42230000  1
  O  O1613  1  0.54420000  0.13190000  0.35839000  1
  O  O1614  1  0.54610000  0.62910000  0.75670000  1
  O  O1615  1  0.55020000  0.61140000  0.90040000  1
  O  O1616  1  0.55150000  0.65950000  0.18907000  1
  O  O1617  1  0.55560000  0.58920000  0.71380000  1
  O  O1618  1  0.56670000  0.91290000  0.81294000  1
  O  O1619  1  0.56900000  0.13250000  0.19755000  1
  O  O1620  1  0.57110000  0.15840000  0.85970000  1
  O  O1621  1  0.57140000  0.60050000  0.41300000  1
  O  O1622  1  0.57220000  0.02140000  0.11958000  1
  O  O1623  1  0.58120000  0.18750000  0.07270000  1
  O  O1624  1  0.58630000  0.83160000  0.83550000  1
  O  O1625  1  0.58710000  0.06670000  0.06294000  1
  O  O1626  1  0.58910000  0.60940000  0.46150000  1
  O  O1627  1  0.58920000  0.55560000  0.28620000  1
  O  O1628  1  0.58940000  0.46510000  0.11250000  1
  O  O1629  1  0.60050000  0.57140000  0.58700000  1
  O  O1630  1  0.60700000  0.19960000  0.77520000  1
  O  O1631  1  0.60850000  0.88150000  0.91122000  1
  O  O1632  1  0.60940000  0.58910000  0.53850000  1
  O  O1633  1  0.61140000  0.55020000  0.09960000  1
  O  O1634  1  0.61350000  0.85060000  0.60441000  1
  O  O1635  1  0.61480000  0.88310000  0.52700000  1
  O  O1636  1  0.61540000  0.74500000  0.44580000  1
  O  O1637  1  0.61690000  0.11480000  0.77700000  1
  O  O1638  1  0.61850000  0.10850000  0.16122000  1
  O  O1639  1  0.62120000  0.46920000  0.80239000  1
  O  O1640  1  0.62560000  0.73300000  0.13518000  1
  O  O1641  1  0.62910000  0.54610000  0.24330000  1
  O  O1642  1  0.63190000  0.95580000  0.10839000  1
  O  O1643  1  0.63250000  0.93100000  0.94755000  1
  O  O1644  1  0.63710000  0.70140000  0.93429000  1
  O  O1645  1  0.64940000  0.11350000  0.85441000  1
  O  O1646  1  0.65840000  0.92890000  0.60970000  1
  O  O1647  1  0.65950000  0.55150000  0.81093000  1
  O  O1648  1  0.66840000  0.08630000  0.08550000  1
  O  O1649  1  0.67600000  0.98700000  0.79194000  1
  O  O1650  1  0.68750000  0.91880000  0.82270000  1
  O  O1651  1  0.69960000  0.89300000  0.52520000  1
  O  O1652  1  0.70140000  0.63710000  0.06571000  1
  O  O1653  1  0.70320000  0.77670000  0.12385000  1
  O  O1654  1  0.71340000  0.71570000  0.04378000  1
  O  O1655  1  0.71570000  0.71340000  0.95622000  1
  O  O1656  1  0.72330000  0.20320000  0.37385000  1
  O  O1657  1  0.73300000  0.62560000  0.86482000  1
  O  O1658  1  0.74500000  0.61540000  0.55420000  1
  O  O1659  1  0.74920000  0.54110000  0.57770000  1
  O  O1660  1  0.75080000  0.04110000  0.67230000  1
  O  O1661  1  0.75500000  0.11540000  0.69580000  1
  O  O1662  1  0.76700000  0.12560000  0.38518000  1
  O  O1663  1  0.77670000  0.70320000  0.87615000  1
  O  O1664  1  0.78430000  0.21340000  0.29378000  1
  O  O1665  1  0.78660000  0.21570000  0.20622000  1
  O  O1666  1  0.79680000  0.27670000  0.12615000  1
  O  O1667  1  0.79860000  0.13710000  0.18429000  1
  O  O1668  1  0.80040000  0.39300000  0.72480000  1
  O  O1669  1  0.81250000  0.41880000  0.42730000  1
  O  O1670  1  0.82400000  0.48700000  0.45806000  1
  O  O1671  1  0.83160000  0.58630000  0.16450000  1
  O  O1672  1  0.84050000  0.05150000  0.43907000  1
  O  O1673  1  0.84160000  0.42890000  0.64030000  1
  O  O1674  1  0.85060000  0.61350000  0.39559000  1
  O  O1675  1  0.86290000  0.20140000  0.31571000  1
  O  O1676  1  0.86750000  0.43100000  0.30245000  1
  O  O1677  1  0.86810000  0.45580000  0.14161000  1
  O  O1678  1  0.87090000  0.04610000  0.00670000  1
  O  O1679  1  0.87440000  0.23300000  0.11482000  1
  O  O1680  1  0.87880000  0.96920000  0.44761000  1
  O  O1681  1  0.88150000  0.60850000  0.08878000  1
  O  O1682  1  0.88310000  0.61480000  0.47300000  1
  O  O1683  1  0.88460000  0.24500000  0.80420000  1
  O  O1684  1  0.88520000  0.38310000  0.72300000  1
  O  O1685  1  0.88650000  0.35060000  0.64559000  1
  O  O1686  1  0.88860000  0.05020000  0.15040000  1
  O  O1687  1  0.89060000  0.08910000  0.71150000  1
  O  O1688  1  0.89150000  0.38150000  0.33878000  1
  O  O1689  1  0.89300000  0.69960000  0.47480000  1
  O  O1690  1  0.89950000  0.07140000  0.66300000  1
  O  O1691  1  0.91060000  0.96510000  0.13750000  1
  O  O1692  1  0.91080000  0.05560000  0.96380000  1
  O  O1693  1  0.91090000  0.10940000  0.78850000  1
  O  O1694  1  0.91290000  0.56670000  0.18706000  1
  O  O1695  1  0.91370000  0.33160000  0.41450000  1
  O  O1696  1  0.91880000  0.68750000  0.17730000  1
  O  O1697  1  0.92780000  0.52140000  0.13042000  1
  O  O1698  1  0.92860000  0.10050000  0.83700000  1
  O  O1699  1  0.92890000  0.65840000  0.39030000  1
  O  O1700  1  0.93100000  0.63250000  0.05245000  1
  O  O1701  1  0.93330000  0.41290000  0.43706000  1
  O  O1702  1  0.94440000  0.08920000  0.53620000  1
  O  O1703  1  0.94850000  0.15950000  0.06093000  1
  O  O1704  1  0.94980000  0.11140000  0.34960000  1
  O  O1705  1  0.95390000  0.12910000  0.49330000  1
  O  O1706  1  0.95580000  0.63190000  0.89161000  1
  O  O1707  1  0.95890000  0.24920000  0.82770000  1
  O  O1708  1  0.96510000  0.91060000  0.86250000  1
  O  O1709  1  0.96920000  0.87880000  0.55239000  1
  O  O1710  1  0.97860000  0.42780000  0.38042000  1
  O  O1711  1  0.98700000  0.67600000  0.20806000  1
