# generated using pymatgen
data_Zn2H24(C11O4)3
_symmetry_space_group_name_H-M   'P 1'
_cell_length_a   6.93140000
_cell_length_b   12.38200000
_cell_length_c   27.73800000
_cell_angle_alpha   96.64100000
_cell_angle_beta   91.23100000
_cell_angle_gamma   104.22100000
_symmetry_Int_Tables_number   1
_chemical_formula_structural   Zn2H24(C11O4)3
_chemical_formula_sum   'Zn4 H48 C66 O24'
_cell_volume   2289.08670390
_cell_formula_units_Z   2
loop_
 _symmetry_equiv_pos_site_id
 _symmetry_equiv_pos_as_xyz
  1  'x, y, z'
loop_
 _atom_site_type_symbol
 _atom_site_label
 _atom_site_symmetry_multiplicity
 _atom_site_fract_x
 _atom_site_fract_y
 _atom_site_fract_z
 _atom_site_occupancy
  Zn  Zn0  1  0.01110000  0.63517000  0.99101000  1
  Zn  Zn1  1  0.29653000  0.42769000  0.49637000  1
  Zn  Zn2  1  0.70347000  0.57231000  0.50363000  1
  Zn  Zn3  1  0.98890000  0.36483000  0.00899000  1
  H  H4  1  0.01360000  0.21200000  0.74200000  1
  H  H5  1  0.02010000  0.12460000  0.25610000  1
  H  H6  1  0.03690000  0.23930000  0.33550000  1
  H  H7  1  0.04010000  0.27570000  0.65880000  1
  H  H8  1  0.04610000  0.61570000  0.39760000  1
  H  H9  1  0.04980000  0.62910000  0.60860000  1
  H  H10  1  0.08950000  0.08190000  0.30440000  1
  H  H11  1  0.09140000  0.13990000  0.69820000  1
  H  H12  1  0.12490000  0.35520000  0.87730000  1
  H  H13  1  0.15080000  0.19460000  0.12720000  1
  H  H14  1  0.19750000  0.83850000  0.85310000  1
  H  H15  1  0.19850000  0.03080000  0.80800000  1
  H  H16  1  0.22570000  0.91330000  0.20090000  1
  H  H17  1  0.25720000  0.72860000  0.10690000  1
  H  H18  1  0.29630000  0.12030000  0.77220000  1
  H  H19  1  0.31470000  0.01920000  0.24120000  1
  H  H20  1  0.37720000  0.19170000  0.37720000  1
  H  H21  1  0.37760000  0.21390000  0.60330000  1
  H  H22  1  0.38240000  0.47660000  0.92750000  1
  H  H23  1  0.39520000  0.28580000  0.07960000  1
  H  H24  1  0.44700000  0.93550000  0.80750000  1
  H  H25  1  0.46080000  0.10950000  0.66020000  1
  H  H26  1  0.46190000  0.06170000  0.32000000  1
  H  H27  1  0.48930000  0.15210000  0.84080000  1
  H  H28  1  0.51070000  0.84790000  0.15920000  1
  H  H29  1  0.53810000  0.93830000  0.68000000  1
  H  H30  1  0.53920000  0.89050000  0.33980000  1
  H  H31  1  0.55300000  0.06450000  0.19250000  1
  H  H32  1  0.60480000  0.71420000  0.92040000  1
  H  H33  1  0.61760000  0.52340000  0.07250000  1
  H  H34  1  0.62240000  0.78610000  0.39670000  1
  H  H35  1  0.62280000  0.80830000  0.62280000  1
  H  H36  1  0.68530000  0.98080000  0.75880000  1
  H  H37  1  0.70370000  0.87970000  0.22780000  1
  H  H38  1  0.74280000  0.27140000  0.89310000  1
  H  H39  1  0.77430000  0.08670000  0.79910000  1
  H  H40  1  0.80150000  0.96920000  0.19200000  1
  H  H41  1  0.80250000  0.16150000  0.14690000  1
  H  H42  1  0.84920000  0.80540000  0.87280000  1
  H  H43  1  0.87510000  0.64480000  0.12270000  1
  H  H44  1  0.90860000  0.86010000  0.30180000  1
  H  H45  1  0.91050000  0.91810000  0.69560000  1
  H  H46  1  0.95020000  0.37090000  0.39140000  1
  H  H47  1  0.95390000  0.38430000  0.60240000  1
  H  H48  1  0.95990000  0.72430000  0.34120000  1
  H  H49  1  0.96310000  0.76070000  0.66450000  1
  H  H50  1  0.97990000  0.87540000  0.74390000  1
  H  H51  1  0.98640000  0.78800000  0.25800000  1
  C  C52  1  0.00860000  0.93770000  0.72370000  1
  C  C53  1  0.01190000  0.95270000  0.24600000  1
  C  C54  1  0.01330000  0.86230000  0.27800000  1
  C  C55  1  0.09500000  0.73650000  0.35230000  1
  C  C56  1  0.09750000  0.77090000  0.65580000  1
  C  C57  1  0.14670000  0.67250000  0.38620000  1
  C  C58  1  0.14910000  0.69300000  0.62270000  1
  C  C59  1  0.17600000  0.09160000  0.79010000  1
  C  C60  1  0.19920000  0.98200000  0.21850000  1
  C  C61  1  0.22220000  0.71850000  0.92580000  1
  C  C62  1  0.23950000  0.86360000  0.67630000  1
  C  C63  1  0.24000000  0.81710000  0.33530000  1
  C  C64  1  0.24500000  0.53730000  0.05270000  1
  C  C65  1  0.25220000  0.33980000  0.87970000  1
  C  C66  1  0.28240000  0.18530000  0.13000000  1
  C  C67  1  0.29040000  0.24650000  0.85280000  1
  C  C68  1  0.32890000  0.11560000  0.16200000  1
  C  C69  1  0.33110000  0.83390000  0.85810000  1
  C  C70  1  0.34310000  0.69010000  0.40340000  1
  C  C71  1  0.34760000  0.70670000  0.60930000  1
  C  C72  1  0.37640000  0.77000000  0.89250000  1
  C  C73  1  0.38230000  0.71100000  0.11050000  1
  C  C74  1  0.39820000  0.62160000  0.43940000  1
  C  C75  1  0.40220000  0.62590000  0.57040000  1
  C  C76  1  0.40450000  0.41020000  0.91030000  1
  C  C77  1  0.41600000  0.61340000  0.08390000  1
  C  C78  1  0.42760000  0.24040000  0.10230000  1
  C  C79  1  0.43790000  0.87620000  0.66470000  1
  C  C80  1  0.43830000  0.83490000  0.35190000  1
  C  C81  1  0.46830000  0.21860000  0.85820000  1
  C  C82  1  0.47900000  0.89150000  0.83090000  1
  C  C83  1  0.48730000  0.77280000  0.38540000  1
  C  C84  1  0.48780000  0.79830000  0.63110000  1
  C  C85  1  0.51220000  0.20170000  0.36890000  1
  C  C86  1  0.51270000  0.22720000  0.61460000  1
  C  C87  1  0.52100000  0.10850000  0.16910000  1
  C  C88  1  0.53170000  0.78140000  0.14180000  1
  C  C89  1  0.56170000  0.16510000  0.64810000  1
  C  C90  1  0.56210000  0.12380000  0.33530000  1
  C  C91  1  0.57240000  0.75960000  0.89770000  1
  C  C92  1  0.58400000  0.38660000  0.91610000  1
  C  C93  1  0.59550000  0.58980000  0.08970000  1
  C  C94  1  0.59780000  0.37410000  0.42960000  1
  C  C95  1  0.60180000  0.37840000  0.56060000  1
  C  C96  1  0.61770000  0.28900000  0.88950000  1
  C  C97  1  0.62360000  0.23000000  0.10750000  1
  C  C98  1  0.65240000  0.29330000  0.39070000  1
  C  C99  1  0.65690000  0.30990000  0.59660000  1
  C  C100  1  0.66890000  0.16610000  0.14190000  1
  C  C101  1  0.67110000  0.88440000  0.83800000  1
  C  C102  1  0.70960000  0.75350000  0.14720000  1
  C  C103  1  0.71760000  0.81470000  0.87000000  1
  C  C104  1  0.74780000  0.66020000  0.12030000  1
  C  C105  1  0.75500000  0.46270000  0.94730000  1
  C  C106  1  0.76000000  0.18290000  0.66470000  1
  C  C107  1  0.76050000  0.13640000  0.32370000  1
  C  C108  1  0.77780000  0.28150000  0.07420000  1
  C  C109  1  0.80080000  0.01800000  0.78150000  1
  C  C110  1  0.82400000  0.90840000  0.20990000  1
  C  C111  1  0.85090000  0.30700000  0.37730000  1
  C  C112  1  0.85330000  0.32750000  0.61380000  1
  C  C113  1  0.90250000  0.22910000  0.34420000  1
  C  C114  1  0.90500000  0.26350000  0.64770000  1
  C  C115  1  0.98670000  0.13770000  0.72200000  1
  C  C116  1  0.98810000  0.04730000  0.75400000  1
  C  C117  1  0.99140000  0.06230000  0.27630000  1
  O  O118  1  0.04570000  0.71680000  0.91790000  1
  O  O119  1  0.08060000  0.56670000  0.04930000  1
  O  O120  1  0.13380000  0.18080000  0.82320000  1
  O  O121  1  0.16770000  0.05690000  0.18460000  1
  O  O122  1  0.20430000  0.95170000  0.70680000  1
  O  O123  1  0.20620000  0.88730000  0.30280000  1
  O  O124  1  0.26740000  0.54320000  0.45190000  1
  O  O125  1  0.26830000  0.44700000  0.03260000  1
  O  O126  1  0.27200000  0.54600000  0.55250000  1
  O  O127  1  0.27830000  0.67720000  0.96210000  1
  O  O128  1  0.41930000  0.35000000  0.44180000  1
  O  O129  1  0.42610000  0.35370000  0.54440000  1
  O  O130  1  0.57390000  0.64630000  0.45560000  1
  O  O131  1  0.58070000  0.65000000  0.55820000  1
  O  O132  1  0.72170000  0.32280000  0.03790000  1
  O  O133  1  0.72800000  0.45400000  0.44750000  1
  O  O134  1  0.73170000  0.55300000  0.96740000  1
  O  O135  1  0.73260000  0.45680000  0.54810000  1
  O  O136  1  0.79380000  0.11270000  0.69720000  1
  O  O137  1  0.79570000  0.04830000  0.29320000  1
  O  O138  1  0.83230000  0.94310000  0.81540000  1
  O  O139  1  0.86620000  0.81920000  0.17680000  1
  O  O140  1  0.91940000  0.43330000  0.95070000  1
  O  O141  1  0.95430000  0.28320000  0.08210000  1
