# generated using pymatgen
data_NdH12(C4O)6
_symmetry_space_group_name_H-M   'P 1'
_cell_length_a   10.47100000
_cell_length_b   11.35900000
_cell_length_c   13.09300000
_cell_angle_alpha   107.54100000
_cell_angle_beta   90.08400000
_cell_angle_gamma   92.35500000
_symmetry_Int_Tables_number   1
_chemical_formula_structural   NdH12(C4O)6
_chemical_formula_sum   'Nd2 H24 C48 O12'
_cell_volume   1483.46042118
_cell_formula_units_Z   2
loop_
 _symmetry_equiv_pos_site_id
 _symmetry_equiv_pos_as_xyz
  1  'x, y, z'
loop_
 _atom_site_type_symbol
 _atom_site_label
 _atom_site_symmetry_multiplicity
 _atom_site_fract_x
 _atom_site_fract_y
 _atom_site_fract_z
 _atom_site_occupancy
  Nd  Nd0  1  0.48068000  0.45342000  0.33946000  1
  Nd  Nd1  1  0.51932000  0.54658000  0.66054000  1
  H  H2  1  0.06870000  0.84270000  0.79180000  1
  H  H3  1  0.08320000  0.10200000  0.57370000  1
  H  H4  1  0.09180000  0.90140000  0.58320000  1
  H  H5  1  0.14360000  0.14670000  0.25820000  1
  H  H6  1  0.19230000  0.68860000  0.69630000  1
  H  H7  1  0.23460000  0.29900000  0.40010000  1
  H  H8  1  0.26310000  0.20510000  0.54270000  1
  H  H9  1  0.27920000  0.80400000  0.55920000  1
  H  H10  1  0.30910000  0.71110000  0.14400000  1
  H  H11  1  0.31350000  0.89930000  0.28450000  1
  H  H12  1  0.38830000  0.70850000  0.98100000  1
  H  H13  1  0.41100000  0.07120000  0.26370000  1
  H  H14  1  0.58900000  0.92880000  0.73630000  1
  H  H15  1  0.61170000  0.29150000  0.01900000  1
  H  H16  1  0.68650000  0.10070000  0.71550000  1
  H  H17  1  0.69090000  0.28890000  0.85600000  1
  H  H18  1  0.72080000  0.19600000  0.44080000  1
  H  H19  1  0.73690000  0.79490000  0.45730000  1
  H  H20  1  0.76540000  0.70100000  0.59990000  1
  H  H21  1  0.80770000  0.31140000  0.30370000  1
  H  H22  1  0.85640000  0.85330000  0.74180000  1
  H  H23  1  0.90820000  0.09860000  0.41680000  1
  H  H24  1  0.91680000  0.89800000  0.42630000  1
  H  H25  1  0.93130000  0.15730000  0.20820000  1
  C  C26  1  0.03350000  0.78190000  0.73290000  1
  C  C27  1  0.05390000  0.59230000  0.58810000  1
  C  C28  1  0.07640000  0.40290000  0.44090000  1
  C  C29  1  0.09540000  0.21220000  0.29650000  1
  C  C30  1  0.10690000  0.68920000  0.67690000  1
  C  C31  1  0.12880000  0.49660000  0.52840000  1
  C  C32  1  0.14950000  0.30280000  0.38130000  1
  C  C33  1  0.16040000  0.06270000  0.56310000  1
  C  C34  1  0.16550000  0.94170000  0.56850000  1
  C  C35  1  0.26680000  0.49130000  0.56120000  1
  C  C36  1  0.26740000  0.12350000  0.54270000  1
  C  C37  1  0.27690000  0.88310000  0.55250000  1
  C  C38  1  0.34390000  0.78310000  0.13360000  1
  C  C39  1  0.34860000  0.89680000  0.21870000  1
  C  C40  1  0.38630000  0.06400000  0.52130000  1
  C  C41  1  0.39120000  0.93970000  0.52570000  1
  C  C42  1  0.39190000  0.78270000  0.03620000  1
  C  C43  1  0.40330000  0.00050000  0.20510000  1
  C  C44  1  0.44750000  0.89050000  0.01450000  1
  C  C45  1  0.45140000  0.00600000  0.10100000  1
  C  C46  1  0.49110000  0.25380000  0.49280000  1
  C  C47  1  0.49360000  0.12010000  0.49310000  1
  C  C48  1  0.49870000  0.23350000  0.17060000  1
  C  C49  1  0.49980000  0.11540000  0.08610000  1
  C  C50  1  0.50020000  0.88460000  0.91390000  1
  C  C51  1  0.50130000  0.76650000  0.82940000  1
  C  C52  1  0.50640000  0.87990000  0.50690000  1
  C  C53  1  0.50890000  0.74620000  0.50720000  1
  C  C54  1  0.54860000  0.99400000  0.89900000  1
  C  C55  1  0.55250000  0.10950000  0.98550000  1
  C  C56  1  0.59670000  0.99950000  0.79490000  1
  C  C57  1  0.60810000  0.21730000  0.96380000  1
  C  C58  1  0.60880000  0.06030000  0.47430000  1
  C  C59  1  0.61370000  0.93600000  0.47870000  1
  C  C60  1  0.65140000  0.10320000  0.78130000  1
  C  C61  1  0.65610000  0.21690000  0.86640000  1
  C  C62  1  0.72310000  0.11690000  0.44750000  1
  C  C63  1  0.73260000  0.87650000  0.45730000  1
  C  C64  1  0.73320000  0.50870000  0.43880000  1
  C  C65  1  0.83450000  0.05830000  0.43150000  1
  C  C66  1  0.83960000  0.93730000  0.43690000  1
  C  C67  1  0.85050000  0.69720000  0.61870000  1
  C  C68  1  0.87120000  0.50340000  0.47160000  1
  C  C69  1  0.89310000  0.31080000  0.32310000  1
  C  C70  1  0.90460000  0.78780000  0.70350000  1
  C  C71  1  0.92360000  0.59710000  0.55910000  1
  C  C72  1  0.94610000  0.40770000  0.41190000  1
  C  C73  1  0.96650000  0.21810000  0.26710000  1
  O  O74  1  0.28870000  0.48380000  0.65240000  1
  O  O75  1  0.35740000  0.50530000  0.50210000  1
  O  O76  1  0.39090000  0.28100000  0.19510000  1
  O  O77  1  0.40150000  0.71670000  0.78280000  1
  O  O78  1  0.47230000  0.27580000  0.40720000  1
  O  O79  1  0.49290000  0.66700000  0.41590000  1
  O  O80  1  0.50710000  0.33300000  0.58410000  1
  O  O81  1  0.52770000  0.72420000  0.59280000  1
  O  O82  1  0.59850000  0.28330000  0.21720000  1
  O  O83  1  0.60910000  0.71900000  0.80490000  1
  O  O84  1  0.64260000  0.49470000  0.49790000  1
  O  O85  1  0.71130000  0.51620000  0.34760000  1
