# generated using pymatgen
data_CdH21C25(N4O)2
_symmetry_space_group_name_H-M   'P 1'
_cell_length_a   19.56390000
_cell_length_b   19.56390000
_cell_length_c   26.87320000
_cell_angle_alpha   90.00000000
_cell_angle_beta   90.00000000
_cell_angle_gamma   120.00000000
_symmetry_Int_Tables_number   1
_chemical_formula_structural   CdH21C25(N4O)2
_chemical_formula_sum   'Cd12 H252 C300 N96 O24'
_cell_volume   8907.60365027
_cell_formula_units_Z   12
loop_
 _symmetry_equiv_pos_site_id
 _symmetry_equiv_pos_as_xyz
  1  'x, y, z'
loop_
 _atom_site_type_symbol
 _atom_site_label
 _atom_site_symmetry_multiplicity
 _atom_site_fract_x
 _atom_site_fract_y
 _atom_site_fract_z
 _atom_site_occupancy
  Cd  Cd0  1  0.98986000  0.27979000  0.13856000  1
  Cd  Cd1  1  0.98986000  0.71007000  0.36144000  1
  Cd  Cd2  1  0.72021000  0.01014000  0.36144000  1
  Cd  Cd3  1  0.72021000  0.71007000  0.13856000  1
  Cd  Cd4  1  0.71007000  0.72021000  0.63856000  1
  Cd  Cd5  1  0.71007000  0.98986000  0.86144000  1
  Cd  Cd6  1  0.28993000  0.01014000  0.13856000  1
  Cd  Cd7  1  0.28993000  0.27979000  0.36144000  1
  Cd  Cd8  1  0.27979000  0.28993000  0.86144000  1
  Cd  Cd9  1  0.27979000  0.98986000  0.63856000  1
  Cd  Cd10  1  0.01014000  0.28993000  0.63856000  1
  Cd  Cd11  1  0.01014000  0.72021000  0.86144000  1
  H  H12  1  0.99960000  0.07400000  0.57200000  1
  H  H13  1  0.99960000  0.92560000  0.92800000  1
  H  H14  1  0.99950000  0.07720000  0.33830000  1
  H  H15  1  0.99950000  0.92230000  0.16170000  1
  H  H16  1  0.99930000  0.12020000  0.38750000  1
  H  H17  1  0.99930000  0.87910000  0.11250000  1
  H  H18  1  0.99440000  0.45300000  0.65100000  1
  H  H19  1  0.99440000  0.54140000  0.84900000  1
  H  H20  1  0.98460000  0.20820000  0.32720000  1
  H  H21  1  0.98460000  0.77640000  0.17280000  1
  H  H22  1  0.96060000  0.34930000  0.02590000  1
  H  H23  1  0.96060000  0.61130000  0.47410000  1
  H  H24  1  0.95820000  0.16960000  0.23900000  1
  H  H25  1  0.95820000  0.78860000  0.26100000  1
  H  H26  1  0.95060000  0.34550000  0.74550000  1
  H  H27  1  0.95060000  0.60510000  0.75450000  1
  H  H28  1  0.92810000  0.21790000  0.88780000  1
  H  H29  1  0.92810000  0.71020000  0.61220000  1
  H  H30  1  0.92600000  0.00040000  0.92800000  1
  H  H31  1  0.92600000  0.92560000  0.57200000  1
  H  H32  1  0.92560000  0.92600000  0.07200000  1
  H  H33  1  0.92560000  0.99960000  0.42800000  1
  H  H34  1  0.92280000  0.00050000  0.16170000  1
  H  H35  1  0.92280000  0.92230000  0.33830000  1
  H  H36  1  0.92230000  0.92280000  0.83830000  1
  H  H37  1  0.92230000  0.99950000  0.66170000  1
  H  H38  1  0.92040000  0.39300000  0.81360000  1
  H  H39  1  0.92040000  0.52740000  0.68640000  1
  H  H40  1  0.91030000  0.14070000  0.72270000  1
  H  H41  1  0.91030000  0.76960000  0.77730000  1
  H  H42  1  0.90100000  0.12930000  0.04870000  1
  H  H43  1  0.90100000  0.77170000  0.45130000  1
  H  H44  1  0.89340000  0.37690000  0.96210000  1
  H  H45  1  0.89340000  0.51650000  0.53790000  1
  H  H46  1  0.88090000  0.14890000  0.81010000  1
  H  H47  1  0.88090000  0.73200000  0.68990000  1
  H  H48  1  0.87980000  0.00070000  0.11250000  1
  H  H49  1  0.87980000  0.87910000  0.38750000  1
  H  H50  1  0.87910000  0.87980000  0.88750000  1
  H  H51  1  0.87910000  0.99930000  0.61250000  1
  H  H52  1  0.87110000  0.13820000  0.96200000  1
  H  H53  1  0.87110000  0.73290000  0.53800000  1
  H  H54  1  0.87070000  0.09900000  0.45130000  1
  H  H55  1  0.87070000  0.77170000  0.04870000  1
  H  H56  1  0.86670000  0.35560000  0.15180000  1
  H  H57  1  0.86670000  0.51110000  0.34820000  1
  H  H58  1  0.86180000  0.12890000  0.53800000  1
  H  H59  1  0.86180000  0.73290000  0.96200000  1
  H  H60  1  0.85930000  0.08970000  0.77730000  1
  H  H61  1  0.85930000  0.76960000  0.72270000  1
  H  H62  1  0.85640000  0.18420000  0.31340000  1
  H  H63  1  0.85640000  0.67220000  0.18660000  1
  H  H64  1  0.85320000  0.26780000  0.57380000  1
  H  H65  1  0.85320000  0.58540000  0.92620000  1
  H  H66  1  0.85110000  0.11910000  0.68990000  1
  H  H67  1  0.85110000  0.73200000  0.81010000  1
  H  H68  1  0.84140000  0.29860000  0.28890000  1
  H  H69  1  0.84140000  0.54280000  0.21110000  1
  H  H70  1  0.83040000  0.04180000  0.26100000  1
  H  H71  1  0.83040000  0.78860000  0.23900000  1
  H  H72  1  0.81580000  0.14360000  0.18660000  1
  H  H73  1  0.81580000  0.67220000  0.31340000  1
  H  H74  1  0.81150000  0.36590000  0.56050000  1
  H  H75  1  0.81150000  0.44560000  0.93950000  1
  H  H76  1  0.80280000  0.38810000  0.32090000  1
  H  H77  1  0.80280000  0.41470000  0.17910000  1
  H  H78  1  0.79180000  0.01540000  0.17280000  1
  H  H79  1  0.79180000  0.77640000  0.32720000  1
  H  H80  1  0.78860000  0.83040000  0.73900000  1
  H  H81  1  0.78860000  0.95820000  0.76100000  1
  H  H82  1  0.78210000  0.07190000  0.61220000  1
  H  H83  1  0.78210000  0.71020000  0.88780000  1
  H  H84  1  0.77640000  0.79180000  0.82720000  1
  H  H85  1  0.77640000  0.98460000  0.67280000  1
  H  H86  1  0.77170000  0.87070000  0.54870000  1
  H  H87  1  0.77170000  0.90100000  0.95130000  1
  H  H88  1  0.76960000  0.85930000  0.22270000  1
  H  H89  1  0.76960000  0.91030000  0.27730000  1
  H  H90  1  0.73290000  0.86180000  0.46200000  1
  H  H91  1  0.73290000  0.87110000  0.03800000  1
  H  H92  1  0.73220000  0.14680000  0.92620000  1
  H  H93  1  0.73220000  0.58540000  0.57380000  1
  H  H94  1  0.73200000  0.85110000  0.31010000  1
  H  H95  1  0.73200000  0.88090000  0.18990000  1
  H  H96  1  0.71020000  0.78210000  0.38780000  1
  H  H97  1  0.71020000  0.92810000  0.11220000  1
  H  H98  1  0.70140000  0.15860000  0.21110000  1
  H  H99  1  0.70140000  0.54280000  0.28890000  1
  H  H100  1  0.67220000  0.81580000  0.81340000  1
  H  H101  1  0.67220000  0.85640000  0.68660000  1
  H  H102  1  0.65450000  0.04940000  0.75450000  1
  H  H103  1  0.65450000  0.60510000  0.74550000  1
  H  H104  1  0.65070000  0.03940000  0.47410000  1
  H  H105  1  0.65070000  0.61130000  0.02590000  1
  H  H106  1  0.64440000  0.13330000  0.34820000  1
  H  H107  1  0.64440000  0.51110000  0.15180000  1
  H  H108  1  0.63410000  0.18850000  0.93950000  1
  H  H109  1  0.63410000  0.44560000  0.56050000  1
  H  H110  1  0.62310000  0.10660000  0.53790000  1
  H  H111  1  0.62310000  0.51650000  0.96210000  1
  H  H112  1  0.61190000  0.19720000  0.17910000  1
  H  H113  1  0.61190000  0.41470000  0.32090000  1
  H  H114  1  0.61130000  0.65070000  0.52590000  1
  H  H115  1  0.61130000  0.96060000  0.97410000  1
  H  H116  1  0.60700000  0.07960000  0.68640000  1
  H  H117  1  0.60700000  0.52740000  0.81360000  1
  H  H118  1  0.60510000  0.65450000  0.24550000  1
  H  H119  1  0.60510000  0.95060000  0.25450000  1
  H  H120  1  0.58540000  0.73220000  0.07380000  1
  H  H121  1  0.58540000  0.85320000  0.42620000  1
  H  H122  1  0.58530000  0.19720000  0.32090000  1
  H  H123  1  0.58530000  0.38810000  0.17910000  1
  H  H124  1  0.55440000  0.18850000  0.56050000  1
  H  H125  1  0.55440000  0.36590000  0.93950000  1
  H  H126  1  0.54700000  0.00560000  0.84900000  1
  H  H127  1  0.54700000  0.54140000  0.65100000  1
  H  H128  1  0.54280000  0.70140000  0.78890000  1
  H  H129  1  0.54280000  0.84140000  0.71110000  1
  H  H130  1  0.54140000  0.54700000  0.15100000  1
  H  H131  1  0.54140000  0.99440000  0.34900000  1
  H  H132  1  0.52740000  0.60700000  0.31360000  1
  H  H133  1  0.52740000  0.92040000  0.18640000  1
  H  H134  1  0.51650000  0.62310000  0.46210000  1
  H  H135  1  0.51650000  0.89340000  0.03790000  1
  H  H136  1  0.51110000  0.64440000  0.65180000  1
  H  H137  1  0.51110000  0.86670000  0.84820000  1
  H  H138  1  0.48890000  0.13330000  0.15180000  1
  H  H139  1  0.48890000  0.35560000  0.34820000  1
  H  H140  1  0.48350000  0.10660000  0.96210000  1
  H  H141  1  0.48350000  0.37690000  0.53790000  1
  H  H142  1  0.47260000  0.07960000  0.81360000  1
  H  H143  1  0.47260000  0.39300000  0.68640000  1
  H  H144  1  0.45860000  0.00560000  0.65100000  1
  H  H145  1  0.45860000  0.45300000  0.84900000  1
  H  H146  1  0.45720000  0.15860000  0.28890000  1
  H  H147  1  0.45720000  0.29860000  0.21110000  1
  H  H148  1  0.45300000  0.45860000  0.34900000  1
  H  H149  1  0.45300000  0.99440000  0.15100000  1
  H  H150  1  0.44560000  0.63410000  0.06050000  1
  H  H151  1  0.44560000  0.81150000  0.43950000  1
  H  H152  1  0.41470000  0.61190000  0.82090000  1
  H  H153  1  0.41470000  0.80280000  0.67910000  1
  H  H154  1  0.41460000  0.14680000  0.57380000  1
  H  H155  1  0.41460000  0.26780000  0.92620000  1
  H  H156  1  0.39490000  0.04940000  0.74550000  1
  H  H157  1  0.39490000  0.34550000  0.75450000  1
  H  H158  1  0.39300000  0.47260000  0.18640000  1
  H  H159  1  0.39300000  0.92040000  0.31360000  1
  H  H160  1  0.38870000  0.03940000  0.02590000  1
  H  H161  1  0.38870000  0.34930000  0.47410000  1
  H  H162  1  0.38810000  0.58530000  0.67910000  1
  H  H163  1  0.38810000  0.80280000  0.82090000  1
  H  H164  1  0.37690000  0.48350000  0.03790000  1
  H  H165  1  0.37690000  0.89340000  0.46210000  1
  H  H166  1  0.36590000  0.55440000  0.43950000  1
  H  H167  1  0.36590000  0.81150000  0.06050000  1
  H  H168  1  0.35560000  0.48890000  0.84820000  1
  H  H169  1  0.35560000  0.86670000  0.65180000  1
  H  H170  1  0.34930000  0.38870000  0.97410000  1
  H  H171  1  0.34930000  0.96060000  0.52590000  1
  H  H172  1  0.34550000  0.39490000  0.25450000  1
  H  H173  1  0.34550000  0.95060000  0.24550000  1
  H  H174  1  0.32780000  0.14360000  0.31340000  1
  H  H175  1  0.32780000  0.18420000  0.18660000  1
  H  H176  1  0.29860000  0.45720000  0.71110000  1
  H  H177  1  0.29860000  0.84140000  0.78890000  1
  H  H178  1  0.28980000  0.07190000  0.88780000  1
  H  H179  1  0.28980000  0.21790000  0.61220000  1
  H  H180  1  0.26800000  0.11910000  0.81010000  1
  H  H181  1  0.26800000  0.14890000  0.68990000  1
  H  H182  1  0.26780000  0.41460000  0.42620000  1
  H  H183  1  0.26780000  0.85320000  0.07380000  1
  H  H184  1  0.26710000  0.12890000  0.96200000  1
  H  H185  1  0.26710000  0.13820000  0.53800000  1
  H  H186  1  0.23040000  0.08970000  0.72270000  1
  H  H187  1  0.23040000  0.14070000  0.77730000  1
  H  H188  1  0.22830000  0.09900000  0.04870000  1
  H  H189  1  0.22830000  0.12930000  0.45130000  1
  H  H190  1  0.22360000  0.01540000  0.32720000  1
  H  H191  1  0.22360000  0.20820000  0.17280000  1
  H  H192  1  0.21790000  0.28980000  0.11220000  1
  H  H193  1  0.21790000  0.92810000  0.38780000  1
  H  H194  1  0.21140000  0.04180000  0.23900000  1
  H  H195  1  0.21140000  0.16960000  0.26100000  1
  H  H196  1  0.20820000  0.22360000  0.67280000  1
  H  H197  1  0.20820000  0.98460000  0.82720000  1
  H  H198  1  0.19720000  0.58530000  0.82090000  1
  H  H199  1  0.19720000  0.61190000  0.67910000  1
  H  H200  1  0.18850000  0.55440000  0.06050000  1
  H  H201  1  0.18850000  0.63410000  0.43950000  1
  H  H202  1  0.18420000  0.32780000  0.68660000  1
  H  H203  1  0.18420000  0.85640000  0.81340000  1
  H  H204  1  0.16960000  0.21140000  0.76100000  1
  H  H205  1  0.16960000  0.95820000  0.73900000  1
  H  H206  1  0.15860000  0.45720000  0.78890000  1
  H  H207  1  0.15860000  0.70140000  0.71110000  1
  H  H208  1  0.14890000  0.26800000  0.18990000  1
  H  H209  1  0.14890000  0.88090000  0.31010000  1
  H  H210  1  0.14680000  0.41460000  0.07380000  1
  H  H211  1  0.14680000  0.73220000  0.42620000  1
  H  H212  1  0.14360000  0.32780000  0.81340000  1
  H  H213  1  0.14360000  0.81580000  0.68660000  1
  H  H214  1  0.14070000  0.23040000  0.27730000  1
  H  H215  1  0.14070000  0.91030000  0.22270000  1
  H  H216  1  0.13820000  0.26710000  0.03800000  1
  H  H217  1  0.13820000  0.87110000  0.46200000  1
  H  H218  1  0.13330000  0.48890000  0.65180000  1
  H  H219  1  0.13330000  0.64440000  0.84820000  1
  H  H220  1  0.12930000  0.22830000  0.95130000  1
  H  H221  1  0.12930000  0.90100000  0.54870000  1
  H  H222  1  0.12890000  0.26710000  0.46200000  1
  H  H223  1  0.12890000  0.86180000  0.03800000  1
  H  H224  1  0.12090000  0.00070000  0.38750000  1
  H  H225  1  0.12090000  0.12020000  0.11250000  1
  H  H226  1  0.12020000  0.12090000  0.61250000  1
  H  H227  1  0.12020000  0.99930000  0.88750000  1
  H  H228  1  0.11910000  0.26800000  0.31010000  1
  H  H229  1  0.11910000  0.85110000  0.18990000  1
  H  H230  1  0.10660000  0.48350000  0.46210000  1
  H  H231  1  0.10660000  0.62310000  0.03790000  1
  H  H232  1  0.09900000  0.22830000  0.54870000  1
  H  H233  1  0.09900000  0.87070000  0.95130000  1
  H  H234  1  0.08970000  0.23040000  0.22270000  1
  H  H235  1  0.08970000  0.85930000  0.27730000  1
  H  H236  1  0.07960000  0.47260000  0.31360000  1
  H  H237  1  0.07960000  0.60700000  0.18640000  1
  H  H238  1  0.07770000  0.00050000  0.33830000  1
  H  H239  1  0.07770000  0.07720000  0.16170000  1
  H  H240  1  0.07720000  0.07770000  0.66170000  1
  H  H241  1  0.07720000  0.99950000  0.83830000  1
  H  H242  1  0.07440000  0.00040000  0.57200000  1
  H  H243  1  0.07440000  0.07400000  0.92800000  1
  H  H244  1  0.07400000  0.07440000  0.42800000  1
  H  H245  1  0.07400000  0.99960000  0.07200000  1
  H  H246  1  0.07190000  0.28980000  0.38780000  1
  H  H247  1  0.07190000  0.78210000  0.11220000  1
  H  H248  1  0.04940000  0.39490000  0.24550000  1
  H  H249  1  0.04940000  0.65450000  0.25450000  1
  H  H250  1  0.04180000  0.21140000  0.73900000  1
  H  H251  1  0.04180000  0.83040000  0.76100000  1
  H  H252  1  0.03940000  0.38870000  0.52590000  1
  H  H253  1  0.03940000  0.65070000  0.97410000  1
  H  H254  1  0.01540000  0.22360000  0.82720000  1
  H  H255  1  0.01540000  0.79180000  0.67280000  1
  H  H256  1  0.00560000  0.45860000  0.15100000  1
  H  H257  1  0.00560000  0.54700000  0.34900000  1
  H  H258  1  0.00070000  0.12090000  0.88750000  1
  H  H259  1  0.00070000  0.87980000  0.61250000  1
  H  H260  1  0.00050000  0.07770000  0.83830000  1
  H  H261  1  0.00050000  0.92280000  0.66170000  1
  H  H262  1  0.00040000  0.07440000  0.07200000  1
  H  H263  1  0.00040000  0.92600000  0.42800000  1
  C  C264  1  0.99960000  0.07450000  0.60843000  1
  C  C265  1  0.99960000  0.92510000  0.89157000  1
  C  C266  1  0.99950000  0.07420000  0.37434000  1
  C  C267  1  0.99950000  0.92530000  0.12566000  1
  C  C268  1  0.99810000  0.14810000  0.62471000  1
  C  C269  1  0.99810000  0.85000000  0.87529000  1
  C  C270  1  0.99680000  0.23800000  0.79960000  1
  C  C271  1  0.99680000  0.75880000  0.70040000  1
  C  C272  1  0.98870000  0.22070000  0.25130000  1
  C  C273  1  0.98870000  0.76800000  0.24870000  1
  C  C274  1  0.95410000  0.30110000  0.75351000  1
  C  C275  1  0.95410000  0.65300000  0.74649000  1
  C  C276  1  0.95170000  0.41780000  0.63170000  1
  C  C277  1  0.95170000  0.53390000  0.86830000  1
  C  C278  1  0.94240000  0.29590000  0.02120000  1
  C  C279  1  0.94240000  0.64650000  0.47880000  1
  C  C280  1  0.92680000  0.30170000  0.84379000  1
  C  C281  1  0.92680000  0.62510000  0.65621000  1
  C  C282  1  0.92580000  0.00050000  0.12566000  1
  C  C283  1  0.92580000  0.92530000  0.37434000  1
  C  C284  1  0.92550000  0.00040000  0.89157000  1
  C  C285  1  0.92550000  0.18700000  0.74040000  1
  C  C286  1  0.92550000  0.73850000  0.75960000  1
  C  C287  1  0.92550000  0.92510000  0.60843000  1
  C  C288  1  0.92530000  0.92580000  0.87434000  1
  C  C289  1  0.92530000  0.99950000  0.62566000  1
  C  C290  1  0.92510000  0.92550000  0.10843000  1
  C  C291  1  0.92510000  0.99960000  0.39157000  1
  C  C292  1  0.92310000  0.26270000  0.88776000  1
  C  C293  1  0.92310000  0.66040000  0.61224000  1
  C  C294  1  0.91810000  0.36770000  0.84334000  1
  C  C295  1  0.91810000  0.55040000  0.65666000  1
  C  C296  1  0.91150000  0.29320000  0.93160000  1
  C  C297  1  0.91150000  0.61830000  0.56840000  1
  C  C298  1  0.90940000  0.17520000  0.03297000  1
  C  C299  1  0.90940000  0.73420000  0.46703000  1
  C  C300  1  0.90880000  0.19080000  0.78830000  1
  C  C301  1  0.90880000  0.71800000  0.71170000  1
  C  C302  1  0.90590000  0.39510000  0.88753000  1
  C  C303  1  0.90590000  0.51080000  0.61247000  1
  C  C304  1  0.90210000  0.35820000  0.93240000  1
  C  C305  1  0.90210000  0.54390000  0.56760000  1
  C  C306  1  0.89250000  0.17910000  0.98505000  1
  C  C307  1  0.89250000  0.71340000  0.51495000  1
  C  C308  1  0.87540000  0.31700000  0.58900000  1
  C  C309  1  0.87540000  0.55840000  0.91100000  1
  C  C310  1  0.85190000  0.00190000  0.87529000  1
  C  C311  1  0.85190000  0.85000000  0.62471000  1
  C  C312  1  0.85160000  0.37090000  0.58140000  1
  C  C313  1  0.85160000  0.48070000  0.91860000  1
  C  C314  1  0.85000000  0.85190000  0.12471000  1
  C  C315  1  0.85000000  0.99810000  0.37529000  1
  C  C316  1  0.83900000  0.30320000  0.16200000  1
  C  C317  1  0.83900000  0.53580000  0.33800000  1
  C  C318  1  0.82480000  0.09060000  0.46703000  1
  C  C319  1  0.82480000  0.73420000  0.03297000  1
  C  C320  1  0.82090000  0.10750000  0.51495000  1
  C  C321  1  0.82090000  0.71340000  0.98505000  1
  C  C322  1  0.81300000  0.07450000  0.75960000  1
  C  C323  1  0.81300000  0.73850000  0.74040000  1
  C  C324  1  0.81200000  0.18870000  0.18230000  1
  C  C325  1  0.81200000  0.62330000  0.31770000  1
  C  C326  1  0.81130000  0.18800000  0.31770000  1
  C  C327  1  0.81130000  0.62330000  0.18230000  1
  C  C328  1  0.80920000  0.09120000  0.71170000  1
  C  C329  1  0.80920000  0.71800000  0.78830000  1
  C  C330  1  0.80490000  0.25320000  0.30550000  1
  C  C331  1  0.80490000  0.55170000  0.19450000  1
  C  C332  1  0.77930000  0.01130000  0.24870000  1
  C  C333  1  0.77930000  0.76800000  0.25130000  1
  C  C334  1  0.76800000  0.77930000  0.75130000  1
  C  C335  1  0.76800000  0.98870000  0.74870000  1
  C  C336  1  0.76200000  0.00320000  0.70040000  1
  C  C337  1  0.76200000  0.75880000  0.79960000  1
  C  C338  1  0.75880000  0.76200000  0.29960000  1
  C  C339  1  0.75880000  0.99680000  0.20040000  1
  C  C340  1  0.74830000  0.36610000  0.32230000  1
  C  C341  1  0.74830000  0.38220000  0.17770000  1
  C  C342  1  0.74680000  0.19510000  0.19450000  1
  C  C343  1  0.74680000  0.55170000  0.30550000  1
  C  C344  1  0.73850000  0.81300000  0.24040000  1
  C  C345  1  0.73850000  0.92550000  0.25960000  1
  C  C346  1  0.73730000  0.07690000  0.61224000  1
  C  C347  1  0.73730000  0.66040000  0.88776000  1
  C  C348  1  0.73420000  0.82480000  0.53297000  1
  C  C349  1  0.73420000  0.90940000  0.96703000  1
  C  C350  1  0.71800000  0.80920000  0.28830000  1
  C  C351  1  0.71800000  0.90880000  0.21170000  1
  C  C352  1  0.71450000  0.30050000  0.17670000  1
  C  C353  1  0.71450000  0.41400000  0.32330000  1
  C  C354  1  0.71340000  0.82090000  0.48505000  1
  C  C355  1  0.71340000  0.89250000  0.01495000  1
  C  C356  1  0.70680000  0.08850000  0.56840000  1
  C  C357  1  0.70680000  0.61830000  0.93160000  1
  C  C358  1  0.70410000  0.05760000  0.47880000  1
  C  C359  1  0.70410000  0.64650000  0.02120000  1
  C  C360  1  0.69950000  0.28550000  0.32330000  1
  C  C361  1  0.69950000  0.41400000  0.17670000  1
  C  C362  1  0.69890000  0.04590000  0.74649000  1
  C  C363  1  0.69890000  0.65300000  0.75351000  1
  C  C364  1  0.69830000  0.07320000  0.65621000  1
  C  C365  1  0.69830000  0.62510000  0.84379000  1
  C  C366  1  0.69680000  0.16100000  0.33800000  1
  C  C367  1  0.69680000  0.53580000  0.16200000  1
  C  C368  1  0.68300000  0.12460000  0.91100000  1
  C  C369  1  0.68300000  0.55840000  0.58900000  1
  C  C370  1  0.66040000  0.73730000  0.38776000  1
  C  C371  1  0.66040000  0.92310000  0.11224000  1
  C  C372  1  0.65300000  0.69890000  0.25351000  1
  C  C373  1  0.65300000  0.95410000  0.24649000  1
  C  C374  1  0.64650000  0.70410000  0.52120000  1
  C  C375  1  0.64650000  0.94240000  0.97880000  1
  C  C376  1  0.64180000  0.09790000  0.56760000  1
  C  C377  1  0.64180000  0.54390000  0.93240000  1
  C  C378  1  0.63390000  0.25170000  0.17770000  1
  C  C379  1  0.63390000  0.38220000  0.32230000  1
  C  C380  1  0.63230000  0.08190000  0.65666000  1
  C  C381  1  0.63230000  0.55040000  0.84334000  1
  C  C382  1  0.62910000  0.14840000  0.91860000  1
  C  C383  1  0.62910000  0.48070000  0.58140000  1
  C  C384  1  0.62510000  0.69830000  0.34379000  1
  C  C385  1  0.62510000  0.92680000  0.15621000  1
  C  C386  1  0.62330000  0.81130000  0.68230000  1
  C  C387  1  0.62330000  0.81200000  0.81770000  1
  C  C388  1  0.61830000  0.70680000  0.43160000  1
  C  C389  1  0.61830000  0.91150000  0.06840000  1
  C  C390  1  0.61780000  0.25170000  0.32230000  1
  C  C391  1  0.61780000  0.36610000  0.17770000  1
  C  C392  1  0.60490000  0.09410000  0.61247000  1
  C  C393  1  0.60490000  0.51080000  0.88753000  1
  C  C394  1  0.58600000  0.28550000  0.17670000  1
  C  C395  1  0.58600000  0.30050000  0.32330000  1
  C  C396  1  0.58220000  0.04830000  0.86830000  1
  C  C397  1  0.58220000  0.53390000  0.63170000  1
  C  C398  1  0.55840000  0.68300000  0.08900000  1
  C  C399  1  0.55840000  0.87540000  0.41100000  1
  C  C400  1  0.55170000  0.74680000  0.80550000  1
  C  C401  1  0.55170000  0.80490000  0.69450000  1
  C  C402  1  0.55040000  0.63230000  0.34334000  1
  C  C403  1  0.55040000  0.91810000  0.15666000  1
  C  C404  1  0.54390000  0.64180000  0.43240000  1
  C  C405  1  0.54390000  0.90210000  0.06760000  1
  C  C406  1  0.53580000  0.69680000  0.66200000  1
  C  C407  1  0.53580000  0.83900000  0.83800000  1
  C  C408  1  0.53390000  0.58220000  0.13170000  1
  C  C409  1  0.53390000  0.95170000  0.36830000  1
  C  C410  1  0.51930000  0.14840000  0.58140000  1
  C  C411  1  0.51930000  0.37090000  0.91860000  1
  C  C412  1  0.51080000  0.60490000  0.38753000  1
  C  C413  1  0.51080000  0.90590000  0.11247000  1
  C  C414  1  0.48920000  0.09410000  0.88753000  1
  C  C415  1  0.48920000  0.39510000  0.61247000  1
  C  C416  1  0.48070000  0.62910000  0.08140000  1
  C  C417  1  0.48070000  0.85160000  0.41860000  1
  C  C418  1  0.46610000  0.04830000  0.63170000  1
  C  C419  1  0.46610000  0.41780000  0.86830000  1
  C  C420  1  0.46420000  0.16100000  0.16200000  1
  C  C421  1  0.46420000  0.30320000  0.33800000  1
  C  C422  1  0.45610000  0.09790000  0.93240000  1
  C  C423  1  0.45610000  0.35820000  0.56760000  1
  C  C424  1  0.44960000  0.08190000  0.84334000  1
  C  C425  1  0.44960000  0.36770000  0.65666000  1
  C  C426  1  0.44830000  0.19510000  0.30550000  1
  C  C427  1  0.44830000  0.25320000  0.19450000  1
  C  C428  1  0.44160000  0.12460000  0.58900000  1
  C  C429  1  0.44160000  0.31700000  0.91100000  1
  C  C430  1  0.41780000  0.46610000  0.36830000  1
  C  C431  1  0.41780000  0.95170000  0.13170000  1
  C  C432  1  0.41400000  0.69950000  0.67670000  1
  C  C433  1  0.41400000  0.71450000  0.82330000  1
  C  C434  1  0.39510000  0.48920000  0.11247000  1
  C  C435  1  0.39510000  0.90590000  0.38753000  1
  C  C436  1  0.38220000  0.63390000  0.82230000  1
  C  C437  1  0.38220000  0.74830000  0.67770000  1
  C  C438  1  0.38170000  0.08850000  0.93160000  1
  C  C439  1  0.38170000  0.29320000  0.56840000  1
  C  C440  1  0.37670000  0.18800000  0.18230000  1
  C  C441  1  0.37670000  0.18870000  0.31770000  1
  C  C442  1  0.37490000  0.07320000  0.84379000  1
  C  C443  1  0.37490000  0.30170000  0.65621000  1
  C  C444  1  0.37090000  0.51930000  0.41860000  1
  C  C445  1  0.37090000  0.85160000  0.08140000  1
  C  C446  1  0.36770000  0.44960000  0.15666000  1
  C  C447  1  0.36770000  0.91810000  0.34334000  1
  C  C448  1  0.36610000  0.61780000  0.67770000  1
  C  C449  1  0.36610000  0.74830000  0.82230000  1
  C  C450  1  0.35820000  0.45610000  0.06760000  1
  C  C451  1  0.35820000  0.90210000  0.43240000  1
  C  C452  1  0.35350000  0.05760000  0.02120000  1
  C  C453  1  0.35350000  0.29590000  0.47880000  1
  C  C454  1  0.34700000  0.04590000  0.75351000  1
  C  C455  1  0.34700000  0.30110000  0.74649000  1
  C  C456  1  0.33960000  0.07690000  0.88776000  1
  C  C457  1  0.33960000  0.26270000  0.61224000  1
  C  C458  1  0.31700000  0.44160000  0.41100000  1
  C  C459  1  0.31700000  0.87540000  0.08900000  1
  C  C460  1  0.30320000  0.46420000  0.83800000  1
  C  C461  1  0.30320000  0.83900000  0.66200000  1
  C  C462  1  0.30170000  0.37490000  0.15621000  1
  C  C463  1  0.30170000  0.92680000  0.34379000  1
  C  C464  1  0.30110000  0.34700000  0.24649000  1
  C  C465  1  0.30110000  0.95410000  0.25351000  1
  C  C466  1  0.30050000  0.58600000  0.82330000  1
  C  C467  1  0.30050000  0.71450000  0.67670000  1
  C  C468  1  0.29590000  0.35350000  0.97880000  1
  C  C469  1  0.29590000  0.94240000  0.52120000  1
  C  C470  1  0.29320000  0.38170000  0.06840000  1
  C  C471  1  0.29320000  0.91150000  0.43160000  1
  C  C472  1  0.28660000  0.10750000  0.98505000  1
  C  C473  1  0.28660000  0.17910000  0.51495000  1
  C  C474  1  0.28550000  0.58600000  0.67670000  1
  C  C475  1  0.28550000  0.69950000  0.82330000  1
  C  C476  1  0.28200000  0.09120000  0.78830000  1
  C  C477  1  0.28200000  0.19080000  0.71170000  1
  C  C478  1  0.26580000  0.09060000  0.03297000  1
  C  C479  1  0.26580000  0.17520000  0.46703000  1
  C  C480  1  0.26270000  0.33960000  0.11224000  1
  C  C481  1  0.26270000  0.92310000  0.38776000  1
  C  C482  1  0.26150000  0.07450000  0.74040000  1
  C  C483  1  0.26150000  0.18700000  0.75960000  1
  C  C484  1  0.25320000  0.44830000  0.69450000  1
  C  C485  1  0.25320000  0.80490000  0.80550000  1
  C  C486  1  0.25170000  0.61780000  0.82230000  1
  C  C487  1  0.25170000  0.63390000  0.67770000  1
  C  C488  1  0.24120000  0.00320000  0.79960000  1
  C  C489  1  0.24120000  0.23800000  0.70040000  1
  C  C490  1  0.23800000  0.24120000  0.20040000  1
  C  C491  1  0.23800000  0.99680000  0.29960000  1
  C  C492  1  0.23200000  0.01130000  0.25130000  1
  C  C493  1  0.23200000  0.22070000  0.24870000  1
  C  C494  1  0.22070000  0.23200000  0.74870000  1
  C  C495  1  0.22070000  0.98870000  0.75130000  1
  C  C496  1  0.19510000  0.44830000  0.80550000  1
  C  C497  1  0.19510000  0.74680000  0.69450000  1
  C  C498  1  0.19080000  0.28200000  0.21170000  1
  C  C499  1  0.19080000  0.90880000  0.28830000  1
  C  C500  1  0.18870000  0.37670000  0.81770000  1
  C  C501  1  0.18870000  0.81200000  0.68230000  1
  C  C502  1  0.18800000  0.37670000  0.68230000  1
  C  C503  1  0.18800000  0.81130000  0.81770000  1
  C  C504  1  0.18700000  0.26150000  0.25960000  1
  C  C505  1  0.18700000  0.92550000  0.24040000  1
  C  C506  1  0.17910000  0.28660000  0.01495000  1
  C  C507  1  0.17910000  0.89250000  0.48505000  1
  C  C508  1  0.17520000  0.26580000  0.96703000  1
  C  C509  1  0.17520000  0.90940000  0.53297000  1
  C  C510  1  0.16100000  0.46420000  0.66200000  1
  C  C511  1  0.16100000  0.69680000  0.83800000  1
  C  C512  1  0.15000000  0.00190000  0.62471000  1
  C  C513  1  0.15000000  0.14810000  0.87529000  1
  C  C514  1  0.14840000  0.51930000  0.08140000  1
  C  C515  1  0.14840000  0.62910000  0.41860000  1
  C  C516  1  0.14810000  0.15000000  0.37529000  1
  C  C517  1  0.14810000  0.99810000  0.12471000  1
  C  C518  1  0.12460000  0.44160000  0.08900000  1
  C  C519  1  0.12460000  0.68300000  0.41100000  1
  C  C520  1  0.10750000  0.28660000  0.48505000  1
  C  C521  1  0.10750000  0.82090000  0.01495000  1
  C  C522  1  0.09790000  0.45610000  0.43240000  1
  C  C523  1  0.09790000  0.64180000  0.06760000  1
  C  C524  1  0.09410000  0.48920000  0.38753000  1
  C  C525  1  0.09410000  0.60490000  0.11247000  1
  C  C526  1  0.09120000  0.28200000  0.28830000  1
  C  C527  1  0.09120000  0.80920000  0.21170000  1
  C  C528  1  0.09060000  0.26580000  0.53297000  1
  C  C529  1  0.09060000  0.82480000  0.96703000  1
  C  C530  1  0.08850000  0.38170000  0.43160000  1
  C  C531  1  0.08850000  0.70680000  0.06840000  1
  C  C532  1  0.08190000  0.44960000  0.34334000  1
  C  C533  1  0.08190000  0.63230000  0.15666000  1
  C  C534  1  0.07690000  0.33960000  0.38776000  1
  C  C535  1  0.07690000  0.73730000  0.11224000  1
  C  C536  1  0.07490000  0.00040000  0.60843000  1
  C  C537  1  0.07490000  0.07450000  0.89157000  1
  C  C538  1  0.07470000  0.00050000  0.37434000  1
  C  C539  1  0.07470000  0.07420000  0.12566000  1
  C  C540  1  0.07450000  0.07490000  0.39157000  1
  C  C541  1  0.07450000  0.26150000  0.24040000  1
  C  C542  1  0.07450000  0.81300000  0.25960000  1
  C  C543  1  0.07450000  0.99960000  0.10843000  1
  C  C544  1  0.07420000  0.07470000  0.62566000  1
  C  C545  1  0.07420000  0.99950000  0.87434000  1
  C  C546  1  0.07320000  0.37490000  0.34379000  1
  C  C547  1  0.07320000  0.69830000  0.15621000  1
  C  C548  1  0.05760000  0.35350000  0.52120000  1
  C  C549  1  0.05760000  0.70410000  0.97880000  1
  C  C550  1  0.04830000  0.46610000  0.13170000  1
  C  C551  1  0.04830000  0.58220000  0.36830000  1
  C  C552  1  0.04590000  0.34700000  0.25351000  1
  C  C553  1  0.04590000  0.69890000  0.24649000  1
  C  C554  1  0.01130000  0.23200000  0.75130000  1
  C  C555  1  0.01130000  0.77930000  0.74870000  1
  C  C556  1  0.00320000  0.24120000  0.29960000  1
  C  C557  1  0.00320000  0.76200000  0.20040000  1
  C  C558  1  0.00190000  0.15000000  0.12471000  1
  C  C559  1  0.00190000  0.85190000  0.37529000  1
  C  C560  1  0.00050000  0.07470000  0.87434000  1
  C  C561  1  0.00050000  0.92580000  0.62566000  1
  C  C562  1  0.00040000  0.07490000  0.10843000  1
  C  C563  1  0.00040000  0.92550000  0.39157000  1
  N  N564  1  0.96970000  0.26410000  0.72079000  1
  N  N565  1  0.96970000  0.70560000  0.77921000  1
  N  N566  1  0.94330000  0.27370000  0.79912000  1
  N  N567  1  0.94330000  0.66960000  0.70088000  1
  N  N568  1  0.94070000  0.24790000  0.05598000  1
  N  N569  1  0.94070000  0.69280000  0.44402000  1
  N  N570  1  0.93540000  0.34520000  0.62154000  1
  N  N571  1  0.93540000  0.59020000  0.87846000  1
  N  N572  1  0.91400000  0.25710000  0.97752000  1
  N  N573  1  0.91400000  0.65690000  0.52248000  1
  N  N574  1  0.90020000  0.43480000  0.61142000  1
  N  N575  1  0.90020000  0.46540000  0.88858000  1
  N  N576  1  0.86980000  0.25780000  0.16320000  1
  N  N577  1  0.86980000  0.61200000  0.33680000  1
  N  N578  1  0.76430000  0.26770000  0.17660000  1
  N  N579  1  0.76430000  0.49660000  0.32340000  1
  N  N580  1  0.75210000  0.05930000  0.44402000  1
  N  N581  1  0.75210000  0.69280000  0.05598000  1
  N  N582  1  0.74290000  0.08600000  0.52248000  1
  N  N583  1  0.74290000  0.65690000  0.97752000  1
  N  N584  1  0.74220000  0.13020000  0.33680000  1
  N  N585  1  0.74220000  0.61200000  0.16320000  1
  N  N586  1  0.73590000  0.03030000  0.77921000  1
  N  N587  1  0.73590000  0.70560000  0.72079000  1
  N  N588  1  0.73230000  0.23570000  0.32340000  1
  N  N589  1  0.73230000  0.49660000  0.17660000  1
  N  N590  1  0.72630000  0.05670000  0.70088000  1
  N  N591  1  0.72630000  0.66960000  0.79912000  1
  N  N592  1  0.70560000  0.73590000  0.22079000  1
  N  N593  1  0.70560000  0.96970000  0.27921000  1
  N  N594  1  0.69280000  0.75210000  0.55598000  1
  N  N595  1  0.69280000  0.94070000  0.94402000  1
  N  N596  1  0.66960000  0.72630000  0.29912000  1
  N  N597  1  0.66960000  0.94330000  0.20088000  1
  N  N598  1  0.65690000  0.74290000  0.47752000  1
  N  N599  1  0.65690000  0.91400000  0.02248000  1
  N  N600  1  0.65480000  0.06460000  0.87846000  1
  N  N601  1  0.65480000  0.59020000  0.62154000  1
  N  N602  1  0.61200000  0.74220000  0.66320000  1
  N  N603  1  0.61200000  0.86980000  0.83680000  1
  N  N604  1  0.59020000  0.65480000  0.12154000  1
  N  N605  1  0.59020000  0.93540000  0.37846000  1
  N  N606  1  0.56520000  0.09980000  0.88858000  1
  N  N607  1  0.56520000  0.46540000  0.61142000  1
  N  N608  1  0.53460000  0.09980000  0.61142000  1
  N  N609  1  0.53460000  0.43480000  0.88858000  1
  N  N610  1  0.50340000  0.23570000  0.17660000  1
  N  N611  1  0.50340000  0.26770000  0.32340000  1
  N  N612  1  0.49660000  0.73230000  0.67660000  1
  N  N613  1  0.49660000  0.76430000  0.82340000  1
  N  N614  1  0.46540000  0.56520000  0.11142000  1
  N  N615  1  0.46540000  0.90020000  0.38858000  1
  N  N616  1  0.43480000  0.53460000  0.38858000  1
  N  N617  1  0.43480000  0.90020000  0.11142000  1
  N  N618  1  0.40980000  0.06460000  0.62154000  1
  N  N619  1  0.40980000  0.34520000  0.87846000  1
  N  N620  1  0.38800000  0.13020000  0.16320000  1
  N  N621  1  0.38800000  0.25780000  0.33680000  1
  N  N622  1  0.34520000  0.40980000  0.37846000  1
  N  N623  1  0.34520000  0.93540000  0.12154000  1
  N  N624  1  0.34310000  0.08600000  0.97752000  1
  N  N625  1  0.34310000  0.25710000  0.52248000  1
  N  N626  1  0.33040000  0.05670000  0.79912000  1
  N  N627  1  0.33040000  0.27370000  0.70088000  1
  N  N628  1  0.30720000  0.05930000  0.05598000  1
  N  N629  1  0.30720000  0.24790000  0.44402000  1
  N  N630  1  0.29440000  0.03030000  0.72079000  1
  N  N631  1  0.29440000  0.26410000  0.77921000  1
  N  N632  1  0.27370000  0.33040000  0.20088000  1
  N  N633  1  0.27370000  0.94330000  0.29912000  1
  N  N634  1  0.26770000  0.50340000  0.82340000  1
  N  N635  1  0.26770000  0.76430000  0.67660000  1
  N  N636  1  0.26410000  0.29440000  0.27921000  1
  N  N637  1  0.26410000  0.96970000  0.22079000  1
  N  N638  1  0.25780000  0.38800000  0.83680000  1
  N  N639  1  0.25780000  0.86980000  0.66320000  1
  N  N640  1  0.25710000  0.34310000  0.02248000  1
  N  N641  1  0.25710000  0.91400000  0.47752000  1
  N  N642  1  0.24790000  0.30720000  0.94402000  1
  N  N643  1  0.24790000  0.94070000  0.55598000  1
  N  N644  1  0.23570000  0.50340000  0.67660000  1
  N  N645  1  0.23570000  0.73230000  0.82340000  1
  N  N646  1  0.13020000  0.38800000  0.66320000  1
  N  N647  1  0.13020000  0.74220000  0.83680000  1
  N  N648  1  0.09980000  0.53460000  0.11142000  1
  N  N649  1  0.09980000  0.56520000  0.38858000  1
  N  N650  1  0.08600000  0.34310000  0.47752000  1
  N  N651  1  0.08600000  0.74290000  0.02248000  1
  N  N652  1  0.06460000  0.40980000  0.12154000  1
  N  N653  1  0.06460000  0.65480000  0.37846000  1
  N  N654  1  0.05930000  0.30720000  0.55598000  1
  N  N655  1  0.05930000  0.75210000  0.94402000  1
  N  N656  1  0.05670000  0.33040000  0.29912000  1
  N  N657  1  0.05670000  0.72630000  0.20088000  1
  N  N658  1  0.03030000  0.29440000  0.22079000  1
  N  N659  1  0.03030000  0.73590000  0.27921000  1
  O  O660  1  0.94148000  0.14403000  0.14514000  1
  O  O661  1  0.94148000  0.79745000  0.35486000  1
  O  O662  1  0.93704000  0.15295000  0.61547000  1
  O  O663  1  0.93704000  0.78409000  0.88453000  1
  O  O664  1  0.85597000  0.05852000  0.35486000  1
  O  O665  1  0.85597000  0.79745000  0.14514000  1
  O  O666  1  0.84705000  0.06296000  0.88453000  1
  O  O667  1  0.84705000  0.78409000  0.61547000  1
  O  O668  1  0.79745000  0.85597000  0.64514000  1
  O  O669  1  0.79745000  0.94148000  0.85486000  1
  O  O670  1  0.78409000  0.84705000  0.11547000  1
  O  O671  1  0.78409000  0.93704000  0.38453000  1
  O  O672  1  0.21591000  0.06296000  0.61547000  1
  O  O673  1  0.21591000  0.15295000  0.88453000  1
  O  O674  1  0.20255000  0.05852000  0.14514000  1
  O  O675  1  0.20255000  0.14403000  0.35486000  1
  O  O676  1  0.15295000  0.21591000  0.38453000  1
  O  O677  1  0.15295000  0.93704000  0.11547000  1
  O  O678  1  0.14403000  0.20255000  0.85486000  1
  O  O679  1  0.14403000  0.94148000  0.64514000  1
  O  O680  1  0.06296000  0.21591000  0.11547000  1
  O  O681  1  0.06296000  0.84705000  0.38453000  1
  O  O682  1  0.05852000  0.20255000  0.64514000  1
  O  O683  1  0.05852000  0.85597000  0.85486000  1
