# generated using pymatgen
data_SrH8C14SO6
_symmetry_space_group_name_H-M   'P 1'
_cell_length_a   5.72770000
_cell_length_b   12.17220000
_cell_length_c   22.90340000
_cell_angle_alpha   98.85700000
_cell_angle_beta   90.00000000
_cell_angle_gamma   90.00000000
_symmetry_Int_Tables_number   1
_chemical_formula_structural   SrH8C14SO6
_chemical_formula_sum   'Sr4 H32 C56 S4 O24'
_cell_volume   1577.75482685
_cell_formula_units_Z   4
loop_
 _symmetry_equiv_pos_site_id
 _symmetry_equiv_pos_as_xyz
  1  'x, y, z'
loop_
 _atom_site_type_symbol
 _atom_site_label
 _atom_site_symmetry_multiplicity
 _atom_site_fract_x
 _atom_site_fract_y
 _atom_site_fract_z
 _atom_site_occupancy
  Sr  Sr0  1  0.24465000  0.13348000  0.72433000  1
  Sr  Sr1  1  0.25535000  0.63348000  0.22433000  1
  Sr  Sr2  1  0.74465000  0.36652000  0.77567000  1
  Sr  Sr3  1  0.75535000  0.86652000  0.27567000  1
  H  H4  1  0.01270000  0.12890000  0.56410000  1
  H  H5  1  0.01940000  0.30970000  0.28330000  1
  H  H6  1  0.06380000  0.91930000  0.53530000  1
  H  H7  1  0.06590000  0.84080000  0.67000000  1
  H  H8  1  0.10730000  0.94320000  0.82840000  1
  H  H9  1  0.12730000  0.76020000  0.08990000  1
  H  H10  1  0.19100000  0.79530000  0.87820000  1
  H  H11  1  0.20500000  0.71320000  0.98980000  1
  H  H12  1  0.29500000  0.21320000  0.48980000  1
  H  H13  1  0.30900000  0.29530000  0.37820000  1
  H  H14  1  0.37270000  0.26020000  0.58990000  1
  H  H15  1  0.39270000  0.44320000  0.32840000  1
  H  H16  1  0.43410000  0.34080000  0.17000000  1
  H  H17  1  0.43620000  0.41930000  0.03530000  1
  H  H18  1  0.48060000  0.80970000  0.78330000  1
  H  H19  1  0.48730000  0.62890000  0.06410000  1
  H  H20  1  0.51270000  0.37110000  0.93590000  1
  H  H21  1  0.51940000  0.19030000  0.21670000  1
  H  H22  1  0.56380000  0.58070000  0.96470000  1
  H  H23  1  0.56590000  0.65920000  0.83000000  1
  H  H24  1  0.60730000  0.55680000  0.67160000  1
  H  H25  1  0.62730000  0.73980000  0.41010000  1
  H  H26  1  0.69100000  0.70470000  0.62180000  1
  H  H27  1  0.70500000  0.78680000  0.51020000  1
  H  H28  1  0.79500000  0.28680000  0.01020000  1
  H  H29  1  0.80900000  0.20470000  0.12180000  1
  H  H30  1  0.87270000  0.23980000  0.91010000  1
  H  H31  1  0.89270000  0.05680000  0.17160000  1
  H  H32  1  0.93410000  0.15920000  0.33000000  1
  H  H33  1  0.93620000  0.08070000  0.46470000  1
  H  H34  1  0.98060000  0.69030000  0.71670000  1
  H  H35  1  0.98730000  0.87110000  0.43590000  1
  C  C36  1  0.00170000  0.11320000  0.17081000  1
  C  C37  1  0.01490000  0.72350000  0.06480000  1
  C  C38  1  0.04980000  0.79790000  0.85834000  1
  C  C39  1  0.06190000  0.69530000  0.00510000  1
  C  C40  1  0.10710000  0.35990000  0.03157000  1
  C  C41  1  0.11220000  0.28710000  0.14250000  1
  C  C42  1  0.12400000  0.69380000  0.69807000  1
  C  C43  1  0.13250000  0.85520000  0.45073000  1
  C  C44  1  0.17370000  0.78380000  0.67017000  1
  C  C45  1  0.17730000  0.88400000  0.51003000  1
  C  C46  1  0.19900000  0.30270000  0.91271000  1
  C  C47  1  0.21550000  0.10840000  0.19882000  1
  C  C48  1  0.22800000  0.51290000  0.73206000  1
  C  C49  1  0.24620000  0.27610000  0.84752000  1
  C  C50  1  0.25380000  0.77610000  0.34752000  1
  C  C51  1  0.27200000  0.01290000  0.23206000  1
  C  C52  1  0.28450000  0.60840000  0.69882000  1
  C  C53  1  0.30100000  0.80270000  0.41271000  1
  C  C54  1  0.32270000  0.38400000  0.01003000  1
  C  C55  1  0.32630000  0.28380000  0.17017000  1
  C  C56  1  0.36750000  0.35520000  0.95073000  1
  C  C57  1  0.37600000  0.19380000  0.19807000  1
  C  C58  1  0.38780000  0.78710000  0.64250000  1
  C  C59  1  0.39290000  0.85990000  0.53157000  1
  C  C60  1  0.43810000  0.19530000  0.50510000  1
  C  C61  1  0.45020000  0.29790000  0.35834000  1
  C  C62  1  0.48510000  0.22350000  0.56480000  1
  C  C63  1  0.49830000  0.61320000  0.67081000  1
  C  C64  1  0.50170000  0.38680000  0.32919000  1
  C  C65  1  0.51490000  0.77650000  0.43520000  1
  C  C66  1  0.54980000  0.70210000  0.64166000  1
  C  C67  1  0.56190000  0.80470000  0.49490000  1
  C  C68  1  0.60710000  0.14010000  0.46843000  1
  C  C69  1  0.61220000  0.21290000  0.35750000  1
  C  C70  1  0.62400000  0.80620000  0.80193000  1
  C  C71  1  0.63250000  0.64480000  0.04927000  1
  C  C72  1  0.67370000  0.71620000  0.82983000  1
  C  C73  1  0.67730000  0.61600000  0.98997000  1
  C  C74  1  0.69900000  0.19730000  0.58729000  1
  C  C75  1  0.71550000  0.39160000  0.30118000  1
  C  C76  1  0.72800000  0.98710000  0.76794000  1
  C  C77  1  0.74620000  0.22390000  0.65248000  1
  C  C78  1  0.75380000  0.72390000  0.15248000  1
  C  C79  1  0.77200000  0.48710000  0.26794000  1
  C  C80  1  0.78450000  0.89160000  0.80118000  1
  C  C81  1  0.80100000  0.69730000  0.08729000  1
  C  C82  1  0.82270000  0.11600000  0.48997000  1
  C  C83  1  0.82630000  0.21620000  0.32983000  1
  C  C84  1  0.86750000  0.14480000  0.54927000  1
  C  C85  1  0.87600000  0.30620000  0.30193000  1
  C  C86  1  0.88780000  0.71290000  0.85750000  1
  C  C87  1  0.89290000  0.64010000  0.96843000  1
  C  C88  1  0.93810000  0.30470000  0.99490000  1
  C  C89  1  0.95020000  0.20210000  0.14166000  1
  C  C90  1  0.98510000  0.27650000  0.93520000  1
  C  C91  1  0.99830000  0.88680000  0.82919000  1
  S  S92  1  0.03829000  0.40134000  0.10715000  1
  S  S93  1  0.46171000  0.90134000  0.60715000  1
  S  S94  1  0.53829000  0.09866000  0.39285000  1
  S  S95  1  0.96171000  0.59866000  0.89285000  1
  O  O96  1  0.01790000  0.49559000  0.74078000  1
  O  O97  1  0.04820000  0.76519000  0.32963000  1
  O  O98  1  0.07110000  0.26170000  0.81349000  1
  O  O99  1  0.10470000  0.96072000  0.24883000  1
  O  O100  1  0.19430000  0.49219000  0.12892000  1
  O  O101  1  0.20920000  0.58171000  0.88830000  1
  O  O102  1  0.29080000  0.08171000  0.38830000  1
  O  O103  1  0.30570000  0.99219000  0.62892000  1
  O  O104  1  0.39530000  0.46072000  0.74883000  1
  O  O105  1  0.42890000  0.76170000  0.31349000  1
  O  O106  1  0.45180000  0.26519000  0.82963000  1
  O  O107  1  0.48210000  0.99559000  0.24078000  1
  O  O108  1  0.51790000  0.00441000  0.75922000  1
  O  O109  1  0.54820000  0.73481000  0.17037000  1
  O  O110  1  0.57110000  0.23830000  0.68651000  1
  O  O111  1  0.60470000  0.53928000  0.25117000  1
  O  O112  1  0.69430000  0.00781000  0.37108000  1
  O  O113  1  0.70920000  0.91829000  0.61170000  1
  O  O114  1  0.79080000  0.41829000  0.11170000  1
  O  O115  1  0.80570000  0.50781000  0.87108000  1
  O  O116  1  0.89530000  0.03928000  0.75117000  1
  O  O117  1  0.92890000  0.73830000  0.18651000  1
  O  O118  1  0.95180000  0.23481000  0.67037000  1
  O  O119  1  0.98210000  0.50441000  0.25922000  1
