# generated using pymatgen
data_Cu2H27C45N5O12
_symmetry_space_group_name_H-M   'P 1'
_cell_length_a   35.91701798
_cell_length_b   35.91701798
_cell_length_c   35.91701798
_cell_angle_alpha   109.47122063
_cell_angle_beta   109.47122063
_cell_angle_gamma   109.47122063
_symmetry_Int_Tables_number   1
_chemical_formula_structural   Cu2H27C45N5O12
_chemical_formula_sum   'Cu24 H324 C540 N60 O144'
_cell_volume   35668.01376120
_cell_formula_units_Z   12
loop_
 _symmetry_equiv_pos_site_id
 _symmetry_equiv_pos_as_xyz
  1  'x, y, z'
loop_
 _atom_site_type_symbol
 _atom_site_label
 _atom_site_symmetry_multiplicity
 _atom_site_fract_x
 _atom_site_fract_y
 _atom_site_fract_z
 _atom_site_occupancy
  C  C0  1  0.26520000  0.73480000  1.00000000  1
  C  C1  1  0.26520000  0.26520000  0.53040000  1
  C  C2  1  0.73480000  0.73480000  0.46960000  1
  C  C3  1  0.73480000  0.26520000  0.00000000  1
  C  C4  1  0.28145000  0.77461000  1.00000000  1
  C  C5  1  0.28145000  0.28145000  0.50684000  1
  C  C6  1  0.77461000  0.77461000  0.49316000  1
  C  C7  1  0.77461000  0.28145000  1.00000000  1
  C  C8  1  0.25768000  0.79924000  1.00000000  1
  C  C9  1  0.25768000  0.25768000  0.45844000  1
  C  C10  1  0.79924000  0.79924000  0.54156000  1
  C  C11  1  0.79924000  0.25768000  1.00000000  1
  C  C12  1  0.17249000  0.85574000  0.94015000  1
  C  C13  1  0.17249000  0.23234000  0.31675000  1
  C  C14  1  0.23234000  0.91559000  0.05985000  1
  C  C15  1  0.23234000  0.17249000  0.31675000  1
  C  C16  1  0.85574000  0.91559000  0.68325000  1
  C  C17  1  0.85574000  0.17249000  0.94015000  1
  C  C18  1  0.91559000  0.85574000  0.68325000  1
  C  C19  1  0.91559000  0.23234000  0.05985000  1
  C  C20  1  0.32620000  0.79124000  1.00000000  1
  C  C21  1  0.32620000  0.32620000  0.53496000  1
  C  C22  1  0.79124000  0.79124000  0.46504000  1
  C  C23  1  0.79124000  0.32620000  1.00000000  1
  C  C24  1  0.18185000  0.86561000  0.90650000  1
  C  C25  1  0.18185000  0.27535000  0.31624000  1
  C  C26  1  0.27535000  0.95911000  0.09350000  1
  C  C27  1  0.27535000  0.18185000  0.31624000  1
  C  C28  1  0.86561000  0.95911000  0.68376000  1
  C  C29  1  0.86561000  0.18185000  0.90650000  1
  C  C30  1  0.95911000  0.86561000  0.68376000  1
  C  C31  1  0.95911000  0.27535000  0.09350000  1
  C  C32  1  0.16764000  0.89213000  0.89213000  1
  C  C33  1  0.16764000  0.27551000  0.27551000  1
  C  C34  1  0.27551000  0.00000000  0.10787000  1
  C  C35  1  0.27551000  0.16764000  0.27551000  1
  C  C36  1  0.89213000  0.00000000  0.72449000  1
  C  C37  1  0.89213000  0.16764000  0.89213000  1
  C  C38  1  0.00000000  0.89213000  0.72449000  1
  C  C39  1  0.00000000  0.27551000  0.10787000  1
  C  C40  1  0.21107000  0.85335000  0.89450000  1
  C  C41  1  0.21107000  0.31657000  0.35772000  1
  C  C42  1  0.31657000  0.95885000  0.10550000  1
  C  C43  1  0.31657000  0.21107000  0.35772000  1
  C  C44  1  0.85335000  0.95885000  0.64228000  1
  C  C45  1  0.85335000  0.21107000  0.89450000  1
  C  C46  1  0.95885000  0.85335000  0.64228000  1
  C  C47  1  0.95885000  0.31657000  0.10550000  1
  C  C48  1  0.40980000  0.79996000  1.00000000  1
  C  C49  1  0.40980000  0.40980000  0.60984000  1
  C  C50  1  0.79996000  0.79996000  0.39016000  1
  C  C51  1  0.79996000  0.40980000  1.00000000  1
  C  C52  1  0.18185000  0.90650000  0.86561000  1
  C  C53  1  0.18185000  0.31624000  0.27535000  1
  C  C54  1  0.31624000  0.04089000  0.13439000  1
  C  C55  1  0.31624000  0.18185000  0.27535000  1
  C  C56  1  0.90650000  0.04089000  0.72465000  1
  C  C57  1  0.90650000  0.18185000  0.86561000  1
  C  C58  1  0.04089000  0.90650000  0.72465000  1
  C  C59  1  0.04089000  0.31624000  0.13439000  1
  C  C60  1  0.22326000  0.86597000  0.86597000  1
  C  C61  1  0.22326000  0.35729000  0.35729000  1
  C  C62  1  0.35729000  0.00000000  0.13403000  1
  C  C63  1  0.35729000  0.22326000  0.35729000  1
  C  C64  1  0.86597000  0.00000000  0.64271000  1
  C  C65  1  0.86597000  0.22326000  0.86597000  1
  C  C66  1  0.00000000  0.86597000  0.64271000  1
  C  C67  1  0.00000000  0.35729000  0.13403000  1
  C  C68  1  0.46039000  0.77017000  0.00000000  1
  C  C69  1  0.46039000  0.46039000  0.69022000  1
  C  C70  1  0.77017000  0.77017000  0.30978000  1
  C  C71  1  0.77017000  0.46039000  1.00000000  1
  C  C72  1  0.39960000  0.83420000  1.00000000  1
  C  C73  1  0.39960000  0.39960000  0.56540000  1
  C  C74  1  0.83420000  0.83420000  0.43460000  1
  C  C75  1  0.83420000  0.39960000  1.00000000  1
  C  C76  1  0.24036000  0.81199000  0.81199000  1
  C  C77  1  0.24036000  0.42837000  0.42837000  1
  C  C78  1  0.42837000  0.00000000  0.18801000  1
  C  C79  1  0.42837000  0.24036000  0.42837000  1
  C  C80  1  0.81199000  0.00000000  0.57163000  1
  C  C81  1  0.81199000  0.24036000  0.81199000  1
  C  C82  1  0.00000000  0.81199000  0.57163000  1
  C  C83  1  0.00000000  0.42837000  0.18801000  1
  C  C84  1  0.21107000  0.89450000  0.85335000  1
  C  C85  1  0.21107000  0.35772000  0.31657000  1
  C  C86  1  0.35772000  0.04115000  0.14665000  1
  C  C87  1  0.35772000  0.21107000  0.31657000  1
  C  C88  1  0.89450000  0.04115000  0.68343000  1
  C  C89  1  0.89450000  0.21107000  0.85335000  1
  C  C90  1  0.04115000  0.89450000  0.68343000  1
  C  C91  1  0.04115000  0.35772000  0.14665000  1
  C  C92  1  0.45023000  0.80341000  1.00000000  1
  C  C93  1  0.45023000  0.45023000  0.64682000  1
  C  C94  1  0.80341000  0.80341000  0.35318000  1
  C  C95  1  0.80341000  0.45023000  1.00000000  1
  C  C96  1  0.17249000  0.94015000  0.85574000  1
  C  C97  1  0.17249000  0.31675000  0.23234000  1
  C  C98  1  0.31675000  0.08441000  0.14426000  1
  C  C99  1  0.31675000  0.17249000  0.23234000  1
  C  C100  1  0.94015000  0.08441000  0.76766000  1
  C  C101  1  0.94015000  0.17249000  0.85574000  1
  C  C102  1  0.08441000  0.94015000  0.76766000  1
  C  C103  1  0.08441000  0.31675000  0.14426000  1
  C  C104  1  0.27314000  0.77341000  0.77341000  1
  C  C105  1  0.27314000  0.49973000  0.49973000  1
  C  C106  1  0.49973000  0.00000000  0.22659000  1
  C  C107  1  0.49973000  0.27314000  0.49973000  1
  C  C108  1  0.77341000  0.00000000  0.50027000  1
  C  C109  1  0.77341000  0.27314000  0.77341000  1
  C  C110  1  0.00000000  0.77341000  0.50027000  1
  C  C111  1  0.00000000  0.49973000  0.22659000  1
  C  C112  1  0.50027000  0.77341000  1.00000000  1
  C  C113  1  0.50027000  0.50027000  0.72686000  1
  C  C114  1  0.77341000  0.77341000  0.27314000  1
  C  C115  1  0.77341000  0.50027000  1.00000000  1
  C  C116  1  0.28186000  0.81105000  0.81105000  1
  C  C117  1  0.28186000  0.47081000  0.47081000  1
  C  C118  1  0.47081000  0.00000000  0.18895000  1
  C  C119  1  0.47081000  0.28186000  0.47081000  1
  C  C120  1  0.81105000  0.00000000  0.52919000  1
  C  C121  1  0.81105000  0.28186000  0.81105000  1
  C  C122  1  1.00000000  0.81105000  0.52919000  1
  C  C123  1  1.00000000  0.47081000  0.18895000  1
  C  C124  1  0.42768000  0.87036000  1.00000000  1
  C  C125  1  0.42768000  0.42768000  0.55732000  1
  C  C126  1  0.87036000  0.87036000  0.44268000  1
  C  C127  1  0.87036000  0.42768000  1.00000000  1
  C  C128  1  0.30978000  0.77017000  0.77017000  1
  C  C129  1  0.30978000  0.53961000  0.53961000  1
  C  C130  1  0.53961000  0.00000000  0.22983000  1
  C  C131  1  0.53961000  0.30978000  0.53961000  1
  C  C132  1  0.77017000  0.00000000  0.46039000  1
  C  C133  1  0.77017000  0.30978000  0.77017000  1
  C  C134  1  1.00000000  0.77017000  0.46039000  1
  C  C135  1  1.00000000  0.53961000  0.22983000  1
  C  C136  1  0.47869000  0.84033000  0.00000000  1
  C  C137  1  0.47869000  0.47869000  0.63836000  1
  C  C138  1  0.84033000  0.84033000  0.36164000  1
  C  C139  1  0.84033000  0.47869000  0.00000000  1
  C  C140  1  0.32506000  0.84370000  0.84370000  1
  C  C141  1  0.32506000  0.48136000  0.48136000  1
  C  C142  1  0.48136000  0.00000000  0.15630000  1
  C  C143  1  0.48136000  0.32506000  0.48136000  1
  C  C144  1  0.84370000  0.00000000  0.51864000  1
  C  C145  1  0.84370000  0.32506000  0.84370000  1
  C  C146  1  0.00000000  0.84370000  0.51864000  1
  C  C147  1  0.00000000  0.48136000  0.15630000  1
  C  C148  1  0.52919000  0.81105000  1.00000000  1
  C  C149  1  0.52919000  0.52919000  0.71814000  1
  C  C150  1  0.81105000  0.81105000  0.28186000  1
  C  C151  1  0.81105000  0.52919000  1.00000000  1
  C  C152  1  0.46843000  0.87459000  1.00000000  1
  C  C153  1  0.46843000  0.46843000  0.59384000  1
  C  C154  1  0.87459000  0.87459000  0.40616000  1
  C  C155  1  0.87459000  0.46843000  0.00000000  1
  C  C156  1  0.35318000  0.80341000  0.80341000  1
  C  C157  1  0.35318000  0.54977000  0.54977000  1
  C  C158  1  0.54977000  0.00000000  0.19659000  1
  C  C159  1  0.54977000  0.35318000  0.54977000  1
  C  C160  1  0.80341000  0.00000000  0.45023000  1
  C  C161  1  0.80341000  0.35318000  0.80341000  1
  C  C162  1  1.00000000  0.80341000  0.45023000  1
  C  C163  1  1.00000000  0.54977000  0.19659000  1
  C  C164  1  0.36164000  0.84033000  0.84033000  1
  C  C165  1  0.36164000  0.52131000  0.52131000  1
  C  C166  1  0.52131000  0.00000000  0.15967000  1
  C  C167  1  0.52131000  0.36164000  0.52131000  1
  C  C168  1  0.84033000  0.00000000  0.47869000  1
  C  C169  1  0.84033000  0.36164000  0.84033000  1
  C  C170  1  1.00000000  0.84033000  0.47869000  1
  C  C171  1  1.00000000  0.52131000  0.15967000  1
  C  C172  1  0.51864000  0.84370000  0.00000000  1
  C  C173  1  0.51864000  0.51864000  0.67494000  1
  C  C174  1  0.84370000  0.84370000  0.32506000  1
  C  C175  1  0.84370000  0.51864000  1.00000000  1
  C  C176  1  0.23234000  0.05985000  0.91559000  1
  C  C177  1  0.23234000  0.31675000  0.17249000  1
  C  C178  1  0.31675000  0.14426000  0.08441000  1
  C  C179  1  0.31675000  0.23234000  0.17249000  1
  C  C180  1  0.05985000  0.14426000  0.82751000  1
  C  C181  1  0.05985000  0.23234000  0.91559000  1
  C  C182  1  0.14426000  0.05985000  0.82751000  1
  C  C183  1  0.14426000  0.31675000  0.08441000  1
  C  C184  1  0.27551000  0.10787000  1.00000000  1
  C  C185  1  0.27551000  0.27551000  0.16764000  1
  C  C186  1  0.10787000  0.10787000  0.83236000  1
  C  C187  1  0.10787000  0.27551000  0.00000000  1
  C  C188  1  0.57163000  0.81199000  1.00000000  1
  C  C189  1  0.57163000  0.57163000  0.75964000  1
  C  C190  1  0.81199000  0.81199000  0.24036000  1
  C  C191  1  0.81199000  0.57163000  0.00000000  1
  C  C192  1  0.39016000  0.79996000  0.79996000  1
  C  C193  1  0.39016000  0.59020000  0.59020000  1
  C  C194  1  0.59020000  0.00000000  0.20004000  1
  C  C195  1  0.59020000  0.39016000  0.59020000  1
  C  C196  1  0.79996000  0.00000000  0.40980000  1
  C  C197  1  0.79996000  0.39016000  0.79996000  1
  C  C198  1  1.00000000  0.79996000  0.40980000  1
  C  C199  1  1.00000000  0.59020000  0.20004000  1
  C  C200  1  0.40616000  0.87459000  0.87459000  1
  C  C201  1  0.40616000  0.53157000  0.53157000  1
  C  C202  1  0.53157000  0.00000000  0.12541000  1
  C  C203  1  0.53157000  0.40616000  0.53157000  1
  C  C204  1  0.87459000  0.00000000  0.46843000  1
  C  C205  1  0.87459000  0.40616000  0.87459000  1
  C  C206  1  0.00000000  0.87459000  0.46843000  1
  C  C207  1  0.00000000  0.53157000  0.12541000  1
  C  C208  1  0.27535000  0.09350000  0.95911000  1
  C  C209  1  0.27535000  0.31624000  0.18185000  1
  C  C210  1  0.31624000  0.13439000  0.04089000  1
  C  C211  1  0.31624000  0.27535000  0.18185000  1
  C  C212  1  0.09350000  0.13439000  0.81815000  1
  C  C213  1  0.09350000  0.27535000  0.95911000  1
  C  C214  1  0.13439000  0.09350000  0.81815000  1
  C  C215  1  0.13439000  0.31624000  0.04089000  1
  C  C216  1  0.43460000  0.83420000  0.83420000  1
  C  C217  1  0.43460000  0.60040000  0.60040000  1
  C  C218  1  0.60040000  0.00000000  0.16580000  1
  C  C219  1  0.60040000  0.43460000  0.60040000  1
  C  C220  1  0.83420000  0.00000000  0.39960000  1
  C  C221  1  0.83420000  0.43460000  0.83420000  1
  C  C222  1  0.00000000  0.83420000  0.39960000  1
  C  C223  1  0.00000000  0.60040000  0.16580000  1
  C  C224  1  0.44268000  0.87036000  0.87036000  1
  C  C225  1  0.44268000  0.57232000  0.57232000  1
  C  C226  1  0.57232000  0.00000000  0.12964000  1
  C  C227  1  0.57232000  0.44268000  0.57232000  1
  C  C228  1  0.87036000  0.00000000  0.42768000  1
  C  C229  1  0.87036000  0.44268000  0.87036000  1
  C  C230  1  1.00000000  0.87036000  0.42768000  1
  C  C231  1  1.00000000  0.57232000  0.12964000  1
  C  C232  1  0.25768000  0.00000000  0.79924000  1
  C  C233  1  0.25768000  0.45844000  0.25768000  1
  C  C234  1  0.45844000  0.20076000  0.20076000  1
  C  C235  1  0.45844000  0.25768000  0.25768000  1
  C  C236  1  1.00000000  0.20076000  0.74232000  1
  C  C237  1  1.00000000  0.25768000  0.79924000  1
  C  C238  1  0.20076000  0.00000000  0.74232000  1
  C  C239  1  0.20076000  0.45844000  0.20076000  1
  C  C240  1  0.31657000  0.10550000  0.95885000  1
  C  C241  1  0.31657000  0.35772000  0.21107000  1
  C  C242  1  0.35772000  0.14665000  0.04115000  1
  C  C243  1  0.35772000  0.31657000  0.21107000  1
  C  C244  1  0.10550000  0.14665000  0.78893000  1
  C  C245  1  0.10550000  0.31657000  0.95885000  1
  C  C246  1  0.14665000  0.10550000  0.78893000  1
  C  C247  1  0.14665000  0.35772000  0.04115000  1
  C  C248  1  0.46504000  0.79124000  0.79124000  1
  C  C249  1  0.46504000  0.67380000  0.67380000  1
  C  C250  1  0.67380000  0.00000000  0.20876000  1
  C  C251  1  0.67380000  0.46504000  0.67380000  1
  C  C252  1  0.79124000  0.00000000  0.32620000  1
  C  C253  1  0.79124000  0.46504000  0.79124000  1
  C  C254  1  1.00000000  0.79124000  0.32620000  1
  C  C255  1  1.00000000  0.67380000  0.20876000  1
  C  C256  1  0.46960000  0.73480000  0.73480000  1
  C  C257  1  0.73480000  0.00000000  0.26520000  1
  C  C258  1  0.73480000  0.46960000  0.73480000  1
  C  C259  1  1.00000000  0.73480000  0.26520000  1
  C  C260  1  0.35729000  0.13403000  1.00000000  1
  C  C261  1  0.35729000  0.35729000  0.22326000  1
  C  C262  1  0.13403000  0.13403000  0.77674000  1
  C  C263  1  0.13403000  0.35729000  1.00000000  1
  C  C264  1  0.49316000  0.77461000  0.77461000  1
  C  C265  1  0.49316000  0.71855000  0.71855000  1
  C  C266  1  0.71855000  0.00000000  0.22539000  1
  C  C267  1  0.71855000  0.49316000  0.71855000  1
  C  C268  1  0.77461000  0.00000000  0.28145000  1
  C  C269  1  0.77461000  0.49316000  0.77461000  1
  C  C270  1  1.00000000  0.77461000  0.28145000  1
  C  C271  1  1.00000000  0.71855000  0.22539000  1
  C  C272  1  0.28145000  0.00000000  0.77461000  1
  C  C273  1  0.28145000  0.50684000  0.28145000  1
  C  C274  1  0.50684000  0.22539000  0.22539000  1
  C  C275  1  0.50684000  0.28145000  0.28145000  1
  C  C276  1  1.00000000  0.22539000  0.71855000  1
  C  C277  1  1.00000000  0.28145000  0.77461000  1
  C  C278  1  0.22539000  0.00000000  0.71855000  1
  C  C279  1  0.22539000  0.50684000  0.22539000  1
  C  C280  1  0.64271000  0.86597000  1.00000000  1
  C  C281  1  0.64271000  0.64271000  0.77674000  1
  C  C282  1  0.86597000  0.86597000  0.22326000  1
  C  C283  1  0.86597000  0.64271000  1.00000000  1
  C  C284  1  0.26520000  0.00000000  0.73480000  1
  C  C285  1  0.26520000  0.53040000  0.26520000  1
  C  C286  1  0.53040000  0.26520000  0.26520000  1
  C  C287  1  0.00000000  0.26520000  0.73480000  1
  C  C288  1  0.32620000  0.00000000  0.79124000  1
  C  C289  1  0.32620000  0.53496000  0.32620000  1
  C  C290  1  0.53496000  0.20876000  0.20876000  1
  C  C291  1  0.53496000  0.32620000  0.32620000  1
  C  C292  1  1.00000000  0.20876000  0.67380000  1
  C  C293  1  1.00000000  0.32620000  0.79124000  1
  C  C294  1  0.20876000  0.00000000  0.67380000  1
  C  C295  1  0.20876000  0.53496000  0.20876000  1
  C  C296  1  0.64228000  0.85335000  0.95885000  1
  C  C297  1  0.64228000  0.68343000  0.78893000  1
  C  C298  1  0.68343000  0.89450000  0.04115000  1
  C  C299  1  0.68343000  0.64228000  0.78893000  1
  C  C300  1  0.85335000  0.89450000  0.21107000  1
  C  C301  1  0.85335000  0.64228000  0.95885000  1
  C  C302  1  0.89450000  0.85335000  0.21107000  1
  C  C303  1  0.89450000  0.68343000  0.04115000  1
  C  C304  1  0.54156000  0.79924000  0.79924000  1
  C  C305  1  0.54156000  0.74232000  0.74232000  1
  C  C306  1  0.74232000  0.00000000  0.20076000  1
  C  C307  1  0.74232000  0.54156000  0.74232000  1
  C  C308  1  0.79924000  0.00000000  0.25768000  1
  C  C309  1  0.79924000  0.54156000  0.79924000  1
  C  C310  1  1.00000000  0.79924000  0.25768000  1
  C  C311  1  1.00000000  0.74232000  0.20076000  1
  C  C312  1  0.42768000  0.00000000  0.87036000  1
  C  C313  1  0.42768000  0.55732000  0.42768000  1
  C  C314  1  0.55732000  0.12964000  0.12964000  1
  C  C315  1  0.55732000  0.42768000  0.42768000  1
  C  C316  1  0.00000000  0.12964000  0.57232000  1
  C  C317  1  0.00000000  0.42768000  0.87036000  1
  C  C318  1  0.12964000  0.00000000  0.57232000  1
  C  C319  1  0.12964000  0.55732000  0.12964000  1
  C  C320  1  0.39960000  1.00000000  0.83420000  1
  C  C321  1  0.39960000  0.56540000  0.39960000  1
  C  C322  1  0.56540000  0.16580000  0.16580000  1
  C  C323  1  0.56540000  0.39960000  0.39960000  1
  C  C324  1  0.00000000  0.16580000  0.60040000  1
  C  C325  1  0.00000000  0.39960000  0.83420000  1
  C  C326  1  0.16580000  0.00000000  0.60040000  1
  C  C327  1  0.16580000  0.56540000  0.16580000  1
  C  C328  1  0.68376000  0.86561000  0.95911000  1
  C  C329  1  0.68376000  0.72465000  0.81815000  1
  C  C330  1  0.72465000  0.90650000  0.04089000  1
  C  C331  1  0.72465000  0.68376000  0.81815000  1
  C  C332  1  0.86561000  0.90650000  0.18185000  1
  C  C333  1  0.86561000  0.68376000  0.95911000  1
  C  C334  1  0.90650000  0.86561000  0.18185000  1
  C  C335  1  0.90650000  0.72465000  0.04089000  1
  C  C336  1  0.46843000  0.00000000  0.87459000  1
  C  C337  1  0.46843000  0.59384000  0.46843000  1
  C  C338  1  0.59384000  0.12541000  0.12541000  1
  C  C339  1  0.59384000  0.46843000  0.46843000  1
  C  C340  1  1.00000000  0.12541000  0.53157000  1
  C  C341  1  1.00000000  0.46843000  0.87459000  1
  C  C342  1  0.12541000  0.00000000  0.53157000  1
  C  C343  1  0.12541000  0.59384000  0.12541000  1
  C  C344  1  0.40980000  0.00000000  0.79996000  1
  C  C345  1  0.40980000  0.60984000  0.40980000  1
  C  C346  1  0.60984000  0.20004000  0.20004000  1
  C  C347  1  0.60984000  0.40980000  0.40980000  1
  C  C348  1  1.00000000  0.20004000  0.59020000  1
  C  C349  1  1.00000000  0.40980000  0.79996000  1
  C  C350  1  0.20004000  0.00000000  0.59020000  1
  C  C351  1  0.20004000  0.60984000  0.20004000  1
  C  C352  1  0.42837000  0.18801000  1.00000000  1
  C  C353  1  0.42837000  0.42837000  0.24036000  1
  C  C354  1  0.18801000  0.18801000  0.75964000  1
  C  C355  1  0.18801000  0.42837000  0.00000000  1
  C  C356  1  0.72449000  0.89213000  1.00000000  1
  C  C357  1  0.72449000  0.72449000  0.83236000  1
  C  C358  1  0.89213000  0.89213000  0.16764000  1
  C  C359  1  0.89213000  0.72449000  1.00000000  1
  C  C360  1  0.68325000  0.85574000  0.91559000  1
  C  C361  1  0.68325000  0.76766000  0.82751000  1
  C  C362  1  0.76766000  0.94015000  0.08441000  1
  C  C363  1  0.76766000  0.68325000  0.82751000  1
  C  C364  1  0.85574000  0.94015000  0.17249000  1
  C  C365  1  0.85574000  0.68325000  0.91559000  1
  C  C366  1  0.94015000  0.85574000  0.17249000  1
  C  C367  1  0.94015000  0.76766000  0.08441000  1
  C  C368  1  0.48136000  0.15630000  1.00000000  1
  C  C369  1  0.48136000  0.48136000  0.32506000  1
  C  C370  1  0.15630000  0.15630000  0.67494000  1
  C  C371  1  0.15630000  0.48136000  1.00000000  1
  C  C372  1  0.47869000  0.00000000  0.84033000  1
  C  C373  1  0.47869000  0.63836000  0.47869000  1
  C  C374  1  0.63836000  0.15967000  0.15967000  1
  C  C375  1  0.63836000  0.47869000  0.47869000  1
  C  C376  1  0.00000000  0.15967000  0.52131000  1
  C  C377  1  0.00000000  0.47869000  0.84033000  1
  C  C378  1  0.15967000  0.00000000  0.52131000  1
  C  C379  1  0.15967000  0.63836000  0.15967000  1
  C  C380  1  0.45023000  0.00000000  0.80341000  1
  C  C381  1  0.45023000  0.64682000  0.45023000  1
  C  C382  1  0.64682000  0.19659000  0.19659000  1
  C  C383  1  0.64682000  0.45023000  0.45023000  1
  C  C384  1  0.00000000  0.19659000  0.54977000  1
  C  C385  1  0.00000000  0.45023000  0.80341000  1
  C  C386  1  0.19659000  0.00000000  0.54977000  1
  C  C387  1  0.19659000  0.64682000  0.19659000  1
  C  C388  1  0.53157000  0.12541000  1.00000000  1
  C  C389  1  0.53157000  0.53157000  0.40616000  1
  C  C390  1  0.12541000  0.12541000  0.59384000  1
  C  C391  1  0.12541000  0.53157000  1.00000000  1
  C  C392  1  0.47081000  0.18895000  1.00000000  1
  C  C393  1  0.47081000  0.47081000  0.28186000  1
  C  C394  1  0.18895000  0.18895000  0.71814000  1
  C  C395  1  0.18895000  0.47081000  0.00000000  1
  C  C396  1  0.51864000  0.00000000  0.84370000  1
  C  C397  1  0.51864000  0.67494000  0.51864000  1
  C  C398  1  0.67494000  0.15630000  0.15630000  1
  C  C399  1  0.67494000  0.51864000  0.51864000  1
  C  C400  1  0.00000000  0.15630000  0.48136000  1
  C  C401  1  0.00000000  0.51864000  0.84370000  1
  C  C402  1  0.15630000  1.00000000  0.48136000  1
  C  C403  1  0.15630000  0.67494000  0.15630000  1
  C  C404  1  0.52131000  0.15967000  1.00000000  1
  C  C405  1  0.52131000  0.52131000  0.36164000  1
  C  C406  1  0.15967000  0.15967000  0.63836000  1
  C  C407  1  0.15967000  0.52131000  0.00000000  1
  C  C408  1  0.46039000  0.00000000  0.77017000  1
  C  C409  1  0.46039000  0.69022000  0.46039000  1
  C  C410  1  0.69022000  0.22983000  0.22983000  1
  C  C411  1  0.69022000  0.46039000  0.46039000  1
  C  C412  1  0.00000000  0.22983000  0.53961000  1
  C  C413  1  0.00000000  0.46039000  0.77017000  1
  C  C414  1  0.22983000  0.00000000  0.53961000  1
  C  C415  1  0.22983000  0.69022000  0.22983000  1
  C  C416  1  0.57232000  0.12964000  1.00000000  1
  C  C417  1  0.57232000  0.57232000  0.44268000  1
  C  C418  1  0.12964000  0.12964000  0.55732000  1
  C  C419  1  0.12964000  0.57232000  0.00000000  1
  C  C420  1  0.52919000  0.00000000  0.81105000  1
  C  C421  1  0.52919000  0.71814000  0.52919000  1
  C  C422  1  0.71814000  0.18895000  0.18895000  1
  C  C423  1  0.71814000  0.52919000  0.52919000  1
  C  C424  1  1.00000000  0.18895000  0.47081000  1
  C  C425  1  1.00000000  0.52919000  0.81105000  1
  C  C426  1  0.18895000  0.00000000  0.47081000  1
  C  C427  1  0.18895000  0.71814000  0.18895000  1
  C  C428  1  0.49973000  0.22659000  1.00000000  1
  C  C429  1  0.49973000  0.49973000  0.27314000  1
  C  C430  1  0.22659000  0.22659000  0.72686000  1
  C  C431  1  0.22659000  0.49973000  0.00000000  1
  C  C432  1  0.50027000  0.00000000  0.77341000  1
  C  C433  1  0.50027000  0.72686000  0.50027000  1
  C  C434  1  0.72686000  0.22659000  0.22659000  1
  C  C435  1  0.72686000  0.50027000  0.50027000  1
  C  C436  1  1.00000000  0.22659000  0.49973000  1
  C  C437  1  1.00000000  0.50027000  0.77341000  1
  C  C438  1  0.22659000  0.00000000  0.49973000  1
  C  C439  1  0.22659000  0.72686000  0.22659000  1
  C  C440  1  0.68325000  0.91559000  0.85574000  1
  C  C441  1  0.68325000  0.82751000  0.76766000  1
  C  C442  1  0.82751000  0.05985000  0.14426000  1
  C  C443  1  0.82751000  0.68325000  0.76766000  1
  C  C444  1  0.91559000  0.05985000  0.23234000  1
  C  C445  1  0.91559000  0.68325000  0.85574000  1
  C  C446  1  0.05985000  0.91559000  0.23234000  1
  C  C447  1  0.05985000  0.82751000  0.14426000  1
  C  C448  1  0.54977000  0.19659000  1.00000000  1
  C  C449  1  0.54977000  0.54977000  0.35318000  1
  C  C450  1  0.19659000  0.19659000  0.64682000  1
  C  C451  1  0.19659000  0.54977000  1.00000000  1
  C  C452  1  0.64228000  0.95885000  0.85335000  1
  C  C453  1  0.64228000  0.78893000  0.68343000  1
  C  C454  1  0.78893000  0.10550000  0.14665000  1
  C  C455  1  0.78893000  0.64228000  0.68343000  1
  C  C456  1  0.95885000  0.10550000  0.31657000  1
  C  C457  1  0.95885000  0.64228000  0.85335000  1
  C  C458  1  0.10550000  0.95885000  0.31657000  1
  C  C459  1  0.10550000  0.78893000  0.14665000  1
  C  C460  1  0.57163000  0.00000000  0.81199000  1
  C  C461  1  0.57163000  0.75964000  0.57163000  1
  C  C462  1  0.75964000  0.18801000  0.18801000  1
  C  C463  1  0.75964000  0.57163000  0.57163000  1
  C  C464  1  0.00000000  0.18801000  0.42837000  1
  C  C465  1  0.00000000  0.57163000  0.81199000  1
  C  C466  1  0.18801000  0.00000000  0.42837000  1
  C  C467  1  0.18801000  0.75964000  0.18801000  1
  C  C468  1  0.60040000  0.16580000  1.00000000  1
  C  C469  1  0.60040000  0.60040000  0.43460000  1
  C  C470  1  0.16580000  0.16580000  0.56540000  1
  C  C471  1  0.16580000  0.60040000  1.00000000  1
  C  C472  1  0.53961000  0.22983000  1.00000000  1
  C  C473  1  0.53961000  0.53961000  0.30978000  1
  C  C474  1  0.22983000  0.22983000  0.69022000  1
  C  C475  1  0.22983000  0.53961000  1.00000000  1
  C  C476  1  0.64271000  0.00000000  0.86597000  1
  C  C477  1  0.64271000  0.77674000  0.64271000  1
  C  C478  1  0.77674000  0.13403000  0.13403000  1
  C  C479  1  0.77674000  0.64271000  0.64271000  1
  C  C480  1  0.00000000  0.13403000  0.35729000  1
  C  C481  1  0.00000000  0.64271000  0.86597000  1
  C  C482  1  0.13403000  0.00000000  0.35729000  1
  C  C483  1  0.13403000  0.77674000  0.13403000  1
  C  C484  1  0.68376000  0.95911000  0.86561000  1
  C  C485  1  0.68376000  0.81815000  0.72465000  1
  C  C486  1  0.81815000  0.09350000  0.13439000  1
  C  C487  1  0.81815000  0.68376000  0.72465000  1
  C  C488  1  0.95911000  0.09350000  0.27535000  1
  C  C489  1  0.95911000  0.68376000  0.86561000  1
  C  C490  1  0.09350000  0.95911000  0.27535000  1
  C  C491  1  0.09350000  0.81815000  0.13439000  1
  C  C492  1  0.59020000  0.20004000  0.00000000  1
  C  C493  1  0.59020000  0.59020000  0.39016000  1
  C  C494  1  0.20004000  0.20004000  0.60984000  1
  C  C495  1  0.20004000  0.59020000  0.00000000  1
  C  C496  1  0.68343000  0.04115000  0.89450000  1
  C  C497  1  0.68343000  0.78893000  0.64228000  1
  C  C498  1  0.78893000  0.14665000  0.10550000  1
  C  C499  1  0.78893000  0.68343000  0.64228000  1
  C  C500  1  0.04115000  0.14665000  0.35772000  1
  C  C501  1  0.04115000  0.68343000  0.89450000  1
  C  C502  1  0.14665000  0.04115000  0.35772000  1
  C  C503  1  0.14665000  0.78893000  0.10550000  1
  C  C504  1  0.72449000  0.00000000  0.89213000  1
  C  C505  1  0.72449000  0.83236000  0.72449000  1
  C  C506  1  0.83236000  0.10787000  0.10787000  1
  C  C507  1  0.83236000  0.72449000  0.72449000  1
  C  C508  1  0.00000000  0.10787000  0.27551000  1
  C  C509  1  0.00000000  0.72449000  0.89213000  1
  C  C510  1  0.10787000  0.00000000  0.27551000  1
  C  C511  1  0.10787000  0.83236000  0.10787000  1
  C  C512  1  0.72465000  0.04089000  0.90650000  1
  C  C513  1  0.72465000  0.81815000  0.68376000  1
  C  C514  1  0.81815000  0.13439000  0.09350000  1
  C  C515  1  0.81815000  0.72465000  0.68376000  1
  C  C516  1  0.04089000  0.13439000  0.31624000  1
  C  C517  1  0.04089000  0.72465000  0.90650000  1
  C  C518  1  0.13439000  0.04089000  0.31624000  1
  C  C519  1  0.13439000  0.81815000  0.09350000  1
  C  C520  1  0.67380000  0.20876000  0.00000000  1
  C  C521  1  0.67380000  0.67380000  0.46504000  1
  C  C522  1  0.20876000  0.20876000  0.53496000  1
  C  C523  1  0.20876000  0.67380000  1.00000000  1
  C  C524  1  0.76766000  0.08441000  0.94015000  1
  C  C525  1  0.76766000  0.82751000  0.68325000  1
  C  C526  1  0.82751000  0.14426000  0.05985000  1
  C  C527  1  0.82751000  0.76766000  0.68325000  1
  C  C528  1  0.08441000  0.14426000  0.31675000  1
  C  C529  1  0.08441000  0.76766000  0.94015000  1
  C  C530  1  0.14426000  0.08441000  0.31675000  1
  C  C531  1  0.14426000  0.82751000  0.05985000  1
  C  C532  1  0.74232000  0.20076000  1.00000000  1
  C  C533  1  0.74232000  0.74232000  0.54156000  1
  C  C534  1  0.20076000  0.20076000  0.45844000  1
  C  C535  1  0.20076000  0.74232000  1.00000000  1
  C  C536  1  0.71855000  0.22539000  1.00000000  1
  C  C537  1  0.71855000  0.71855000  0.49316000  1
  C  C538  1  0.22539000  0.22539000  0.50684000  1
  C  C539  1  0.22539000  0.71855000  1.00000000  1
  Cu  Cu540  1  0.13616000  0.86384000  1.00000000  1
  Cu  Cu541  1  0.13616000  0.13616000  0.27232000  1
  Cu  Cu542  1  0.18119000  0.81881000  1.00000000  1
  Cu  Cu543  1  0.18119000  0.18119000  0.36238000  1
  Cu  Cu544  1  0.81881000  0.81881000  0.63762000  1
  Cu  Cu545  1  0.81881000  0.18119000  1.00000000  1
  Cu  Cu546  1  0.86384000  0.86384000  0.72768000  1
  Cu  Cu547  1  0.86384000  0.13616000  1.00000000  1
  Cu  Cu548  1  0.13616000  0.00000000  0.86384000  1
  Cu  Cu549  1  0.13616000  0.27232000  0.13616000  1
  Cu  Cu550  1  0.27232000  0.13616000  0.13616000  1
  Cu  Cu551  1  0.00000000  0.13616000  0.86384000  1
  Cu  Cu552  1  0.18119000  1.00000000  0.81881000  1
  Cu  Cu553  1  0.18119000  0.36238000  0.18119000  1
  Cu  Cu554  1  0.36238000  0.18119000  0.18119000  1
  Cu  Cu555  1  0.00000000  0.18119000  0.81881000  1
  Cu  Cu556  1  0.63762000  0.81881000  0.81881000  1
  Cu  Cu557  1  0.81881000  0.00000000  0.18119000  1
  Cu  Cu558  1  0.81881000  0.63762000  0.81881000  1
  Cu  Cu559  1  1.00000000  0.81881000  0.18119000  1
  Cu  Cu560  1  0.72768000  0.86384000  0.86384000  1
  Cu  Cu561  1  0.86384000  0.00000000  0.13616000  1
  Cu  Cu562  1  0.86384000  0.72768000  0.86384000  1
  Cu  Cu563  1  1.00000000  0.86384000  0.13616000  1
  H  H564  1  0.28140000  0.71860000  1.00000000  1
  H  H565  1  0.28140000  0.28140000  0.56280000  1
  H  H566  1  0.71860000  0.71860000  0.43720000  1
  H  H567  1  0.71860000  0.28140000  1.00000000  1
  H  H568  1  0.26930000  0.82710000  0.00000000  1
  H  H569  1  0.26930000  0.26930000  0.44220000  1
  H  H570  1  0.82710000  0.82710000  0.55780000  1
  H  H571  1  0.82710000  0.26930000  1.00000000  1
  H  H572  1  0.14800000  0.90050000  0.90050000  1
  H  H573  1  0.14800000  0.24750000  0.24750000  1
  H  H574  1  0.24750000  0.00000000  0.09950000  1
  H  H575  1  0.24750000  0.14800000  0.24750000  1
  H  H576  1  0.90050000  0.00000000  0.75250000  1
  H  H577  1  0.90050000  0.14800000  0.90050000  1
  H  H578  1  1.00000000  0.90050000  0.75250000  1
  H  H579  1  1.00000000  0.24750000  0.09950000  1
  H  H580  1  0.22230000  0.83660000  0.90570000  1
  H  H581  1  0.22230000  0.31660000  0.38570000  1
  H  H582  1  0.31660000  0.93090000  0.09430000  1
  H  H583  1  0.31660000  0.22230000  0.38570000  1
  H  H584  1  0.83660000  0.93090000  0.61430000  1
  H  H585  1  0.83660000  0.22230000  0.90570000  1
  H  H586  1  0.93090000  0.83660000  0.61430000  1
  H  H587  1  0.93090000  0.31660000  0.09430000  1
  H  H588  1  0.38990000  0.77470000  0.00000000  1
  H  H589  1  0.38990000  0.38990000  0.61520000  1
  H  H590  1  0.77470000  0.77470000  0.38480000  1
  H  H591  1  0.77470000  0.38990000  1.00000000  1
  H  H592  1  0.44050000  0.74490000  1.00000000  1
  H  H593  1  0.44050000  0.44050000  0.69560000  1
  H  H594  1  0.74490000  0.74490000  0.30440000  1
  H  H595  1  0.74490000  0.44050000  1.00000000  1
  H  H596  1  0.34690000  0.85050000  1.00000000  1
  H  H597  1  0.34690000  0.34690000  0.49640000  1
  H  H598  1  0.85050000  0.85050000  0.50360000  1
  H  H599  1  0.85050000  0.34690000  1.00000000  1
  H  H600  1  0.24260000  0.75040000  0.75040000  1
  H  H601  1  0.24260000  0.49220000  0.49220000  1
  H  H602  1  0.49220000  0.00000000  0.24960000  1
  H  H603  1  0.49220000  0.24260000  0.49220000  1
  H  H604  1  0.75040000  0.00000000  0.50780000  1
  H  H605  1  0.75040000  0.24260000  0.75040000  1
  H  H606  1  0.00000000  0.75040000  0.50780000  1
  H  H607  1  0.00000000  0.49220000  0.24960000  1
  H  H608  1  0.27210000  0.85060000  0.87590000  1
  H  H609  1  0.27210000  0.39620000  0.42150000  1
  H  H610  1  0.39620000  0.97470000  0.12410000  1
  H  H611  1  0.39620000  0.27210000  0.42150000  1
  H  H612  1  0.85060000  0.97470000  0.57850000  1
  H  H613  1  0.85060000  0.27210000  0.87590000  1
  H  H614  1  0.97470000  0.85060000  0.57850000  1
  H  H615  1  0.97470000  0.39620000  0.12410000  1
  H  H616  1  0.50780000  0.75040000  1.00000000  1
  H  H617  1  0.50780000  0.50780000  0.75740000  1
  H  H618  1  0.75040000  0.75040000  0.24260000  1
  H  H619  1  0.75040000  0.50780000  1.00000000  1
  H  H620  1  0.22230000  0.90570000  0.83660000  1
  H  H621  1  0.22230000  0.38570000  0.31660000  1
  H  H622  1  0.38570000  0.06910000  0.16340000  1
  H  H623  1  0.38570000  0.22230000  0.31660000  1
  H  H624  1  0.90570000  0.06910000  0.68340000  1
  H  H625  1  0.90570000  0.22230000  0.83660000  1
  H  H626  1  0.06910000  0.90570000  0.68340000  1
  H  H627  1  0.06910000  0.38570000  0.16340000  1
  H  H628  1  0.27210000  0.87590000  0.85060000  1
  H  H629  1  0.27210000  0.42150000  0.39620000  1
  H  H630  1  0.42150000  0.02530000  0.14940000  1
  H  H631  1  0.42150000  0.27210000  0.39620000  1
  H  H632  1  0.87590000  0.02530000  0.60380000  1
  H  H633  1  0.87590000  0.27210000  0.85060000  1
  H  H634  1  0.02530000  0.87590000  0.60380000  1
  H  H635  1  0.02530000  0.42150000  0.14940000  1
  H  H636  1  0.30440000  0.74490000  0.74490000  1
  H  H637  1  0.30440000  0.55950000  0.55950000  1
  H  H638  1  0.55950000  0.00000000  0.25510000  1
  H  H639  1  0.55950000  0.30440000  0.55950000  1
  H  H640  1  0.74490000  0.00000000  0.44050000  1
  H  H641  1  0.74490000  0.30440000  0.74490000  1
  H  H642  1  0.00000000  0.74490000  0.44050000  1
  H  H643  1  0.00000000  0.55950000  0.25510000  1
  H  H644  1  0.42000000  0.89320000  1.00000000  1
  H  H645  1  0.42000000  0.42000000  0.52680000  1
  H  H646  1  0.89320000  0.89320000  0.47320000  1
  H  H647  1  0.89320000  0.42000000  1.00000000  1
  H  H648  1  0.33080000  0.86910000  0.86910000  1
  H  H649  1  0.33080000  0.46170000  0.46170000  1
  H  H650  1  0.46170000  0.00000000  0.13090000  1
  H  H651  1  0.46170000  0.33080000  0.46170000  1
  H  H652  1  0.86910000  0.00000000  0.53830000  1
  H  H653  1  0.86910000  0.33080000  0.86910000  1
  H  H654  1  1.00000000  0.86910000  0.53830000  1
  H  H655  1  1.00000000  0.46170000  0.13090000  1
  H  H656  1  0.24750000  0.09950000  1.00000000  1
  H  H657  1  0.24750000  0.24750000  0.14800000  1
  H  H658  1  0.09950000  0.09950000  0.85200000  1
  H  H659  1  0.09950000  0.24750000  1.00000000  1
  H  H660  1  0.38480000  0.77470000  0.77470000  1
  H  H661  1  0.38480000  0.61010000  0.61010000  1
  H  H662  1  0.61010000  0.00000000  0.22530000  1
  H  H663  1  0.61010000  0.38480000  0.61010000  1
  H  H664  1  0.77470000  0.00000000  0.38990000  1
  H  H665  1  0.77470000  0.38480000  0.77470000  1
  H  H666  1  0.00000000  0.77470000  0.38990000  1
  H  H667  1  0.00000000  0.61010000  0.22530000  1
  H  H668  1  0.48820000  0.90000000  1.00000000  1
  H  H669  1  0.48820000  0.48820000  0.58820000  1
  H  H670  1  0.90000000  0.90000000  0.41180000  1
  H  H671  1  0.90000000  0.48820000  1.00000000  1
  H  H672  1  0.53830000  0.86910000  1.00000000  1
  H  H673  1  0.53830000  0.53830000  0.66920000  1
  H  H674  1  0.86910000  0.86910000  0.33080000  1
  H  H675  1  0.86910000  0.53830000  1.00000000  1
  H  H676  1  0.41180000  0.90000000  0.90000000  1
  H  H677  1  0.41180000  0.51180000  0.51180000  1
  H  H678  1  0.51180000  0.00000000  0.10000000  1
  H  H679  1  0.51180000  0.41180000  0.51180000  1
  H  H680  1  0.90000000  0.00000000  0.48820000  1
  H  H681  1  0.90000000  0.41180000  0.90000000  1
  H  H682  1  0.00000000  0.90000000  0.48820000  1
  H  H683  1  0.00000000  0.51180000  0.10000000  1
  H  H684  1  0.43720000  0.71860000  0.71860000  1
  H  H685  1  0.71860000  0.00000000  0.28140000  1
  H  H686  1  0.71860000  0.43720000  0.71860000  1
  H  H687  1  1.00000000  0.71860000  0.28140000  1
  H  H688  1  0.26930000  0.00000000  0.82710000  1
  H  H689  1  0.26930000  0.44220000  0.26930000  1
  H  H690  1  0.44220000  0.17290000  0.17290000  1
  H  H691  1  0.44220000  0.26930000  0.26930000  1
  H  H692  1  1.00000000  0.17290000  0.73070000  1
  H  H693  1  1.00000000  0.26930000  0.82710000  1
  H  H694  1  0.17290000  0.00000000  0.73070000  1
  H  H695  1  0.17290000  0.44220000  0.17290000  1
  H  H696  1  0.57850000  0.85060000  0.97470000  1
  H  H697  1  0.57850000  0.60380000  0.72790000  1
  H  H698  1  0.60380000  0.87590000  0.02530000  1
  H  H699  1  0.60380000  0.57850000  0.72790000  1
  H  H700  1  0.85060000  0.87590000  0.27210000  1
  H  H701  1  0.85060000  0.57850000  0.97470000  1
  H  H702  1  0.87590000  0.85060000  0.27210000  1
  H  H703  1  0.87590000  0.60380000  0.02530000  1
  H  H704  1  0.47320000  0.89320000  0.89320000  1
  H  H705  1  0.47320000  0.58000000  0.58000000  1
  H  H706  1  0.58000000  0.00000000  0.10680000  1
  H  H707  1  0.58000000  0.47320000  0.58000000  1
  H  H708  1  0.89320000  0.00000000  0.42000000  1
  H  H709  1  0.89320000  0.47320000  0.89320000  1
  H  H710  1  1.00000000  0.89320000  0.42000000  1
  H  H711  1  1.00000000  0.58000000  0.10680000  1
  H  H712  1  0.31660000  0.09430000  0.93090000  1
  H  H713  1  0.31660000  0.38570000  0.22230000  1
  H  H714  1  0.38570000  0.16340000  0.06910000  1
  H  H715  1  0.38570000  0.31660000  0.22230000  1
  H  H716  1  0.09430000  0.16340000  0.77770000  1
  H  H717  1  0.09430000  0.31660000  0.93090000  1
  H  H718  1  0.16340000  0.09430000  0.77770000  1
  H  H719  1  0.16340000  0.38570000  0.06910000  1
  H  H720  1  0.34690000  0.00000000  0.85050000  1
  H  H721  1  0.34690000  0.49640000  0.34690000  1
  H  H722  1  0.49640000  0.14950000  0.14950000  1
  H  H723  1  0.49640000  0.34690000  0.34690000  1
  H  H724  1  0.00000000  0.14950000  0.65310000  1
  H  H725  1  0.00000000  0.34690000  0.85050000  1
  H  H726  1  0.14950000  1.00000000  0.65310000  1
  H  H727  1  0.14950000  0.49640000  0.14950000  1
  H  H728  1  0.50360000  0.85050000  0.85050000  1
  H  H729  1  0.50360000  0.65310000  0.65310000  1
  H  H730  1  0.65310000  0.00000000  0.14950000  1
  H  H731  1  0.65310000  0.50360000  0.65310000  1
  H  H732  1  0.85050000  0.00000000  0.34690000  1
  H  H733  1  0.85050000  0.50360000  0.85050000  1
  H  H734  1  1.00000000  0.85050000  0.34690000  1
  H  H735  1  1.00000000  0.65310000  0.14950000  1
  H  H736  1  0.61430000  0.83660000  0.93090000  1
  H  H737  1  0.61430000  0.68340000  0.77770000  1
  H  H738  1  0.68340000  0.90570000  0.06910000  1
  H  H739  1  0.68340000  0.61430000  0.77770000  1
  H  H740  1  0.83660000  0.90570000  0.22230000  1
  H  H741  1  0.83660000  0.61430000  0.93090000  1
  H  H742  1  0.90570000  0.83660000  0.22230000  1
  H  H743  1  0.90570000  0.68340000  0.06910000  1
  H  H744  1  0.42000000  1.00000000  0.89320000  1
  H  H745  1  0.42000000  0.52680000  0.42000000  1
  H  H746  1  0.52680000  0.10680000  0.10680000  1
  H  H747  1  0.52680000  0.42000000  0.42000000  1
  H  H748  1  0.00000000  0.10680000  0.58000000  1
  H  H749  1  0.00000000  0.42000000  0.89320000  1
  H  H750  1  0.10680000  1.00000000  0.58000000  1
  H  H751  1  0.10680000  0.52680000  0.10680000  1
  H  H752  1  0.39620000  0.12410000  0.97470000  1
  H  H753  1  0.39620000  0.42150000  0.27210000  1
  H  H754  1  0.42150000  0.14940000  0.02530000  1
  H  H755  1  0.42150000  0.39620000  0.27210000  1
  H  H756  1  0.12410000  0.14940000  0.72790000  1
  H  H757  1  0.12410000  0.39620000  0.97470000  1
  H  H758  1  0.14940000  0.12410000  0.72790000  1
  H  H759  1  0.14940000  0.42150000  0.02530000  1
  H  H760  1  0.55780000  0.82710000  0.82710000  1
  H  H761  1  0.55780000  0.73070000  0.73070000  1
  H  H762  1  0.73070000  0.00000000  0.17290000  1
  H  H763  1  0.73070000  0.55780000  0.73070000  1
  H  H764  1  0.82710000  0.00000000  0.26930000  1
  H  H765  1  0.82710000  0.55780000  0.82710000  1
  H  H766  1  0.00000000  0.82710000  0.26930000  1
  H  H767  1  0.00000000  0.73070000  0.17290000  1
  H  H768  1  0.28140000  0.00000000  0.71860000  1
  H  H769  1  0.28140000  0.56280000  0.28140000  1
  H  H770  1  0.56280000  0.28140000  0.28140000  1
  H  H771  1  1.00000000  0.28140000  0.71860000  1
  H  H772  1  0.48820000  1.00000000  0.90000000  1
  H  H773  1  0.48820000  0.58820000  0.48820000  1
  H  H774  1  0.58820000  0.10000000  0.10000000  1
  H  H775  1  0.58820000  0.48820000  0.48820000  1
  H  H776  1  0.00000000  0.10000000  0.51180000  1
  H  H777  1  0.00000000  0.48820000  0.90000000  1
  H  H778  1  0.10000000  1.00000000  0.51180000  1
  H  H779  1  0.10000000  0.58820000  0.10000000  1
  H  H780  1  0.46170000  0.13090000  1.00000000  1
  H  H781  1  0.46170000  0.46170000  0.33080000  1
  H  H782  1  0.13090000  0.13090000  0.66920000  1
  H  H783  1  0.13090000  0.46170000  1.00000000  1
  H  H784  1  0.51180000  0.10000000  1.00000000  1
  H  H785  1  0.51180000  0.51180000  0.41180000  1
  H  H786  1  0.10000000  0.10000000  0.58820000  1
  H  H787  1  0.10000000  0.51180000  1.00000000  1
  H  H788  1  0.38990000  0.00000000  0.77470000  1
  H  H789  1  0.38990000  0.61520000  0.38990000  1
  H  H790  1  0.61520000  0.22530000  0.22530000  1
  H  H791  1  0.61520000  0.38990000  0.38990000  1
  H  H792  1  1.00000000  0.22530000  0.61010000  1
  H  H793  1  1.00000000  0.38990000  0.77470000  1
  H  H794  1  0.22530000  0.00000000  0.61010000  1
  H  H795  1  0.22530000  0.61520000  0.22530000  1
  H  H796  1  0.75250000  0.90050000  1.00000000  1
  H  H797  1  0.75250000  0.75250000  0.85200000  1
  H  H798  1  0.90050000  0.90050000  0.14800000  1
  H  H799  1  0.90050000  0.75250000  1.00000000  1
  H  H800  1  0.53830000  0.00000000  0.86910000  1
  H  H801  1  0.53830000  0.66920000  0.53830000  1
  H  H802  1  0.66920000  0.13090000  0.13090000  1
  H  H803  1  0.66920000  0.53830000  0.53830000  1
  H  H804  1  0.00000000  0.13090000  0.46170000  1
  H  H805  1  0.00000000  0.53830000  0.86910000  1
  H  H806  1  0.13090000  0.00000000  0.46170000  1
  H  H807  1  0.13090000  0.66920000  0.13090000  1
  H  H808  1  0.58000000  0.10680000  1.00000000  1
  H  H809  1  0.58000000  0.58000000  0.47320000  1
  H  H810  1  0.10680000  0.10680000  0.52680000  1
  H  H811  1  0.10680000  0.58000000  1.00000000  1
  H  H812  1  0.44050000  1.00000000  0.74490000  1
  H  H813  1  0.44050000  0.69560000  0.44050000  1
  H  H814  1  0.69560000  0.25510000  0.25510000  1
  H  H815  1  0.69560000  0.44050000  0.44050000  1
  H  H816  1  0.00000000  0.25510000  0.55950000  1
  H  H817  1  0.00000000  0.44050000  0.74490000  1
  H  H818  1  0.25510000  0.00000000  0.55950000  1
  H  H819  1  0.25510000  0.69560000  0.25510000  1
  H  H820  1  0.57850000  0.97470000  0.85060000  1
  H  H821  1  0.57850000  0.72790000  0.60380000  1
  H  H822  1  0.72790000  0.12410000  0.14940000  1
  H  H823  1  0.72790000  0.57850000  0.60380000  1
  H  H824  1  0.97470000  0.12410000  0.39620000  1
  H  H825  1  0.97470000  0.57850000  0.85060000  1
  H  H826  1  0.12410000  0.97470000  0.39620000  1
  H  H827  1  0.12410000  0.72790000  0.14940000  1
  H  H828  1  0.61430000  0.93090000  0.83660000  1
  H  H829  1  0.61430000  0.77770000  0.68340000  1
  H  H830  1  0.77770000  0.09430000  0.16340000  1
  H  H831  1  0.77770000  0.61430000  0.68340000  1
  H  H832  1  0.93090000  0.09430000  0.31660000  1
  H  H833  1  0.93090000  0.61430000  0.83660000  1
  H  H834  1  0.09430000  0.93090000  0.31660000  1
  H  H835  1  0.09430000  0.77770000  0.16340000  1
  H  H836  1  0.49220000  0.24960000  1.00000000  1
  H  H837  1  0.49220000  0.49220000  0.24260000  1
  H  H838  1  0.24960000  0.24960000  0.75740000  1
  H  H839  1  0.24960000  0.49220000  0.00000000  1
  H  H840  1  0.60380000  0.02530000  0.87590000  1
  H  H841  1  0.60380000  0.72790000  0.57850000  1
  H  H842  1  0.72790000  0.14940000  0.12410000  1
  H  H843  1  0.72790000  0.60380000  0.57850000  1
  H  H844  1  0.02530000  0.14940000  0.42150000  1
  H  H845  1  0.02530000  0.60380000  0.87590000  1
  H  H846  1  0.14940000  0.02530000  0.42150000  1
  H  H847  1  0.14940000  0.72790000  0.12410000  1
  H  H848  1  0.50780000  0.00000000  0.75040000  1
  H  H849  1  0.50780000  0.75740000  0.50780000  1
  H  H850  1  0.75740000  0.24960000  0.24960000  1
  H  H851  1  0.75740000  0.50780000  0.50780000  1
  H  H852  1  1.00000000  0.24960000  0.49220000  1
  H  H853  1  1.00000000  0.50780000  0.75040000  1
  H  H854  1  0.24960000  0.00000000  0.49220000  1
  H  H855  1  0.24960000  0.75740000  0.24960000  1
  H  H856  1  0.65310000  0.14950000  1.00000000  1
  H  H857  1  0.65310000  0.65310000  0.50360000  1
  H  H858  1  0.14950000  0.14950000  0.49640000  1
  H  H859  1  0.14950000  0.65310000  0.00000000  1
  H  H860  1  0.55950000  0.25510000  1.00000000  1
  H  H861  1  0.55950000  0.55950000  0.30440000  1
  H  H862  1  0.25510000  0.25510000  0.69560000  1
  H  H863  1  0.25510000  0.55950000  1.00000000  1
  H  H864  1  0.61010000  0.22530000  1.00000000  1
  H  H865  1  0.61010000  0.61010000  0.38480000  1
  H  H866  1  0.22530000  0.22530000  0.61520000  1
  H  H867  1  0.22530000  0.61010000  0.00000000  1
  H  H868  1  0.68340000  0.06910000  0.90570000  1
  H  H869  1  0.68340000  0.77770000  0.61430000  1
  H  H870  1  0.77770000  0.16340000  0.09430000  1
  H  H871  1  0.77770000  0.68340000  0.61430000  1
  H  H872  1  0.06910000  0.16340000  0.38570000  1
  H  H873  1  0.06910000  0.68340000  0.90570000  1
  H  H874  1  0.16340000  0.06910000  0.38570000  1
  H  H875  1  0.16340000  0.77770000  0.09430000  1
  H  H876  1  0.75250000  1.00000000  0.90050000  1
  H  H877  1  0.75250000  0.85200000  0.75250000  1
  H  H878  1  0.85200000  0.09950000  0.09950000  1
  H  H879  1  0.85200000  0.75250000  0.75250000  1
  H  H880  1  0.00000000  0.09950000  0.24750000  1
  H  H881  1  0.00000000  0.75250000  0.90050000  1
  H  H882  1  0.09950000  0.00000000  0.24750000  1
  H  H883  1  0.09950000  0.85200000  0.09950000  1
  H  H884  1  0.73070000  0.17290000  1.00000000  1
  H  H885  1  0.73070000  0.73070000  0.55780000  1
  H  H886  1  0.17290000  0.17290000  0.44220000  1
  H  H887  1  0.17290000  0.73070000  1.00000000  1
  N  N888  1  0.21817000  0.78183000  1.00000000  1
  N  N889  1  0.21817000  0.21817000  0.43634000  1
  N  N890  1  0.78183000  0.78183000  0.56366000  1
  N  N891  1  0.78183000  0.21817000  0.00000000  1
  N  N892  1  0.35438000  0.82958000  0.00000000  1
  N  N893  1  0.35438000  0.35438000  0.52480000  1
  N  N894  1  0.82958000  0.82958000  0.47520000  1
  N  N895  1  0.82958000  0.35438000  0.00000000  1
  N  N896  1  0.25374000  0.85177000  0.85177000  1
  N  N897  1  0.25374000  0.40197000  0.40197000  1
  N  N898  1  0.40197000  0.00000000  0.14823000  1
  N  N899  1  0.40197000  0.25374000  0.40197000  1
  N  N900  1  0.85177000  0.00000000  0.59803000  1
  N  N901  1  0.85177000  0.25374000  0.85177000  1
  N  N902  1  0.00000000  0.85177000  0.59803000  1
  N  N903  1  0.00000000  0.40197000  0.14823000  1
  N  N904  1  0.21817000  0.00000000  0.78183000  1
  N  N905  1  0.21817000  0.43634000  0.21817000  1
  N  N906  1  0.43634000  0.21817000  0.21817000  1
  N  N907  1  1.00000000  0.21817000  0.78183000  1
  N  N908  1  0.59803000  0.85177000  1.00000000  1
  N  N909  1  0.59803000  0.59803000  0.74626000  1
  N  N910  1  0.85177000  0.85177000  0.25374000  1
  N  N911  1  0.85177000  0.59803000  1.00000000  1
  N  N912  1  0.47520000  0.82958000  0.82958000  1
  N  N913  1  0.47520000  0.64562000  0.64562000  1
  N  N914  1  0.64562000  0.00000000  0.17042000  1
  N  N915  1  0.64562000  0.47520000  0.64562000  1
  N  N916  1  0.82958000  0.00000000  0.35438000  1
  N  N917  1  0.82958000  0.47520000  0.82958000  1
  N  N918  1  0.00000000  0.82958000  0.35438000  1
  N  N919  1  0.00000000  0.64562000  0.17042000  1
  N  N920  1  0.35438000  0.00000000  0.82958000  1
  N  N921  1  0.35438000  0.52480000  0.35438000  1
  N  N922  1  0.52480000  0.17042000  0.17042000  1
  N  N923  1  0.52480000  0.35438000  0.35438000  1
  N  N924  1  1.00000000  0.17042000  0.64562000  1
  N  N925  1  1.00000000  0.35438000  0.82958000  1
  N  N926  1  0.17042000  0.00000000  0.64562000  1
  N  N927  1  0.17042000  0.52480000  0.17042000  1
  N  N928  1  0.40197000  0.14823000  1.00000000  1
  N  N929  1  0.40197000  0.40197000  0.25374000  1
  N  N930  1  0.14823000  0.14823000  0.74626000  1
  N  N931  1  0.14823000  0.40197000  0.00000000  1
  N  N932  1  0.56366000  0.78183000  0.78183000  1
  N  N933  1  0.78183000  0.00000000  0.21817000  1
  N  N934  1  0.78183000  0.56366000  0.78183000  1
  N  N935  1  1.00000000  0.78183000  0.21817000  1
  N  N936  1  0.59803000  0.00000000  0.85177000  1
  N  N937  1  0.59803000  0.74626000  0.59803000  1
  N  N938  1  0.74626000  0.14823000  0.14823000  1
  N  N939  1  0.74626000  0.59803000  0.59803000  1
  N  N940  1  0.00000000  0.14823000  0.40197000  1
  N  N941  1  0.00000000  0.59803000  0.85177000  1
  N  N942  1  0.14823000  0.00000000  0.40197000  1
  N  N943  1  0.14823000  0.74626000  0.14823000  1
  N  N944  1  0.64562000  0.17042000  1.00000000  1
  N  N945  1  0.64562000  0.64562000  0.47520000  1
  N  N946  1  0.17042000  0.17042000  0.52480000  1
  N  N947  1  0.17042000  0.64562000  0.00000000  1
  O  O948  1  0.18769000  0.83252000  0.95345000  1
  O  O949  1  0.18769000  0.23424000  0.35517000  1
  O  O950  1  0.23424000  0.87907000  0.04655000  1
  O  O951  1  0.23424000  0.18769000  0.35517000  1
  O  O952  1  0.83252000  0.87907000  0.64483000  1
  O  O953  1  0.83252000  0.18769000  0.95345000  1
  O  O954  1  0.87907000  0.83252000  0.64483000  1
  O  O955  1  0.87907000  0.23424000  0.04655000  1
  O  O956  1  0.15003000  0.87065000  0.95358000  1
  O  O957  1  0.15003000  0.19645000  0.27938000  1
  O  O958  1  0.19645000  0.91707000  0.04642000  1
  O  O959  1  0.19645000  0.15003000  0.27938000  1
  O  O960  1  0.87065000  0.91707000  0.72062000  1
  O  O961  1  0.87065000  0.15003000  0.95358000  1
  O  O962  1  0.91707000  0.87065000  0.72062000  1
  O  O963  1  0.91707000  0.19645000  0.04642000  1
  O  O964  1  0.34137000  0.76395000  0.00000000  1
  O  O965  1  0.34137000  0.34137000  0.57742000  1
  O  O966  1  0.76395000  0.76395000  0.42258000  1
  O  O967  1  0.76395000  0.34137000  1.00000000  1
  O  O968  1  0.20302000  0.77982000  0.77982000  1
  O  O969  1  0.20302000  0.42320000  0.42320000  1
  O  O970  1  0.42320000  0.00000000  0.22018000  1
  O  O971  1  0.42320000  0.20302000  0.42320000  1
  O  O972  1  0.77982000  0.00000000  0.57680000  1
  O  O973  1  0.77982000  0.20302000  0.77982000  1
  O  O974  1  0.00000000  0.77982000  0.57680000  1
  O  O975  1  0.00000000  0.42320000  0.22018000  1
  O  O976  1  0.15003000  0.95358000  0.87065000  1
  O  O977  1  0.15003000  0.27938000  0.19645000  1
  O  O978  1  0.27938000  0.08293000  0.12935000  1
  O  O979  1  0.27938000  0.15003000  0.19645000  1
  O  O980  1  0.95358000  0.08293000  0.80355000  1
  O  O981  1  0.95358000  0.15003000  0.87065000  1
  O  O982  1  0.08293000  0.95358000  0.80355000  1
  O  O983  1  0.08293000  0.27938000  0.12935000  1
  O  O984  1  0.18769000  0.95345000  0.83252000  1
  O  O985  1  0.18769000  0.35517000  0.23424000  1
  O  O986  1  0.35517000  0.12093000  0.16748000  1
  O  O987  1  0.35517000  0.18769000  0.23424000  1
  O  O988  1  0.95345000  0.12093000  0.76576000  1
  O  O989  1  0.95345000  0.18769000  0.83252000  1
  O  O990  1  0.12093000  0.95345000  0.76576000  1
  O  O991  1  0.12093000  0.35517000  0.16748000  1
  O  O992  1  0.19645000  0.04642000  0.91707000  1
  O  O993  1  0.19645000  0.27938000  0.15003000  1
  O  O994  1  0.27938000  0.12935000  0.08293000  1
  O  O995  1  0.27938000  0.19645000  0.15003000  1
  O  O996  1  0.04642000  0.12935000  0.84997000  1
  O  O997  1  0.04642000  0.19645000  0.91707000  1
  O  O998  1  0.12935000  0.04642000  0.84997000  1
  O  O999  1  0.12935000  0.27938000  0.08293000  1
  O  O1000  1  0.57680000  0.77982000  1.00000000  1
  O  O1001  1  0.57680000  0.57680000  0.79698000  1
  O  O1002  1  0.77982000  0.77982000  0.20302000  1
  O  O1003  1  0.77982000  0.57680000  1.00000000  1
  O  O1004  1  0.23424000  0.04655000  0.87907000  1
  O  O1005  1  0.23424000  0.35517000  0.18769000  1
  O  O1006  1  0.35517000  0.16748000  0.12093000  1
  O  O1007  1  0.35517000  0.23424000  0.18769000  1
  O  O1008  1  0.04655000  0.16748000  0.81231000  1
  O  O1009  1  0.04655000  0.23424000  0.87907000  1
  O  O1010  1  0.16748000  0.04655000  0.81231000  1
  O  O1011  1  0.16748000  0.35517000  0.12093000  1
  O  O1012  1  0.42258000  0.76395000  0.76395000  1
  O  O1013  1  0.42258000  0.65863000  0.65863000  1
  O  O1014  1  0.65863000  0.00000000  0.23605000  1
  O  O1015  1  0.65863000  0.42258000  0.65863000  1
  O  O1016  1  0.76395000  0.00000000  0.34137000  1
  O  O1017  1  0.76395000  0.42258000  0.76395000  1
  O  O1018  1  0.00000000  0.76395000  0.34137000  1
  O  O1019  1  0.00000000  0.65863000  0.23605000  1
  O  O1020  1  0.34137000  0.00000000  0.76395000  1
  O  O1021  1  0.34137000  0.57742000  0.34137000  1
  O  O1022  1  0.57742000  0.23605000  0.23605000  1
  O  O1023  1  0.57742000  0.34137000  0.34137000  1
  O  O1024  1  1.00000000  0.23605000  0.65863000  1
  O  O1025  1  1.00000000  0.34137000  0.76395000  1
  O  O1026  1  0.23605000  0.00000000  0.65863000  1
  O  O1027  1  0.23605000  0.57742000  0.23605000  1
  O  O1028  1  0.64483000  0.83252000  0.87907000  1
  O  O1029  1  0.64483000  0.76576000  0.81231000  1
  O  O1030  1  0.76576000  0.95345000  0.12093000  1
  O  O1031  1  0.76576000  0.64483000  0.81231000  1
  O  O1032  1  0.83252000  0.95345000  0.18769000  1
  O  O1033  1  0.83252000  0.64483000  0.87907000  1
  O  O1034  1  0.95345000  0.83252000  0.18769000  1
  O  O1035  1  0.95345000  0.76576000  0.12093000  1
  O  O1036  1  0.42320000  0.22018000  1.00000000  1
  O  O1037  1  0.42320000  0.42320000  0.20302000  1
  O  O1038  1  0.22018000  0.22018000  0.79698000  1
  O  O1039  1  0.22018000  0.42320000  1.00000000  1
  O  O1040  1  0.72062000  0.87065000  0.91707000  1
  O  O1041  1  0.72062000  0.80355000  0.84997000  1
  O  O1042  1  0.80355000  0.95358000  0.08293000  1
  O  O1043  1  0.80355000  0.72062000  0.84997000  1
  O  O1044  1  0.87065000  0.95358000  0.15003000  1
  O  O1045  1  0.87065000  0.72062000  0.91707000  1
  O  O1046  1  0.95358000  0.87065000  0.15003000  1
  O  O1047  1  0.95358000  0.80355000  0.08293000  1
  O  O1048  1  0.64483000  0.87907000  0.83252000  1
  O  O1049  1  0.64483000  0.81231000  0.76576000  1
  O  O1050  1  0.81231000  0.04655000  0.16748000  1
  O  O1051  1  0.81231000  0.64483000  0.76576000  1
  O  O1052  1  0.87907000  0.04655000  0.23424000  1
  O  O1053  1  0.87907000  0.64483000  0.83252000  1
  O  O1054  1  0.04655000  0.87907000  0.23424000  1
  O  O1055  1  0.04655000  0.81231000  0.16748000  1
  O  O1056  1  0.72062000  0.91707000  0.87065000  1
  O  O1057  1  0.72062000  0.84997000  0.80355000  1
  O  O1058  1  0.84997000  0.04642000  0.12935000  1
  O  O1059  1  0.84997000  0.72062000  0.80355000  1
  O  O1060  1  0.91707000  0.04642000  0.19645000  1
  O  O1061  1  0.91707000  0.72062000  0.87065000  1
  O  O1062  1  0.04642000  0.91707000  0.19645000  1
  O  O1063  1  0.04642000  0.84997000  0.12935000  1
  O  O1064  1  0.57680000  0.00000000  0.77982000  1
  O  O1065  1  0.57680000  0.79698000  0.57680000  1
  O  O1066  1  0.79698000  0.22018000  0.22018000  1
  O  O1067  1  0.79698000  0.57680000  0.57680000  1
  O  O1068  1  1.00000000  0.22018000  0.42320000  1
  O  O1069  1  1.00000000  0.57680000  0.77982000  1
  O  O1070  1  0.22018000  1.00000000  0.42320000  1
  O  O1071  1  0.22018000  0.79698000  0.22018000  1
  O  O1072  1  0.65863000  0.23605000  1.00000000  1
  O  O1073  1  0.65863000  0.65863000  0.42258000  1
  O  O1074  1  0.23605000  0.23605000  0.57742000  1
  O  O1075  1  0.23605000  0.65863000  0.00000000  1
  O  O1076  1  0.80355000  0.08293000  0.95358000  1
  O  O1077  1  0.80355000  0.84997000  0.72062000  1
  O  O1078  1  0.84997000  0.12935000  0.04642000  1
  O  O1079  1  0.84997000  0.80355000  0.72062000  1
  O  O1080  1  0.08293000  0.12935000  0.27938000  1
  O  O1081  1  0.08293000  0.80355000  0.95358000  1
  O  O1082  1  0.12935000  0.08293000  0.27938000  1
  O  O1083  1  0.12935000  0.84997000  0.04642000  1
  O  O1084  1  0.76576000  0.12093000  0.95345000  1
  O  O1085  1  0.76576000  0.81231000  0.64483000  1
  O  O1086  1  0.81231000  0.16748000  0.04655000  1
  O  O1087  1  0.81231000  0.76576000  0.64483000  1
  O  O1088  1  0.12093000  0.16748000  0.35517000  1
  O  O1089  1  0.12093000  0.76576000  0.95345000  1
  O  O1090  1  0.16748000  0.12093000  0.35517000  1
  O  O1091  1  0.16748000  0.81231000  0.04655000  1
