# generated using pymatgen
data_NaCo2H53C78(N2O9)2
_symmetry_space_group_name_H-M   'P 1'
_cell_length_a   14.37000000
_cell_length_b   17.88300000
_cell_length_c   28.43100000
_cell_angle_alpha   90.00000000
_cell_angle_beta   90.00000000
_cell_angle_gamma   100.67300000
_symmetry_Int_Tables_number   1
_chemical_formula_structural   NaCo2H53C78(N2O9)2
_chemical_formula_sum   'Na4 Co8 H212 C312 N16 O72'
_cell_volume   7179.76642726
_cell_formula_units_Z   4
loop_
 _symmetry_equiv_pos_site_id
 _symmetry_equiv_pos_as_xyz
  1  'x, y, z'
loop_
 _atom_site_type_symbol
 _atom_site_label
 _atom_site_symmetry_multiplicity
 _atom_site_fract_x
 _atom_site_fract_y
 _atom_site_fract_z
 _atom_site_occupancy
  Na  Na0  1  0.83179000  0.89110000  0.33305000  1
  Na  Na1  1  0.66821000  0.60890000  0.83305000  1
  Na  Na2  1  0.33179000  0.39110000  0.16695000  1
  Na  Na3  1  0.16821000  0.10890000  0.66695000  1
  Co  Co4  1  0.98839000  0.96634000  0.64920000  1
  Co  Co5  1  0.86344000  0.55733000  0.86534000  1
  Co  Co6  1  0.63656000  0.94267000  0.36534000  1
  Co  Co7  1  0.51161000  0.53366000  0.14920000  1
  Co  Co8  1  0.48839000  0.46634000  0.85080000  1
  Co  Co9  1  0.36344000  0.05733000  0.63466000  1
  Co  Co10  1  0.13656000  0.44267000  0.13466000  1
  Co  Co11  1  0.01161000  0.03366000  0.35080000  1
  H  H12  1  0.99990000  0.95840000  0.53710000  1
  H  H13  1  0.99610000  0.43360000  0.56060000  1
  H  H14  1  0.99480000  0.84040000  0.25220000  1
  H  H15  1  0.99450000  0.73040000  0.74820000  1
  H  H16  1  0.99220000  0.48840000  0.32760000  1
  H  H17  1  0.98770000  0.22830000  0.05860000  1
  H  H18  1  0.97950000  0.40600000  0.50830000  1
  H  H19  1  0.97950000  0.29510000  0.39040000  1
  H  H20  1  0.97080000  0.35340000  0.02680000  1
  H  H21  1  0.95420000  0.47730000  0.18490000  1
  H  H22  1  0.95010000  0.63210000  0.54440000  1
  H  H23  1  0.94990000  0.47670000  0.40170000  1
  H  H24  1  0.93740000  0.22810000  0.32230000  1
  H  H25  1  0.93680000  0.78560000  0.42090000  1
  H  H26  1  0.92750000  0.31460000  0.81920000  1
  H  H27  1  0.92010000  0.88760000  0.47660000  1
  H  H28  1  0.91550000  0.31550000  0.73880000  1
  H  H29  1  0.91480000  0.65220000  0.02440000  1
  H  H30  1  0.91060000  0.10740000  0.27620000  1
  H  H31  1  0.90730000  0.95010000  0.98660000  1
  H  H32  1  0.90490000  0.44010000  0.72380000  1
  H  H33  1  0.89850000  0.89980000  0.74720000  1
  H  H34  1  0.88690000  0.21650000  0.87240000  1
  H  H35  1  0.86540000  0.34310000  0.55830000  1
  H  H36  1  0.86160000  0.97300000  0.16300000  1
  H  H37  1  0.85970000  0.17480000  0.01060000  1
  H  H38  1  0.85810000  0.66360000  0.34560000  1
  H  H39  1  0.85530000  0.13290000  0.05950000  1
  H  H40  1  0.85480000  0.42290000  0.38680000  1
  H  H41  1  0.85360000  0.14960000  0.93990000  1
  H  H42  1  0.85230000  0.00880000  0.08090000  1
  H  H43  1  0.84830000  0.64300000  0.56000000  1
  H  H44  1  0.84240000  0.80950000  0.13190000  1
  H  H45  1  0.83820000  0.40860000  0.81180000  1
  H  H46  1  0.83530000  0.54490000  0.17080000  1
  H  H47  1  0.83530000  0.61130000  0.10200000  1
  H  H48  1  0.83320000  0.19110000  0.41440000  1
  H  H49  1  0.83160000  0.55700000  0.68230000  1
  H  H50  1  0.83120000  0.19360000  0.24150000  1
  H  H51  1  0.81660000  0.40110000  0.04710000  1
  H  H52  1  0.80710000  0.78770000  0.05610000  1
  H  H53  1  0.80620000  0.77600000  0.21940000  1
  H  H54  1  0.79700000  0.79140000  0.49310000  1
  H  H55  1  0.79350000  0.13810000  0.61800000  1
  H  H56  1  0.79350000  0.02830000  0.52550000  1
  H  H57  1  0.78740000  0.11170000  0.89900000  1
  H  H58  1  0.78050000  0.80230000  0.77230000  1
  H  H59  1  0.77890000  0.96400000  0.45440000  1
  H  H60  1  0.76310000  0.16940000  0.16840000  1
  H  H61  1  0.76290000  0.89870000  0.95230000  1
  H  H62  1  0.76270000  0.95110000  0.09870000  1
  H  H63  1  0.75680000  0.71640000  0.41430000  1
  H  H64  1  0.75410000  0.24940000  0.59250000  1
  H  H65  1  0.74590000  0.25060000  0.09250000  1
  H  H66  1  0.74320000  0.78360000  0.91430000  1
  H  H67  1  0.73730000  0.54890000  0.59870000  1
  H  H68  1  0.73710000  0.60130000  0.45230000  1
  H  H69  1  0.73690000  0.33060000  0.66840000  1
  H  H70  1  0.72110000  0.53600000  0.95440000  1
  H  H71  1  0.71950000  0.69770000  0.27230000  1
  H  H72  1  0.71260000  0.38830000  0.39900000  1
  H  H73  1  0.70650000  0.36190000  0.11800000  1
  H  H74  1  0.70650000  0.47170000  0.02550000  1
  H  H75  1  0.70300000  0.70860000  0.99310000  1
  H  H76  1  0.69380000  0.72400000  0.71940000  1
  H  H77  1  0.69290000  0.71230000  0.55610000  1
  H  H78  1  0.68340000  0.09890000  0.54710000  1
  H  H79  1  0.66880000  0.30640000  0.74150000  1
  H  H80  1  0.66840000  0.94300000  0.18230000  1
  H  H81  1  0.66680000  0.30890000  0.91440000  1
  H  H82  1  0.66470000  0.95510000  0.67080000  1
  H  H83  1  0.66470000  0.88870000  0.60200000  1
  H  H84  1  0.66180000  0.09140000  0.31180000  1
  H  H85  1  0.65760000  0.69050000  0.63190000  1
  H  H86  1  0.65170000  0.85700000  0.06000000  1
  H  H87  1  0.64770000  0.49120000  0.58090000  1
  H  H88  1  0.64640000  0.35040000  0.43990000  1
  H  H89  1  0.64520000  0.07710000  0.88680000  1
  H  H90  1  0.64470000  0.36710000  0.55950000  1
  H  H91  1  0.64190000  0.83640000  0.84560000  1
  H  H92  1  0.64030000  0.32520000  0.51060000  1
  H  H93  1  0.63840000  0.52700000  0.66300000  1
  H  H94  1  0.63460000  0.15690000  0.05830000  1
  H  H95  1  0.61310000  0.28350000  0.37240000  1
  H  H96  1  0.60150000  0.60020000  0.24720000  1
  H  H97  1  0.59510000  0.05990000  0.22380000  1
  H  H98  1  0.59270000  0.54990000  0.48660000  1
  H  H99  1  0.58940000  0.39260000  0.77620000  1
  H  H100  1  0.58520000  0.84780000  0.52440000  1
  H  H101  1  0.58450000  0.18450000  0.23880000  1
  H  H102  1  0.57990000  0.61240000  0.97660000  1
  H  H103  1  0.57250000  0.18540000  0.31920000  1
  H  H104  1  0.56320000  0.71440000  0.92090000  1
  H  H105  1  0.56260000  0.27190000  0.82230000  1
  H  H106  1  0.55010000  0.02330000  0.90170000  1
  H  H107  1  0.54990000  0.86790000  0.04440000  1
  H  H108  1  0.54580000  0.02270000  0.68490000  1
  H  H109  1  0.52920000  0.14660000  0.52680000  1
  H  H110  1  0.52050000  0.20490000  0.89040000  1
  H  H111  1  0.52050000  0.09400000  0.00830000  1
  H  H112  1  0.51230000  0.27170000  0.55860000  1
  H  H113  1  0.50780000  0.01160000  0.82760000  1
  H  H114  1  0.50550000  0.76960000  0.24820000  1
  H  H115  1  0.50520000  0.65960000  0.75220000  1
  H  H116  1  0.50390000  0.06640000  0.06060000  1
  H  H117  1  0.50010000  0.54160000  0.03710000  1
  H  H118  1  0.49990000  0.45840000  0.96290000  1
  H  H119  1  0.49610000  0.93360000  0.93940000  1
  H  H120  1  0.49480000  0.34040000  0.24780000  1
  H  H121  1  0.49450000  0.23040000  0.75180000  1
  H  H122  1  0.49220000  0.98840000  0.17240000  1
  H  H123  1  0.48770000  0.72830000  0.44140000  1
  H  H124  1  0.47950000  0.90600000  0.99170000  1
  H  H125  1  0.47950000  0.79510000  0.10960000  1
  H  H126  1  0.47080000  0.85340000  0.47320000  1
  H  H127  1  0.45420000  0.97730000  0.31510000  1
  H  H128  1  0.45010000  0.13210000  0.95560000  1
  H  H129  1  0.44990000  0.97670000  0.09830000  1
  H  H130  1  0.43740000  0.72810000  0.17770000  1
  H  H131  1  0.43680000  0.28560000  0.07910000  1
  H  H132  1  0.42750000  0.81460000  0.68080000  1
  H  H133  1  0.42010000  0.38760000  0.02340000  1
  H  H134  1  0.41550000  0.81550000  0.76120000  1
  H  H135  1  0.41480000  0.15220000  0.47560000  1
  H  H136  1  0.41060000  0.60740000  0.22380000  1
  H  H137  1  0.40730000  0.45010000  0.51340000  1
  H  H138  1  0.40490000  0.94010000  0.77620000  1
  H  H139  1  0.39850000  0.39980000  0.75280000  1
  H  H140  1  0.38690000  0.71650000  0.62760000  1
  H  H141  1  0.36540000  0.84310000  0.94170000  1
  H  H142  1  0.36160000  0.47300000  0.33700000  1
  H  H143  1  0.35970000  0.67480000  0.48940000  1
  H  H144  1  0.35810000  0.16360000  0.15440000  1
  H  H145  1  0.35530000  0.63290000  0.44050000  1
  H  H146  1  0.35480000  0.92290000  0.11320000  1
  H  H147  1  0.35360000  0.64960000  0.56010000  1
  H  H148  1  0.35230000  0.50880000  0.41910000  1
  H  H149  1  0.34830000  0.14300000  0.94000000  1
  H  H150  1  0.34240000  0.30950000  0.36810000  1
  H  H151  1  0.33820000  0.90860000  0.68820000  1
  H  H152  1  0.33530000  0.11130000  0.39800000  1
  H  H153  1  0.33530000  0.04490000  0.32920000  1
  H  H154  1  0.33320000  0.69110000  0.08560000  1
  H  H155  1  0.33160000  0.05700000  0.81770000  1
  H  H156  1  0.33120000  0.69360000  0.25850000  1
  H  H157  1  0.31660000  0.90110000  0.45290000  1
  H  H158  1  0.30710000  0.28770000  0.44390000  1
  H  H159  1  0.30620000  0.27600000  0.28060000  1
  H  H160  1  0.29700000  0.29140000  0.00690000  1
  H  H161  1  0.29350000  0.52830000  0.97450000  1
  H  H162  1  0.29350000  0.63810000  0.88200000  1
  H  H163  1  0.28740000  0.61170000  0.60100000  1
  H  H164  1  0.28050000  0.30230000  0.72770000  1
  H  H165  1  0.27890000  0.46400000  0.04560000  1
  H  H166  1  0.26310000  0.66940000  0.33160000  1
  H  H167  1  0.26290000  0.39870000  0.54770000  1
  H  H168  1  0.26270000  0.45110000  0.40130000  1
  H  H169  1  0.25680000  0.21640000  0.08570000  1
  H  H170  1  0.25410000  0.74940000  0.90750000  1
  H  H171  1  0.24590000  0.75060000  0.40750000  1
  H  H172  1  0.24320000  0.28360000  0.58570000  1
  H  H173  1  0.23730000  0.04890000  0.90130000  1
  H  H174  1  0.23710000  0.10130000  0.04770000  1
  H  H175  1  0.23690000  0.83060000  0.83160000  1
  H  H176  1  0.22110000  0.03600000  0.54560000  1
  H  H177  1  0.21950000  0.19770000  0.22770000  1
  H  H178  1  0.21260000  0.88830000  0.10100000  1
  H  H179  1  0.20650000  0.97170000  0.47450000  1
  H  H180  1  0.20650000  0.86190000  0.38200000  1
  H  H181  1  0.20300000  0.20860000  0.50690000  1
  H  H182  1  0.19380000  0.22400000  0.78060000  1
  H  H183  1  0.19290000  0.21230000  0.94390000  1
  H  H184  1  0.18340000  0.59890000  0.95290000  1
  H  H185  1  0.16880000  0.80640000  0.75850000  1
  H  H186  1  0.16840000  0.44300000  0.31770000  1
  H  H187  1  0.16680000  0.80890000  0.58560000  1
  H  H188  1  0.16470000  0.38870000  0.89800000  1
  H  H189  1  0.16470000  0.45510000  0.82920000  1
  H  H190  1  0.16180000  0.59140000  0.18820000  1
  H  H191  1  0.15760000  0.19050000  0.86810000  1
  H  H192  1  0.15170000  0.35700000  0.44000000  1
  H  H193  1  0.14770000  0.99120000  0.91910000  1
  H  H194  1  0.14640000  0.85040000  0.06010000  1
  H  H195  1  0.14520000  0.57710000  0.61320000  1
  H  H196  1  0.14470000  0.86710000  0.94050000  1
  H  H197  1  0.14190000  0.33640000  0.65440000  1
  H  H198  1  0.14030000  0.82520000  0.98940000  1
  H  H199  1  0.13840000  0.02700000  0.83700000  1
  H  H200  1  0.13460000  0.65690000  0.44170000  1
  H  H201  1  0.11310000  0.78350000  0.12760000  1
  H  H202  1  0.10150000  0.10020000  0.25280000  1
  H  H203  1  0.09510000  0.55990000  0.27620000  1
  H  H204  1  0.09270000  0.04990000  0.01340000  1
  H  H205  1  0.08940000  0.89260000  0.72380000  1
  H  H206  1  0.08520000  0.34780000  0.97560000  1
  H  H207  1  0.08450000  0.68450000  0.26120000  1
  H  H208  1  0.07990000  0.11240000  0.52340000  1
  H  H209  1  0.07250000  0.68540000  0.18080000  1
  H  H210  1  0.06320000  0.21440000  0.57910000  1
  H  H211  1  0.06260000  0.77190000  0.67770000  1
  H  H212  1  0.05010000  0.52330000  0.59830000  1
  H  H213  1  0.04990000  0.36790000  0.45560000  1
  H  H214  1  0.04580000  0.52270000  0.81510000  1
  H  H215  1  0.02920000  0.64660000  0.97320000  1
  H  H216  1  0.02050000  0.70490000  0.60960000  1
  H  H217  1  0.02050000  0.59400000  0.49170000  1
  H  H218  1  0.01230000  0.77170000  0.94140000  1
  H  H219  1  0.00780000  0.51160000  0.67240000  1
  H  H220  1  0.00550000  0.26960000  0.25180000  1
  H  H221  1  0.00520000  0.15960000  0.74780000  1
  H  H222  1  0.00390000  0.56640000  0.43940000  1
  H  H223  1  0.00010000  0.04160000  0.46290000  1
  C  C224  1  0.99930000  0.77880000  0.41871000  1
  C  C225  1  0.99210000  0.68800000  0.63804000  1
  C  C226  1  0.98650000  0.53840000  0.32119000  1
  C  C227  1  0.98300000  0.27240000  0.32130000  1
  C  C228  1  0.97600000  0.28790000  0.56518000  1
  C  C229  1  0.97590000  0.45900000  0.91337000  1
  C  C230  1  0.97570000  0.70320000  0.72086000  1
  C  C231  1  0.97520000  0.58730000  0.46607000  1
  C  C232  1  0.97440000  0.86640000  0.96624000  1
  C  C233  1  0.97140000  0.37940000  0.99850000  1
  C  C234  1  0.96750000  0.68560000  0.30046000  1
  C  C235  1  0.96200000  0.79750000  0.94370000  1
  C  C236  1  0.96060000  0.62340000  0.03170000  1
  C  C237  1  0.95950000  0.34500000  0.71911000  1
  C  C238  1  0.95780000  0.09190000  0.61724000  1
  C  C239  1  0.95490000  0.50410000  0.15690000  1
  C  C240  1  0.95450000  0.58410000  0.07520000  1
  C  C241  1  0.95220000  0.76320000  0.28936000  1
  C  C242  1  0.95210000  0.41890000  0.70943000  1
  C  C243  1  0.95010000  0.91890000  0.54432000  1
  C  C244  1  0.93910000  0.97300000  0.24743000  1
  C  C245  1  0.93260000  0.16440000  0.60070000  1
  C  C246  1  0.92490000  0.62300000  0.63987000  1
  C  C247  1  0.91590000  0.56930000  0.34258000  1
  C  C248  1  0.90680000  0.63900000  0.72288000  1
  C  C249  1  0.90620000  0.64290000  0.33172000  1
  C  C250  1  0.90210000  0.87650000  0.50758000  1
  C  C251  1  0.90140000  0.46220000  0.94614000  1
  C  C252  1  0.89990000  0.90410000  0.97046000  1
  C  C253  1  0.89670000  0.42200000  0.98893000  1
  C  C254  1  0.89120000  0.03130000  0.22368000  1
  C  C255  1  0.88990000  0.60630000  0.55706000  1
  C  C256  1  0.88680000  0.53330000  0.48076000  1
  C  C257  1  0.88360000  0.09740000  0.24657000  1
  C  C258  1  0.88330000  0.58410000  0.10800000  1
  C  C259  1  0.88300000  0.54480000  0.14860000  1
  C  C260  1  0.88260000  0.29860000  0.56912000  1
  C  C261  1  0.88150000  0.47140000  0.40100000  1
  C  C262  1  0.88000000  0.59950000  0.68176000  1
  C  C263  1  0.87500000  0.76600000  0.92437000  1
  C  C264  1  0.87460000  0.31320000  0.83818000  1
  C  C265  1  0.86410000  0.86790000  0.72493000  1
  C  C266  1  0.86180000  0.68920000  0.90121000  1
  C  C267  1  0.85890000  0.12610000  0.02576000  1
  C  C268  1  0.85580000  0.61380000  0.76847000  1
  C  C269  1  0.85520000  0.84750000  0.59920000  1
  C  C270  1  0.85410000  0.01680000  0.17904000  1
  C  C271  1  0.85070000  0.25440000  0.87001000  1
  C  C272  1  0.84620000  0.54180000  0.52511000  1
  C  C273  1  0.84330000  0.47640000  0.44996000  1
  C  C274  1  0.83950000  0.17570000  0.60481000  1
  C  C275  1  0.83620000  0.14890000  0.22583000  1
  C  C276  1  0.83240000  0.83340000  0.64789000  1
  C  C277  1  0.82970000  0.81950000  0.51746000  1
  C  C278  1  0.82220000  0.42670000  0.01850000  1
  C  C279  1  0.82170000  0.37010000  0.83390000  1
  C  C280  1  0.81620000  0.24200000  0.58936000  1
  C  C281  1  0.81330000  0.87280000  0.95030000  1
  C  C282  1  0.81240000  0.06890000  0.35883000  1
  C  C283  1  0.80510000  0.06890000  0.15858000  1
  C  C284  1  0.80300000  0.80190000  0.56445000  1
  C  C285  1  0.80140000  0.80420000  0.92756000  1
  C  C286  1  0.79610000  0.13480000  0.18204000  1
  C  C287  1  0.79260000  0.77060000  0.12380000  1
  C  C288  1  0.79250000  0.80920000  0.74033000  1
  C  C289  1  0.78820000  0.13320000  0.93032000  1
  C  C290  1  0.78430000  0.00130000  0.08538000  1
  C  C291  1  0.78080000  0.19000000  0.39498000  1
  C  C292  1  0.77530000  0.06870000  0.00889000  1
  C  C293  1  0.77220000  0.25280000  0.89820000  1
  C  C294  1  0.77190000  0.75750000  0.07880000  1
  C  C295  1  0.76640000  0.50730000  0.96259000  1
  C  C296  1  0.76520000  0.49090000  0.53882000  1
  C  C297  1  0.76200000  0.42530000  0.46418000  1
  C  C298  1  0.75960000  0.77340000  0.66043000  1
  C  C299  1  0.75860000  0.73700000  0.20910000  1
  C  C300  1  0.75720000  0.46860000  0.00580000  1
  C  C301  1  0.75590000  0.13080000  0.36277000  1
  C  C302  1  0.74410000  0.36920000  0.86277000  1
  C  C303  1  0.74280000  0.03140000  0.50580000  1
  C  C304  1  0.74140000  0.76300000  0.70910000  1
  C  C305  1  0.74040000  0.72660000  0.16043000  1
  C  C306  1  0.73800000  0.07470000  0.96418000  1
  C  C307  1  0.73480000  0.00910000  0.03882000  1
  C  C308  1  0.73360000  0.99270000  0.46259000  1
  C  C309  1  0.72810000  0.74250000  0.57880000  1
  C  C310  1  0.72780000  0.24720000  0.39820000  1
  C  C311  1  0.72470000  0.43130000  0.50889000  1
  C  C312  1  0.71920000  0.31000000  0.89498000  1
  C  C313  1  0.71570000  0.49870000  0.58538000  1
  C  C314  1  0.71180000  0.36680000  0.43032000  1
  C  C315  1  0.70750000  0.69080000  0.24033000  1
  C  C316  1  0.70740000  0.72940000  0.62380000  1
  C  C317  1  0.70390000  0.36520000  0.68204000  1
  C  C318  1  0.69860000  0.69580000  0.42756000  1
  C  C319  1  0.69700000  0.69810000  0.06445000  1
  C  C320  1  0.69490000  0.43110000  0.65858000  1
  C  C321  1  0.68760000  0.43110000  0.85883000  1
  C  C322  1  0.68670000  0.62720000  0.45030000  1
  C  C323  1  0.68380000  0.25800000  0.08936000  1
  C  C324  1  0.67830000  0.12990000  0.33390000  1
  C  C325  1  0.67780000  0.07330000  0.51850000  1
  C  C326  1  0.67030000  0.68050000  0.01746000  1
  C  C327  1  0.66760000  0.66660000  0.14789000  1
  C  C328  1  0.66380000  0.35110000  0.72583000  1
  C  C329  1  0.66050000  0.32430000  0.10481000  1
  C  C330  1  0.65670000  0.02360000  0.94996000  1
  C  C331  1  0.65380000  0.95820000  0.02511000  1
  C  C332  1  0.64930000  0.24560000  0.37001000  1
  C  C333  1  0.64590000  0.48320000  0.67904000  1
  C  C334  1  0.64480000  0.65250000  0.09920000  1
  C  C335  1  0.64420000  0.88620000  0.26847000  1
  C  C336  1  0.64110000  0.37390000  0.52576000  1
  C  C337  1  0.63820000  0.81080000  0.40121000  1
  C  C338  1  0.63590000  0.63210000  0.22493000  1
  C  C339  1  0.62540000  0.18680000  0.33818000  1
  C  C340  1  0.62500000  0.73400000  0.42437000  1
  C  C341  1  0.62000000  0.90050000  0.18176000  1
  C  C342  1  0.61850000  0.02860000  0.90100000  1
  C  C343  1  0.61740000  0.20140000  0.06912000  1
  C  C344  1  0.61700000  0.95520000  0.64860000  1
  C  C345  1  0.61670000  0.91590000  0.60800000  1
  C  C346  1  0.61640000  0.40260000  0.74657000  1
  C  C347  1  0.61320000  0.96670000  0.98076000  1
  C  C348  1  0.61010000  0.89370000  0.05706000  1
  C  C349  1  0.60880000  0.46870000  0.72368000  1
  C  C350  1  0.60330000  0.07800000  0.48893000  1
  C  C351  1  0.60010000  0.59590000  0.47046000  1
  C  C352  1  0.59860000  0.03780000  0.44614000  1
  C  C353  1  0.59790000  0.62350000  0.00758000  1
  C  C354  1  0.59380000  0.85710000  0.83172000  1
  C  C355  1  0.59320000  0.86100000  0.22288000  1
  C  C356  1  0.58410000  0.93070000  0.84258000  1
  C  C357  1  0.57510000  0.87700000  0.13987000  1
  C  C358  1  0.56740000  0.33560000  0.10070000  1
  C  C359  1  0.56090000  0.52700000  0.74743000  1
  C  C360  1  0.54990000  0.58110000  0.04432000  1
  C  C361  1  0.54790000  0.08110000  0.20943000  1
  C  C362  1  0.54780000  0.73680000  0.78936000  1
  C  C363  1  0.54550000  0.91590000  0.57520000  1
  C  C364  1  0.54510000  0.99590000  0.65690000  1
  C  C365  1  0.54220000  0.40810000  0.11724000  1
  C  C366  1  0.54050000  0.15500000  0.21911000  1
  C  C367  1  0.53940000  0.87660000  0.53170000  1
  C  C368  1  0.53800000  0.70250000  0.44370000  1
  C  C369  1  0.53250000  0.81440000  0.80046000  1
  C  C370  1  0.52860000  0.12060000  0.49850000  1
  C  C371  1  0.52560000  0.63360000  0.46624000  1
  C  C372  1  0.52480000  0.91270000  0.96607000  1
  C  C373  1  0.52430000  0.79680000  0.22086000  1
  C  C374  1  0.52410000  0.04100000  0.41337000  1
  C  C375  1  0.52400000  0.21210000  0.06518000  1
  C  C376  1  0.51700000  0.22760000  0.82130000  1
  C  C377  1  0.51350000  0.96160000  0.82119000  1
  C  C378  1  0.50790000  0.81200000  0.13804000  1
  C  C379  1  0.50070000  0.72120000  0.91871000  1
  C  C380  1  0.49930000  0.27880000  0.08129000  1
  C  C381  1  0.49210000  0.18800000  0.86196000  1
  C  C382  1  0.48650000  0.03840000  0.17881000  1
  C  C383  1  0.48300000  0.77240000  0.17870000  1
  C  C384  1  0.47600000  0.78790000  0.93482000  1
  C  C385  1  0.47590000  0.95900000  0.58663000  1
  C  C386  1  0.47570000  0.20320000  0.77914000  1
  C  C387  1  0.47520000  0.08730000  0.03393000  1
  C  C388  1  0.47440000  0.36640000  0.53376000  1
  C  C389  1  0.47140000  0.87940000  0.50150000  1
  C  C390  1  0.46750000  0.18560000  0.19954000  1
  C  C391  1  0.46200000  0.29750000  0.55630000  1
  C  C392  1  0.46060000  0.12340000  0.46830000  1
  C  C393  1  0.45950000  0.84500000  0.78089000  1
  C  C394  1  0.45780000  0.59190000  0.88276000  1
  C  C395  1  0.45490000  0.00410000  0.34310000  1
  C  C396  1  0.45450000  0.08410000  0.42480000  1
  C  C397  1  0.45220000  0.26320000  0.21064000  1
  C  C398  1  0.45210000  0.91890000  0.79057000  1
  C  C399  1  0.45010000  0.41890000  0.95568000  1
  C  C400  1  0.43910000  0.47300000  0.25257000  1
  C  C401  1  0.43260000  0.66440000  0.89930000  1
  C  C402  1  0.42490000  0.12300000  0.86013000  1
  C  C403  1  0.41590000  0.06930000  0.15742000  1
  C  C404  1  0.40680000  0.13900000  0.77712000  1
  C  C405  1  0.40620000  0.14290000  0.16828000  1
  C  C406  1  0.40210000  0.37650000  0.99242000  1
  C  C407  1  0.40140000  0.96220000  0.55386000  1
  C  C408  1  0.39990000  0.40410000  0.52954000  1
  C  C409  1  0.39670000  0.92200000  0.51107000  1
  C  C410  1  0.39120000  0.53130000  0.27632000  1
  C  C411  1  0.38990000  0.10630000  0.94294000  1
  C  C412  1  0.38680000  0.03330000  0.01924000  1
  C  C413  1  0.38360000  0.59740000  0.25343000  1
  C  C414  1  0.38330000  0.08410000  0.39200000  1
  C  C415  1  0.38300000  0.04480000  0.35140000  1
  C  C416  1  0.38260000  0.79860000  0.93088000  1
  C  C417  1  0.38150000  0.97140000  0.09900000  1
  C  C418  1  0.38000000  0.09950000  0.81824000  1
  C  C419  1  0.37500000  0.26600000  0.57563000  1
  C  C420  1  0.37460000  0.81320000  0.66182000  1
  C  C421  1  0.36410000  0.36790000  0.77507000  1
  C  C422  1  0.36180000  0.18920000  0.59879000  1
  C  C423  1  0.35890000  0.62610000  0.47424000  1
  C  C424  1  0.35580000  0.11380000  0.73153000  1
  C  C425  1  0.35520000  0.34750000  0.90080000  1
  C  C426  1  0.35410000  0.51680000  0.32096000  1
  C  C427  1  0.35070000  0.75440000  0.62999000  1
  C  C428  1  0.34620000  0.04180000  0.97489000  1
  C  C429  1  0.34330000  0.97640000  0.05004000  1
  C  C430  1  0.33950000  0.67570000  0.89519000  1
  C  C431  1  0.33620000  0.64890000  0.27417000  1
  C  C432  1  0.33240000  0.33333333  0.85211000  1
  C  C433  1  0.32970000  0.31950000  0.98254000  1
  C  C434  1  0.32220000  0.92670000  0.48150000  1
  C  C435  1  0.32170000  0.87010000  0.66610000  1
  C  C436  1  0.31620000  0.74200000  0.91064000  1
  C  C437  1  0.31330000  0.37280000  0.54970000  1
  C  C438  1  0.31240000  0.56890000  0.14117000  1
  C  C439  1  0.30510000  0.56890000  0.34142000  1
  C  C440  1  0.30300000  0.30190000  0.93555000  1
  C  C441  1  0.30140000  0.30420000  0.57244000  1
  C  C442  1  0.29610000  0.63480000  0.31796000  1
  C  C443  1  0.29260000  0.27060000  0.37620000  1
  C  C444  1  0.29250000  0.30920000  0.75967000  1
  C  C445  1  0.28820000  0.63320000  0.56968000  1
  C  C446  1  0.28430000  0.50130000  0.41462000  1
  C  C447  1  0.28080000  0.69000000  0.10502000  1
  C  C448  1  0.27530000  0.56870000  0.49111000  1
  C  C449  1  0.27220000  0.75280000  0.60180000  1
  C  C450  1  0.27190000  0.25750000  0.42120000  1
  C  C451  1  0.26640000  0.00730000  0.53741000  1
  C  C452  1  0.26520000  0.99090000  0.96118000  1
  C  C453  1  0.26200000  0.92530000  0.03582000  1
  C  C454  1  0.25960000  0.27340000  0.83957000  1
  C  C455  1  0.25860000  0.23700000  0.29090000  1
  C  C456  1  0.25720000  0.96860000  0.49420000  1
  C  C457  1  0.25590000  0.63080000  0.13723000  1
  C  C458  1  0.24410000  0.86920000  0.63723000  1
  C  C459  1  0.24280000  0.53140000  0.99420000  1
  C  C460  1  0.24140000  0.26300000  0.79090000  1
  C  C461  1  0.24040000  0.22660000  0.33957000  1
  C  C462  1  0.23800000  0.57470000  0.53582000  1
  C  C463  1  0.23480000  0.50910000  0.46118000  1
  C  C464  1  0.23360000  0.49270000  0.03741000  1
  C  C465  1  0.22810000  0.24250000  0.92120000  1
  C  C466  1  0.22780000  0.74720000  0.10180000  1
  C  C467  1  0.22470000  0.93130000  0.99111000  1
  C  C468  1  0.21920000  0.81000000  0.60502000  1
  C  C469  1  0.21570000  0.99870000  0.91462000  1
  C  C470  1  0.21180000  0.86680000  0.06968000  1
  C  C471  1  0.20750000  0.19080000  0.25967000  1
  C  C472  1  0.20740000  0.22940000  0.87620000  1
  C  C473  1  0.20390000  0.86520000  0.81796000  1
  C  C474  1  0.19860000  0.19580000  0.07244000  1
  C  C475  1  0.19700000  0.19810000  0.43555000  1
  C  C476  1  0.19490000  0.93110000  0.84142000  1
  C  C477  1  0.18760000  0.93110000  0.64117000  1
  C  C478  1  0.18670000  0.12720000  0.04970000  1
  C  C479  1  0.18380000  0.75800000  0.41064000  1
  C  C480  1  0.17830000  0.62990000  0.16610000  1
  C  C481  1  0.17780000  0.57330000  0.98150000  1
  C  C482  1  0.17030000  0.18050000  0.48254000  1
  C  C483  1  0.16760000  0.16660000  0.35211000  1
  C  C484  1  0.16380000  0.85110000  0.77417000  1
  C  C485  1  0.16050000  0.82430000  0.39519000  1
  C  C486  1  0.15670000  0.52360000  0.55004000  1
  C  C487  1  0.15380000  0.45820000  0.47489000  1
  C  C488  1  0.14930000  0.74560000  0.12999000  1
  C  C489  1  0.14590000  0.98320000  0.82096000  1
  C  C490  1  0.14480000  0.15250000  0.40080000  1
  C  C491  1  0.14420000  0.38620000  0.23153000  1
  C  C492  1  0.14110000  0.87390000  0.97424000  1
  C  C493  1  0.13820000  0.31080000  0.09879000  1
  C  C494  1  0.13590000  0.13210000  0.27507000  1
  C  C495  1  0.12540000  0.68680000  0.16182000  1
  C  C496  1  0.12500000  0.23400000  0.07563000  1
  C  C497  1  0.12000000  0.40050000  0.31824000  1
  C  C498  1  0.11850000  0.52860000  0.59900000  1
  C  C499  1  0.11740000  0.70140000  0.43088000  1
  C  C500  1  0.11700000  0.45520000  0.85140000  1
  C  C501  1  0.11670000  0.41590000  0.89200000  1
  C  C502  1  0.11640000  0.90260000  0.75343000  1
  C  C503  1  0.11320000  0.46670000  0.51924000  1
  C  C504  1  0.11010000  0.39370000  0.44294000  1
  C  C505  1  0.10880000  0.96870000  0.77632000  1
  C  C506  1  0.10330000  0.57800000  0.01107000  1
  C  C507  1  0.10010000  0.09590000  0.02954000  1
  C  C508  1  0.09860000  0.53780000  0.05386000  1
  C  C509  1  0.09790000  0.12350000  0.49242000  1
  C  C510  1  0.09380000  0.35710000  0.66828000  1
  C  C511  1  0.09320000  0.36100000  0.27712000  1
  C  C512  1  0.08410000  0.43070000  0.65742000  1
  C  C513  1  0.07510000  0.37700000  0.36013000  1
  C  C514  1  0.06740000  0.83560000  0.39930000  1
  C  C515  1  0.06090000  0.02700000  0.75257000  1
  C  C516  1  0.04990000  0.08110000  0.45568000  1
  C  C517  1  0.04790000  0.58110000  0.29057000  1
  C  C518  1  0.04780000  0.23680000  0.71064000  1
  C  C519  1  0.04550000  0.41590000  0.92480000  1
  C  C520  1  0.04510000  0.49590000  0.84310000  1
  C  C521  1  0.04220000  0.90810000  0.38276000  1
  C  C522  1  0.04050000  0.65500000  0.28089000  1
  C  C523  1  0.03940000  0.37660000  0.96830000  1
  C  C524  1  0.03800000  0.20250000  0.05630000  1
  C  C525  1  0.03250000  0.31440000  0.69954000  1
  C  C526  1  0.02860000  0.62060000  0.00150000  1
  C  C527  1  0.02560000  0.13360000  0.03376000  1
  C  C528  1  0.02480000  0.41270000  0.53393000  1
  C  C529  1  0.02430000  0.29680000  0.27914000  1
  C  C530  1  0.02410000  0.54100000  0.08663000  1
  C  C531  1  0.02400000  0.71210000  0.43482000  1
  C  C532  1  0.01700000  0.72760000  0.67870000  1
  C  C533  1  0.01350000  0.46160000  0.67881000  1
  C  C534  1  0.00790000  0.31200000  0.36196000  1
  C  C535  1  0.00070000  0.22120000  0.58129000  1
  N  N536  1  0.97610000  0.49840000  0.87314000  1
  N  N537  1  0.92760000  0.90527000  0.58910000  1
  N  N538  1  0.88480000  0.87980000  0.67966000  1
  N  N539  1  0.83620000  0.50470000  0.93349000  1
  N  N540  1  0.66380000  0.99530000  0.43349000  1
  N  N541  1  0.61520000  0.62020000  0.17966000  1
  N  N542  1  0.57240000  0.59473000  0.08910000  1
  N  N543  1  0.52390000  0.00160000  0.37314000  1
  N  N544  1  0.47610000  0.99840000  0.62686000  1
  N  N545  1  0.42760000  0.40527000  0.91090000  1
  N  N546  1  0.38480000  0.37980000  0.82034000  1
  N  N547  1  0.33620000  0.00470000  0.56651000  1
  N  N548  1  0.16380000  0.49530000  0.06651000  1
  N  N549  1  0.11520000  0.12020000  0.32034000  1
  N  N550  1  0.07240000  0.09473000  0.41090000  1
  N  N551  1  0.02390000  0.50160000  0.12686000  1
  O  O552  1  0.99280000  0.20200000  0.74347000  1
  O  O553  1  0.96055000  0.92321000  0.38927000  1
  O  O554  1  0.95890000  0.98005000  0.29011000  1
  O  O555  1  0.95550000  0.91816000  0.22291000  1
  O  O556  1  0.95217000  0.65928000  0.45358000  1
  O  O557  1  0.94221000  0.09742000  0.01391000  1
  O  O558  1  0.93250000  0.65667000  0.89897000  1
  O  O559  1  0.90500000  0.59142000  0.80024000  1
  O  O560  1  0.90360000  0.57385000  0.60192000  1
  O  O561  1  0.90083000  0.08763000  0.36508000  1
  O  O562  1  0.89491000  0.04419000  0.63798000  1
  O  O563  1  0.89110000  0.79012000  0.30858000  1
  O  O564  1  0.85440000  0.53236000  0.37524000  1
  O  O565  1  0.78370000  0.65805000  0.88663000  1
  O  O566  1  0.77130000  0.00268000  0.34933000  1
  O  O567  1  0.77120000  0.61510000  0.77102000  1
  O  O568  1  0.76030000  0.05889000  0.11588000  1
  O  O569  1  0.76010000  0.30340000  0.43044000  1
  O  O570  1  0.73990000  0.19660000  0.93044000  1
  O  O571  1  0.73970000  0.44111000  0.61588000  1
  O  O572  1  0.72880000  0.88490000  0.27102000  1
  O  O573  1  0.72870000  0.49732000  0.84933000  1
  O  O574  1  0.71630000  0.84195000  0.38663000  1
  O  O575  1  0.64560000  0.96764000  0.87524000  1
  O  O576  1  0.60890000  0.70988000  0.80858000  1
  O  O577  1  0.60509000  0.45581000  0.13798000  1
  O  O578  1  0.59917000  0.41237000  0.86508000  1
  O  O579  1  0.59640000  0.92615000  0.10192000  1
  O  O580  1  0.59500000  0.90858000  0.30024000  1
  O  O581  1  0.56750000  0.84333000  0.39897000  1
  O  O582  1  0.55779000  0.40258000  0.51391000  1
  O  O583  1  0.54783000  0.84072000  0.95358000  1
  O  O584  1  0.54450000  0.58184000  0.72291000  1
  O  O585  1  0.54110000  0.51995000  0.79011000  1
  O  O586  1  0.53945000  0.57679000  0.88927000  1
  O  O587  1  0.50720000  0.29800000  0.24347000  1
  O  O588  1  0.49280000  0.70200000  0.75653000  1
  O  O589  1  0.46055000  0.42321000  0.11073000  1
  O  O590  1  0.45890000  0.48005000  0.20989000  1
  O  O591  1  0.45550000  0.41816000  0.27709000  1
  O  O592  1  0.45217000  0.15928000  0.04642000  1
  O  O593  1  0.44221000  0.59742000  0.48609000  1
  O  O594  1  0.43250000  0.15667000  0.60103000  1
  O  O595  1  0.40500000  0.09142000  0.69976000  1
  O  O596  1  0.40360000  0.07385000  0.89808000  1
  O  O597  1  0.40083000  0.58763000  0.13492000  1
  O  O598  1  0.39491000  0.54419000  0.86202000  1
  O  O599  1  0.39110000  0.29012000  0.19142000  1
  O  O600  1  0.35440000  0.03236000  0.12476000  1
  O  O601  1  0.28370000  0.15805000  0.61337000  1
  O  O602  1  0.27130000  0.50268000  0.15067000  1
  O  O603  1  0.27120000  0.11510000  0.72898000  1
  O  O604  1  0.26030000  0.55889000  0.38412000  1
  O  O605  1  0.26010000  0.80340000  0.06956000  1
  O  O606  1  0.23990000  0.69660000  0.56956000  1
  O  O607  1  0.23970000  0.94111000  0.88412000  1
  O  O608  1  0.22880000  0.38490000  0.22898000  1
  O  O609  1  0.22870000  0.99732000  0.65067000  1
  O  O610  1  0.21630000  0.34195000  0.11337000  1
  O  O611  1  0.14560000  0.46764000  0.62476000  1
  O  O612  1  0.10890000  0.20988000  0.69142000  1
  O  O613  1  0.10509000  0.95581000  0.36202000  1
  O  O614  1  0.09917000  0.91237000  0.63492000  1
  O  O615  1  0.09640000  0.42615000  0.39808000  1
  O  O616  1  0.09500000  0.40858000  0.19976000  1
  O  O617  1  0.06750000  0.34333000  0.10103000  1
  O  O618  1  0.05779000  0.90258000  0.98609000  1
  O  O619  1  0.04783000  0.34072000  0.54642000  1
  O  O620  1  0.04450000  0.08184000  0.77709000  1
  O  O621  1  0.04110000  0.01995000  0.70989000  1
  O  O622  1  0.03945000  0.07679000  0.61073000  1
  O  O623  1  0.00720000  0.79800000  0.25653000  1
