# generated using pymatgen
data_Cu3H29C53N7O12
_symmetry_space_group_name_H-M   'P 1'
_cell_length_a   27.85963552
_cell_length_b   27.85950000
_cell_length_c   27.85950000
_cell_angle_alpha   96.35890000
_cell_angle_beta   116.39917281
_cell_angle_gamma   116.39917281
_symmetry_Int_Tables_number   1
_chemical_formula_structural   Cu3H29C53N7O12
_chemical_formula_sum   'Cu24 H232 C424 N56 O96'
_cell_volume   16015.33411598
_cell_formula_units_Z   8
loop_
 _symmetry_equiv_pos_site_id
 _symmetry_equiv_pos_as_xyz
  1  'x, y, z'
loop_
 _atom_site_type_symbol
 _atom_site_label
 _atom_site_symmetry_multiplicity
 _atom_site_fract_x
 _atom_site_fract_y
 _atom_site_fract_z
 _atom_site_occupancy
  Cu  Cu0  1  0.18592000  0.35083000  0.59077000  1
  Cu  Cu1  1  0.20956000  0.36048000  0.14772000  1
  Cu  Cu2  1  0.21276000  0.15092000  0.86048000  1
  Cu  Cu3  1  0.21351000  0.59704000  0.32277000  1
  Cu  Cu4  1  0.22573000  0.82277000  0.60926000  1
  Cu  Cu5  1  0.23994000  0.83509000  0.14917000  1
  Cu  Cu6  1  0.26006000  0.90923000  0.09515000  1
  Cu  Cu7  1  0.27427000  0.38354000  0.09704000  1
  Cu  Cu8  1  0.28649000  0.10926000  0.88354000  1
  Cu  Cu9  1  0.28724000  0.64772000  0.43816000  1
  Cu  Cu10  1  0.29044000  0.93816000  0.65092000  1
  Cu  Cu11  1  0.31408000  0.40485000  0.66491000  1
  Cu  Cu12  1  0.68592000  0.59515000  0.33509000  1
  Cu  Cu13  1  0.70956000  0.06184000  0.34908000  1
  Cu  Cu14  1  0.71276000  0.35228000  0.56184000  1
  Cu  Cu15  1  0.71351000  0.89074000  0.11646000  1
  Cu  Cu16  1  0.72573000  0.61646000  0.90296000  1
  Cu  Cu17  1  0.73994000  0.09077000  0.90485000  1
  Cu  Cu18  1  0.76006000  0.16491000  0.85083000  1
  Cu  Cu19  1  0.77427000  0.17723000  0.39074000  1
  Cu  Cu20  1  0.78649000  0.40296000  0.67723000  1
  Cu  Cu21  1  0.78724000  0.84908000  0.13952000  1
  Cu  Cu22  1  0.79044000  0.63952000  0.85228000  1
  Cu  Cu23  1  0.81408000  0.64917000  0.40923000  1
  H  H24  1  0.02110000  0.60960000  0.83410000  1
  H  H25  1  0.02280000  0.71200000  0.36960000  1
  H  H26  1  0.02610000  0.90740000  0.55590000  1
  H  H27  1  0.02680000  0.32570000  0.00550000  1
  H  H28  1  0.02760000  0.66490000  0.50610000  1
  H  H29  1  0.02870000  0.33930000  0.39340000  1
  H  H30  1  0.03300000  0.59640000  0.91820000  1
  H  H31  1  0.03630000  0.79220000  0.59910000  1
  H  H32  1  0.03720000  0.89720000  0.94420000  1
  H  H33  1  0.03990000  0.77830000  0.46500000  1
  H  H34  1  0.04660000  0.79610000  0.09570000  1
  H  H35  1  0.04700000  0.14000000  0.60280000  1
  H  H36  1  0.04970000  0.20960000  0.93790000  1
  H  H37  1  0.05000000  0.12590000  0.93850000  1
  H  H38  1  0.05030000  0.22670000  0.60200000  1
  H  H39  1  0.05410000  0.68940000  0.16070000  1
  H  H40  1  0.06030000  0.69020000  0.08090000  1
  H  H41  1  0.07240000  0.24710000  0.47610000  1
  H  H42  1  0.07750000  0.03100000  0.88990000  1
  H  H43  1  0.07780000  0.43310000  0.30550000  1
  H  H44  1  0.08020000  0.36840000  0.56480000  1
  H  H45  1  0.08190000  0.05080000  0.67330000  1
  H  H46  1  0.08250000  0.74910000  0.58660000  1
  H  H47  1  0.08780000  0.65590000  0.29010000  1
  H  H48  1  0.10200000  0.67320000  0.00340000  1
  H  H49  1  0.10270000  0.72780000  0.45770000  1
  H  H50  1  0.10930000  0.41910000  0.47940000  1
  H  H51  1  0.11810000  0.91020000  0.62430000  1
  H  H52  1  0.12250000  0.17330000  0.09140000  1
  H  H53  1  0.12470000  0.89800000  0.94830000  1
  H  H54  1  0.12760000  0.35530000  0.93310000  1
  H  H55  1  0.13020000  0.78160000  0.92040000  1
  H  H56  1  0.13210000  0.95830000  0.09840000  1
  H  H57  1  0.13420000  0.79010000  0.70230000  1
  H  H58  1  0.13880000  0.34860000  0.71840000  1
  H  H59  1  0.14010000  0.17380000  0.54170000  1
  H  H60  1  0.14110000  0.95350000  0.53100000  1
  H  H61  1  0.14850000  0.05590000  0.02980000  1
  H  H62  1  0.15760000  0.86960000  0.84680000  1
  H  H63  1  0.15880000  0.63730000  0.16490000  1
  H  H64  1  0.16250000  0.66660000  0.24910000  1
  H  H65  1  0.16980000  0.49660000  0.59860000  1
  H  H66  1  0.17620000  0.70770000  0.46330000  1
  H  H67  1  0.17820000  0.58180000  0.61480000  1
  H  H68  1  0.17980000  0.50550000  0.47870000  1
  H  H69  1  0.18670000  0.96500000  0.92510000  1
  H  H70  1  0.18690000  0.98020000  0.71710000  1
  H  H71  1  0.18740000  0.07590000  0.62590000  1
  H  H72  1  0.19310000  0.75590000  0.29220000  1
  H  H73  1  0.19640000  0.71180000  0.13160000  1
  H  H74  1  0.20040000  0.40430000  0.45090000  1
  H  H75  1  0.21410000  0.12430000  0.00620000  1
  H  H76  1  0.22450000  0.41150000  0.89040000  1
  H  H77  1  0.22830000  0.43790000  0.38820000  1
  H  H78  1  0.22900000  0.82530000  0.25290000  1
  H  H79  1  0.22990000  0.95770000  0.85500000  1
  H  H80  1  0.23690000  0.21710000  0.03020000  1
  H  H81  1  0.24440000  0.53150000  0.20770000  1
  H  H82  1  0.25560000  0.96330000  0.78710000  1
  H  H83  1  0.26310000  0.79330000  0.48020000  1
  H  H84  1  0.27010000  0.62510000  0.22780000  1
  H  H85  1  0.27100000  0.02390000  0.09630000  1
  H  H86  1  0.27170000  0.15990000  0.70960000  1
  H  H87  1  0.27550000  0.66590000  0.68700000  1
  H  H88  1  0.28590000  0.79210000  0.41020000  1
  H  H89  1  0.29960000  0.25050000  0.70390000  1
  H  H90  1  0.30360000  0.93520000  0.01540000  1
  H  H91  1  0.30690000  0.09910000  0.06280000  1
  H  H92  1  0.31260000  0.43850000  0.38850000  1
  H  H93  1  0.31310000  0.53020000  0.29330000  1
  H  H94  1  0.31330000  0.73840000  0.27830000  1
  H  H95  1  0.32020000  0.29890000  0.82570000  1
  H  H96  1  0.32180000  0.43660000  0.90360000  1
  H  H97  1  0.32380000  0.28710000  0.03150000  1
  H  H98  1  0.33020000  0.42880000  0.82680000  1
  H  H99  1  0.33750000  0.08660000  0.00410000  1
  H  H100  1  0.34120000  0.00610000  0.97850000  1
  H  H101  1  0.34240000  0.68920000  0.21200000  1
  H  H102  1  0.35150000  0.88130000  0.40740000  1
  H  H103  1  0.35890000  0.38990000  0.31240000  1
  H  H104  1  0.35990000  0.40160000  0.53370000  1
  H  H105  1  0.36120000  0.57960000  0.70980000  1
  H  H106  1  0.36580000  0.56810000  0.15590000  1
  H  H107  1  0.36790000  0.96630000  0.32620000  1
  H  H108  1  0.36980000  0.79020000  0.15140000  1
  H  H109  1  0.37240000  0.80550000  0.72770000  1
  H  H110  1  0.37530000  0.82360000  0.27330000  1
  H  H111  1  0.37750000  0.96890000  0.55080000  1
  H  H112  1  0.38190000  0.50620000  0.29210000  1
  H  H113  1  0.39070000  0.37010000  0.80980000  1
  H  H114  1  0.39730000  0.35500000  0.12510000  1
  H  H115  1  0.39800000  0.90140000  0.07120000  1
  H  H116  1  0.41220000  0.20230000  0.06810000  1
  H  H117  1  0.41750000  0.50410000  0.16660000  1
  H  H118  1  0.41810000  0.59140000  0.46890000  1
  H  H119  1  0.41980000  0.48460000  0.78820000  1
  H  H120  1  0.42220000  0.22770000  0.85530000  1
  H  H121  1  0.42250000  0.81240000  0.45350000  1
  H  H122  1  0.42760000  0.40370000  0.67470000  1
  H  H123  1  0.43970000  0.02060000  0.12990000  1
  H  H124  1  0.44590000  0.10660000  0.13530000  1
  H  H125  1  0.44970000  0.55170000  0.67640000  1
  H  H126  1  0.45000000  0.88850000  0.57590000  1
  H  H127  1  0.45030000  0.88820000  0.65990000  1
  H  H128  1  0.45300000  0.55580000  0.59300000  1
  H  H129  1  0.45340000  0.04910000  0.24950000  1
  H  H130  1  0.46010000  0.42510000  0.23840000  1
  H  H131  1  0.46280000  0.90700000  0.36000000  1
  H  H132  1  0.46370000  0.56280000  0.25590000  1
  H  H133  1  0.46700000  0.88520000  0.06340000  1
  H  H134  1  0.47130000  0.36470000  0.81060000  1
  H  H135  1  0.47240000  0.47850000  0.13730000  1
  H  H136  1  0.47320000  0.97870000  0.79890000  1
  H  H137  1  0.47390000  0.52980000  0.38130000  1
  H  H138  1  0.47720000  0.34680000  0.18920000  1
  H  H139  1  0.47890000  0.81300000  0.08850000  1
  H  H140  1  0.52110000  0.18700000  0.91150000  1
  H  H141  1  0.52280000  0.65320000  0.81080000  1
  H  H142  1  0.52610000  0.47020000  0.61870000  1
  H  H143  1  0.52680000  0.02130000  0.20110000  1
  H  H144  1  0.52760000  0.52150000  0.86270000  1
  H  H145  1  0.52870000  0.63530000  0.18940000  1
  H  H146  1  0.53300000  0.11480000  0.93660000  1
  H  H147  1  0.53630000  0.43720000  0.74410000  1
  H  H148  1  0.53720000  0.09300000  0.64000000  1
  H  H149  1  0.53990000  0.57490000  0.76160000  1
  H  H150  1  0.54660000  0.95090000  0.75050000  1
  H  H151  1  0.54700000  0.44420000  0.40700000  1
  H  H152  1  0.54970000  0.11180000  0.34010000  1
  H  H153  1  0.55000000  0.11150000  0.42410000  1
  H  H154  1  0.55030000  0.44830000  0.32360000  1
  H  H155  1  0.55410000  0.89340000  0.86470000  1
  H  H156  1  0.56030000  0.97940000  0.87010000  1
  H  H157  1  0.57240000  0.59630000  0.32530000  1
  H  H158  1  0.57750000  0.18760000  0.54650000  1
  H  H159  1  0.57780000  0.77230000  0.14470000  1
  H  H160  1  0.58020000  0.51540000  0.21180000  1
  H  H161  1  0.58190000  0.40860000  0.53110000  1
  H  H162  1  0.58250000  0.49590000  0.83340000  1
  H  H163  1  0.58780000  0.79770000  0.93190000  1
  H  H164  1  0.60200000  0.09860000  0.92880000  1
  H  H165  1  0.60270000  0.64500000  0.87490000  1
  H  H166  1  0.60930000  0.62990000  0.19020000  1
  H  H167  1  0.61810000  0.49380000  0.70790000  1
  H  H168  1  0.62250000  0.03110000  0.44920000  1
  H  H169  1  0.62470000  0.17640000  0.72670000  1
  H  H170  1  0.62760000  0.19450000  0.27230000  1
  H  H171  1  0.63020000  0.20980000  0.84860000  1
  H  H172  1  0.63210000  0.03370000  0.67380000  1
  H  H173  1  0.63420000  0.43190000  0.84410000  1
  H  H174  1  0.63880000  0.42040000  0.29020000  1
  H  H175  1  0.64010000  0.59840000  0.46630000  1
  H  H176  1  0.64110000  0.61010000  0.68760000  1
  H  H177  1  0.64850000  0.11870000  0.59260000  1
  H  H178  1  0.65760000  0.31080000  0.78800000  1
  H  H179  1  0.65880000  0.99390000  0.02150000  1
  H  H180  1  0.66250000  0.91340000  0.99583333  1
  H  H181  1  0.66980000  0.57120000  0.17320000  1
  H  H182  1  0.67620000  0.71290000  0.96850000  1
  H  H183  1  0.67820000  0.56340000  0.09640000  1
  H  H184  1  0.67980000  0.70110000  0.17430000  1
  H  H185  1  0.68670000  0.26160000  0.72170000  1
  H  H186  1  0.68690000  0.46980000  0.70670000  1
  H  H187  1  0.68740000  0.56150000  0.61150000  1
  H  H188  1  0.69310000  0.90090000  0.93720000  1
  H  H189  1  0.69640000  0.06480000  0.98460000  1
  H  H190  1  0.70040000  0.74950000  0.29610000  1
  H  H191  1  0.71410000  0.20790000  0.58980000  1
  H  H192  1  0.72450000  0.33410000  0.31300000  1
  H  H193  1  0.72830000  0.84010000  0.29040000  1
  H  H194  1  0.72900000  0.97610000  0.90370000  1
  H  H195  1  0.72990000  0.37490000  0.77220000  1
  H  H196  1  0.73690000  0.20670000  0.51980000  1
  H  H197  1  0.74440000  0.03670000  0.21290000  1
  H  H198  1  0.75560000  0.46850000  0.79230000  1
  H  H199  1  0.76310000  0.78290000  0.96980000  1
  H  H200  1  0.77010000  0.04230000  0.14500000  1
  H  H201  1  0.77100000  0.17470000  0.74710000  1
  H  H202  1  0.77170000  0.56210000  0.61180000  1
  H  H203  1  0.77550000  0.58850000  0.10960000  1
  H  H204  1  0.78590000  0.87570000  0.99380000  1
  H  H205  1  0.79960000  0.59570000  0.54910000  1
  H  H206  1  0.80360000  0.28820000  0.86840000  1
  H  H207  1  0.80690000  0.24410000  0.70780000  1
  H  H208  1  0.81260000  0.92410000  0.37410000  1
  H  H209  1  0.81310000  0.01980000  0.28290000  1
  H  H210  1  0.81330000  0.03500000  0.07490000  1
  H  H211  1  0.82020000  0.49450000  0.52130000  1
  H  H212  1  0.82180000  0.41820000  0.38520000  1
  H  H213  1  0.82380000  0.29230000  0.53670000  1
  H  H214  1  0.83020000  0.50340000  0.40140000  1
  H  H215  1  0.83750000  0.33340000  0.75090000  1
  H  H216  1  0.84120000  0.36270000  0.83510000  1
  H  H217  1  0.84240000  0.13040000  0.15320000  1
  H  H218  1  0.85150000  0.94410000  0.97020000  1
  H  H219  1  0.85890000  0.04650000  0.46900000  1
  H  H220  1  0.85990000  0.82620000  0.45830000  1
  H  H221  1  0.86120000  0.65140000  0.28160000  1
  H  H222  1  0.86580000  0.20990000  0.29770000  1
  H  H223  1  0.86790000  0.04170000  0.90160000  1
  H  H224  1  0.86980000  0.21840000  0.07960000  1
  H  H225  1  0.87240000  0.64470000  0.06690000  1
  H  H226  1  0.87530000  0.10200000  0.05170000  1
  H  H227  1  0.87750000  0.82670000  0.90860000  1
  H  H228  1  0.88190000  0.08980000  0.37570000  1
  H  H229  1  0.89070000  0.58090000  0.52060000  1
  H  H230  1  0.89730000  0.27220000  0.54230000  1
  H  H231  1  0.89800000  0.32680000  0.99660000  1
  H  H232  1  0.91220000  0.34410000  0.70990000  1
  H  H233  1  0.91750000  0.25083333  0.41340000  1
  H  H234  1  0.91810000  0.94920000  0.32670000  1
  H  H235  1  0.91980000  0.63160000  0.43520000  1
  H  H236  1  0.92220000  0.56690000  0.69450000  1
  H  H237  1  0.92250000  0.96900000  0.11010000  1
  H  H238  1  0.92760000  0.75290000  0.52390000  1
  H  H239  1  0.93970000  0.30980000  0.91910000  1
  H  H240  1  0.94590000  0.31060000  0.83930000  1
  H  H241  1  0.94970000  0.77330000  0.39800000  1
  H  H242  1  0.95000000  0.87410000  0.06150000  1
  H  H243  1  0.95030000  0.79040000  0.06210000  1
  H  H244  1  0.95300000  0.86000000  0.39720000  1
  H  H245  1  0.95340000  0.20390000  0.90430000  1
  H  H246  1  0.96010000  0.22170000  0.53500000  1
  H  H247  1  0.96280000  0.10280000  0.05580000  1
  H  H248  1  0.96370000  0.20780000  0.40090000  1
  H  H249  1  0.96700000  0.40360000  0.08180000  1
  H  H250  1  0.97130000  0.66070000  0.60660000  1
  H  H251  1  0.97240000  0.33510000  0.49390000  1
  H  H252  1  0.97320000  0.67430000  0.99450000  1
  H  H253  1  0.97390000  0.09260000  0.44410000  1
  H  H254  1  0.97720000  0.28800000  0.63040000  1
  H  H255  1  0.97890000  0.39040000  0.16590000  1
  C  C256  1  0.00210000  0.03160000  0.08290000  1
  C  C257  1  0.00371000  0.32589000  0.73520000  1
  C  C258  1  0.00620000  0.01859000  0.43499000  1
  C  C259  1  0.00830000  0.68370000  0.51020000  1
  C  C260  1  0.00870000  0.67098000  0.71668000  1
  C  C261  1  0.01060000  0.13850000  0.57630000  1
  C  C262  1  0.01250000  0.19080000  0.57550000  1
  C  C263  1  0.01270000  0.17520000  0.92790000  1
  C  C264  1  0.01350000  0.12540000  0.92990000  1
  C  C265  1  0.01380000  0.75960000  0.56580000  1
  C  C266  1  0.01860000  0.68040000  0.12560000  1
  C  C267  1  0.02290000  0.68220000  0.07850000  1
  C  C268  1  0.03010000  0.32830000  0.97400000  1
  C  C269  1  0.03870000  0.33493000  0.87903000  1
  C  C270  1  0.03960000  0.73350000  0.55810000  1
  C  C271  1  0.04140000  0.97750000  0.07790000  1
  C  C272  1  0.04160000  0.81236000  0.46436000  1
  C  C273  1  0.04280000  0.92680000  0.08140000  1
  C  C274  1  0.04410000  0.37903000  0.34033000  1
  C  C275  1  0.04430000  0.82730000  0.08940000  1
  C  C276  1  0.04440000  0.64158000  0.86818000  1
  C  C277  1  0.04570000  0.33772000  0.82902000  1
  C  C278  1  0.04640000  0.97830000  0.60910000  1
  C  C279  1  0.04810000  0.91547000  0.46437000  1
  C  C280  1  0.04830000  0.68478000  0.32168000  1
  C  C281  1  0.04890000  0.96437000  0.91627000  1
  C  C282  1  0.05130000  0.97050000  0.46840000  1
  C  C283  1  0.05210000  0.26460000  0.48030000  1
  C  C284  1  0.05290000  0.70452000  0.37162000  1
  C  C285  1  0.05400000  0.63366000  0.91906000  1
  C  C286  1  0.05480000  0.37440000  0.39300000  1
  C  C287  1  0.05520000  0.93620000  0.59300000  1
  C  C288  1  0.05640000  0.33530000  0.53170000  1
  C  C289  1  0.06010000  0.70660000  0.81310000  1
  C  C290  1  0.06220000  0.92370000  0.93430000  1
  C  C291  1  0.07000000  0.69780000  0.86800000  1
  C  C292  1  0.08360000  0.06501000  0.07121000  1
  C  C293  1  0.08480000  0.43030000  0.34070000  1
  C  C294  1  0.08620000  0.34207000  0.97867000  1
  C  C295  1  0.08683000  0.00456000  0.90173000  1
  C  C296  1  0.08850000  0.02210000  0.66400000  1
  C  C297  1  0.08960000  0.34550000  0.93030000  1
  C  C298  1  0.09069000  0.76480000  0.76851000  1
  C  C299  1  0.09120000  0.67043000  0.32403000  1
  C  C300  1  0.09290000  0.67883000  0.96893000  1
  C  C301  1  0.09710000  0.92550000  0.09340000  1
  C  C302  1  0.10000000  0.71339000  0.42419000  1
  C  C303  1  0.10023000  0.86696000  0.50499000  1
  C  C304  1  0.10040000  0.06390000  0.52250000  1
  C  C305  1  0.10100000  0.87910000  0.09790000  1
  C  C306  1  0.10283000  0.91773000  0.50456000  1
  C  C307  1  0.10370000  0.42150000  0.44440000  1
  C  C308  1  0.10650000  0.35350000  0.79340000  1
  C  C309  1  0.11010000  0.74420000  0.91950000  1
  C  C310  1  0.11030000  0.93760000  0.63450000  1
  C  C311  1  0.11530000  0.92450000  0.93700000  1
  C  C312  1  0.12060000  0.73580000  0.96960000  1
  C  C313  1  0.13080000  0.10910000  0.06270000  1
  C  C314  1  0.13660000  0.47867000  0.39247000  1
  C  C315  1  0.13690000  0.82168000  0.77338000  1
  C  C316  1  0.13803000  0.00499000  0.90476000  1
  C  C317  1  0.13880000  0.67784000  0.37664000  1
  C  C318  1  0.14190000  0.16400000  0.07550000  1
  C  C319  1  0.14260000  0.02260000  0.70620000  1
  C  C320  1  0.14340000  0.70093000  0.42733000  1
  C  C321  1  0.14350000  0.35450000  0.03380000  1
  C  C322  1  0.14570000  0.47400000  0.44390000  1
  C  C323  1  0.15190000  0.98010000  0.69000000  1
  C  C324  1  0.15200000  0.96436000  0.92276000  1
  C  C325  1  0.15360000  0.82403000  0.73283000  1
  C  C326  1  0.15460000  0.11600000  0.57320000  1
  C  C327  1  0.15680000  0.09300000  0.03780000  1
  C  C328  1  0.15820000  0.86989000  0.54849000  1
  C  C329  1  0.15860000  0.87930000  0.11230000  1
  C  C330  1  0.16670000  0.78686000  0.02716000  1
  C  C331  1  0.16710000  0.87162000  0.81872000  1
  C  C332  1  0.16790000  0.17160000  0.57450000  1
  C  C333  1  0.17020000  0.37220000  0.80220000  1
  C  C334  1  0.17350000  0.67540000  0.18370000  1
  C  C335  1  0.17530000  0.36590000  0.75580000  1
  C  C336  1  0.17540000  0.69390000  0.23350000  1
  C  C337  1  0.17860000  0.04849000  0.89029000  1
  C  C338  1  0.17930000  0.53380000  0.39030000  1
  C  C339  1  0.18257000  0.06326000  0.76631000  1
  C  C340  1  0.18315000  0.66029000  0.37928000  1
  C  C341  1  0.18360000  0.20620000  0.06360000  1
  C  C342  1  0.19380000  0.74580000  0.25960000  1
  C  C343  1  0.19550000  0.11190000  0.62540000  1
  C  C344  1  0.19640000  0.72110000  0.16470000  1
  C  C345  1  0.19690000  0.13450000  0.02420000  1
  C  C346  1  0.19880000  0.87664000  0.73784000  1
  C  C347  1  0.20305000  0.26631000  0.08374000  1
  C  C348  1  0.20990000  0.19000000  0.03810000  1
  C  C349  1  0.20990000  0.53107000  0.62397000  1
  C  C350  1  0.21080000  0.92419000  0.82419000  1
  C  C351  1  0.21460000  0.58094000  0.63494000  1
  C  C352  1  0.21570000  0.78750000  0.23540000  1
  C  C353  1  0.21880000  0.22190000  0.62090000  1
  C  C354  1  0.21899000  0.87928000  0.69613000  1
  C  C355  1  0.22640000  0.92733000  0.78393000  1
  C  C356  1  0.22660000  0.40282000  0.85842000  1
  C  C357  1  0.23300000  0.27930000  0.62070000  1
  C  C358  1  0.23380000  0.38480000  0.76420000  1
  C  C359  1  0.23790000  0.41060000  0.45490000  1
  C  C360  1  0.24030000  0.37984000  0.71314000  1
  C  C361  1  0.24730000  0.16250000  0.67520000  1
  C  C362  1  0.25270000  0.42790000  0.41520000  1
  C  C363  1  0.25970000  0.47284000  0.63954000  1
  C  C364  1  0.26210000  0.21700000  0.67270000  1
  C  C365  1  0.26620000  0.53040000  0.65100000  1
  C  C366  1  0.26700000  0.38770000  0.54630000  1
  C  C367  1  0.27340000  0.63182000  0.67622000  1
  C  C368  1  0.27360000  0.55753000  0.20093000  1
  C  C369  1  0.28101000  0.47714000  0.16029000  1
  C  C370  1  0.28120000  0.40210000  0.50310000  1
  C  C371  1  0.28430000  0.01970000  0.07180000  1
  C  C372  1  0.28540000  0.42034000  0.86634000  1
  C  C373  1  0.28920000  0.61339000  0.21339000  1
  C  C374  1  0.29010000  0.82820000  0.48010000  1
  C  C375  1  0.29010000  0.41407000  0.82117000  1
  C  C376  1  0.29695000  0.88069000  0.56326000  1
  C  C377  1  0.30120000  0.53904000  0.17784000  1
  C  C378  1  0.30310000  0.82730000  0.43760000  1
  C  C379  1  0.30360000  0.96830000  0.02470000  1
  C  C380  1  0.30450000  0.42990000  0.41640000  1
  C  C381  1  0.30620000  0.06580000  0.05200000  1
  C  C382  1  0.31640000  0.88000000  0.52260000  1
  C  C383  1  0.31685000  0.19613000  0.97714000  1
  C  C384  1  0.31743000  0.58374000  0.38069000  1
  C  C385  1  0.32070000  0.21100000  0.85450000  1
  C  C386  1  0.32140000  0.71169000  0.36989000  1
  C  C387  1  0.32460000  0.05810000  0.01850000  1
  C  C388  1  0.32470000  0.58050000  0.69060000  1
  C  C389  1  0.32650000  0.01020000  0.00190000  1
  C  C390  1  0.32980000  0.63200000  0.70200000  1
  C  C391  1  0.33210000  0.40660000  0.50370000  1
  C  C392  1  0.33290000  0.65162000  0.20452000  1
  C  C393  1  0.33333333  0.86049333  0.12019333  1
  C  C394  1  0.34140000  0.95370000  0.22070000  1
  C  C395  1  0.34180000  0.39029000  0.21169000  1
  C  C396  1  0.34320000  0.88100000  0.43620000  1
  C  C397  1  0.34540000  0.41860000  0.46140000  1
  C  C398  1  0.34640000  0.57923000  0.17043000  1
  C  C399  1  0.34800000  0.77076000  0.31236000  1
  C  C400  1  0.34810000  0.53810000  0.32820000  1
  C  C401  1  0.35430000  0.29820000  0.82830000  1
  C  C402  1  0.35650000  0.89030000  0.71100000  1
  C  C403  1  0.35660000  0.28393000  0.05753000  1
  C  C404  1  0.35740000  0.56360000  0.38000000  1
  C  C405  1  0.35810000  0.93360000  0.52210000  1
  C  C406  1  0.36120000  0.23784000  0.03904000  1
  C  C407  1  0.36197000  0.76673000  0.36696000  1
  C  C408  1  0.36310000  0.63648000  0.18478000  1
  C  C409  1  0.36340000  0.25587000  0.84207000  1
  C  C410  1  0.36920000  0.93190000  0.47830000  1
  C  C411  1  0.37940000  0.84900000  0.11520000  1
  C  C412  1  0.38470000  0.82170000  0.30920000  1
  C  C413  1  0.38970000  0.52420000  0.32730000  1
  C  C414  1  0.38990000  0.80940000  0.13410000  1
  C  C415  1  0.39350000  0.68690000  0.74700000  1
  C  C416  1  0.39630000  0.34070000  0.81780000  1
  C  C417  1  0.39717000  0.40173000  0.31490000  1
  C  C418  1  0.39900000  0.99690000  0.27810000  1
  C  C419  1  0.39960000  0.42210000  0.46350000  1
  C  C420  1  0.39977000  0.40476000  0.26673000  1
  C  C421  1  0.40000000  0.32419000  0.11339000  1
  C  C422  1  0.40290000  0.99630000  0.32840000  1
  C  C423  1  0.40710000  0.87603000  0.08593000  1
  C  C424  1  0.40880000  0.23283000  0.07923000  1
  C  C425  1  0.40931000  0.67782000  0.17411000  1
  C  C426  1  0.41040000  0.84070000  0.75590000  1
  C  C427  1  0.41150000  0.57550000  0.43360000  1
  C  C428  1  0.41317000  0.81490000  0.41773000  1
  C  C429  1  0.41380000  0.89247000  0.75587000  1
  C  C430  1  0.41520000  0.25590000  0.84550000  1
  C  C431  1  0.41640000  0.98761000  0.48141000  1
  C  C432  1  0.43000000  0.79800000  0.12780000  1
  C  C433  1  0.43780000  0.87210000  0.36150000  1
  C  C434  1  0.43990000  0.75300000  0.14650000  1
  C  C435  1  0.44360000  0.47530000  0.77890000  1
  C  C436  1  0.44480000  0.53780000  0.38100000  1
  C  C437  1  0.44520000  0.33820000  0.81960000  1
  C  C438  1  0.44600000  0.86506000  0.07966000  1
  C  C439  1  0.44710000  0.31872000  0.15162000  1
  C  C440  1  0.44790000  0.42820000  0.71250000  1
  C  C441  1  0.44870000  0.41710000  0.41920000  1
  C  C442  1  0.45110000  0.86737000  0.41547000  1
  C  C443  1  0.45170000  0.27338000  0.13648000  1
  C  C444  1  0.45190000  0.41627000  0.36737000  1
  C  C445  1  0.45360000  0.56270000  0.43190000  1
  C  C446  1  0.45430000  0.78332000  0.79202000  1
  C  C447  1  0.45560000  0.82378000  0.09718000  1
  C  C448  1  0.45570000  0.04510000  0.28300000  1
  C  C449  1  0.45590000  0.29623000  0.83493000  1
  C  C450  1  0.45720000  0.03860000  0.38400000  1
  C  C451  1  0.45840000  0.42276000  0.27076000  1
  C  C452  1  0.45860000  0.03650000  0.43610000  1
  C  C453  1  0.46040000  0.51850000  0.19390000  1
  C  C454  1  0.46130000  0.84033000  0.79623000  1
  C  C455  1  0.46990000  0.94390000  0.79820000  1
  C  C456  1  0.47710000  0.05560000  0.15930000  1
  C  C457  1  0.48140000  0.10700000  0.16180000  1
  C  C458  1  0.48620000  0.55200000  0.24580000  1
  C  C459  1  0.48650000  0.91640000  0.61190000  1
  C  C460  1  0.48730000  0.91520000  0.66250000  1
  C  C461  1  0.48750000  0.56300000  0.67830000  1
  C  C462  1  0.48940000  0.56570000  0.62790000  1
  C  C463  1  0.49130000  0.70798000  0.16228000  1
  C  C464  1  0.49170000  0.50190000  0.17540000  1
  C  C465  1  0.49380000  0.42879000  0.51239000  1
  C  C466  1  0.49629000  0.73149000  0.82218000  1
  C  C467  1  0.49790000  0.08080000  0.52950000  1
  C  C468  1  0.50210000  0.91920000  0.47050000  1
  C  C469  1  0.50371000  0.26851000  0.17782000  1
  C  C470  1  0.50620000  0.57121000  0.48761000  1
  C  C471  1  0.50830000  0.49810000  0.82460000  1
  C  C472  1  0.50870000  0.29202000  0.83772000  1
  C  C473  1  0.51060000  0.43430000  0.37210000  1
  C  C474  1  0.51250000  0.43700000  0.32170000  1
  C  C475  1  0.51270000  0.08480000  0.33750000  1
  C  C476  1  0.51350000  0.08360000  0.38810000  1
  C  C477  1  0.51380000  0.44800000  0.75420000  1
  C  C478  1  0.51860000  0.89300000  0.83820000  1
  C  C479  1  0.52290000  0.94440000  0.84070000  1
  C  C480  1  0.53010000  0.05610000  0.20180000  1
  C  C481  1  0.53870000  0.15967000  0.20377000  1
  C  C482  1  0.53960000  0.48150000  0.80610000  1
  C  C483  1  0.54140000  0.96350000  0.56390000  1
  C  C484  1  0.54160000  0.57724000  0.72924000  1
  C  C485  1  0.54280000  0.96140000  0.61600000  1
  C  C486  1  0.54410000  0.70377000  0.16507000  1
  C  C487  1  0.54430000  0.95490000  0.71700000  1
  C  C488  1  0.54440000  0.17622000  0.90282000  1
  C  C489  1  0.54570000  0.21668000  0.20798000  1
  C  C490  1  0.54640000  0.43730000  0.56810000  1
  C  C491  1  0.54810000  0.58373000  0.63263000  1
  C  C492  1  0.54830000  0.72662000  0.86352000  1
  C  C493  1  0.54890000  0.13263000  0.58453000  1
  C  C494  1  0.55130000  0.58290000  0.58080000  1
  C  C495  1  0.55210000  0.57180000  0.28750000  1
  C  C496  1  0.55290000  0.68128000  0.84838000  1
  C  C497  1  0.55400000  0.13494000  0.92034000  1
  C  C498  1  0.55480000  0.66180000  0.18040000  1
  C  C499  1  0.55520000  0.46220000  0.61900000  1
  C  C500  1  0.55640000  0.52470000  0.22110000  1
  C  C501  1  0.56010000  0.24700000  0.85350000  1
  C  C502  1  0.56220000  0.12790000  0.63850000  1
  C  C503  1  0.57000000  0.20200000  0.87220000  1
  C  C504  1  0.58360000  0.01239000  0.51859000  1
  C  C505  1  0.58480000  0.74410000  0.15450000  1
  C  C506  1  0.58620000  0.10753000  0.24413000  1
  C  C507  1  0.58683000  0.18510000  0.58227000  1
  C  C508  1  0.58850000  0.42450000  0.56640000  1
  C  C509  1  0.58960000  0.15930000  0.24410000  1
  C  C510  1  0.59069000  0.32218000  0.82589000  1
  C  C511  1  0.59120000  0.76717000  0.92077000  1
  C  C512  1  0.59290000  0.12397000  0.91407000  1
  C  C513  1  0.59710000  0.00370000  0.67160000  1
  C  C514  1  0.60000000  0.67581000  0.88661000  1
  C  C515  1  0.60023000  0.59524000  0.73327000  1
  C  C516  1  0.60040000  0.57790000  0.53650000  1
  C  C517  1  0.60100000  0.00310000  0.72190000  1
  C  C518  1  0.60283000  0.59827000  0.68510000  1
  C  C519  1  0.60370000  0.65930000  0.18220000  1
  C  C520  1  0.60650000  0.31310000  0.25300000  1
  C  C521  1  0.61010000  0.19060000  0.86590000  1
  C  C522  1  0.61030000  0.47580000  0.67270000  1
  C  C523  1  0.61530000  0.17830000  0.69080000  1
  C  C524  1  0.62060000  0.15100000  0.88480000  1
  C  C525  1  0.63080000  0.06810000  0.52170000  1
  C  C526  1  0.63660000  0.74413000  0.15793000  1
  C  C527  1  0.63690000  0.36352000  0.81522000  1
  C  C528  1  0.63803000  0.23327000  0.63304000  1
  C  C529  1  0.63880000  0.76216000  0.96096000  1
  C  C530  1  0.64190000  0.06640000  0.47790000  1
  C  C531  1  0.64260000  0.43640000  0.62000000  1
  C  C532  1  0.64340000  0.71607000  0.94247000  1
  C  C533  1  0.64350000  0.10970000  0.28900000  1
  C  C534  1  0.64570000  0.70180000  0.17170000  1
  C  C535  1  0.65190000  0.46190000  0.67180000  1
  C  C536  1  0.65200000  0.22924000  0.68764000  1
  C  C537  1  0.65360000  0.42077000  0.82957000  1
  C  C538  1  0.65460000  0.58140000  0.53860000  1
  C  C539  1  0.65680000  0.11900000  0.56380000  1
  C  C540  1  0.65820000  0.60971000  0.78831000  1
  C  C541  1  0.65860000  0.04630000  0.77930000  1
  C  C542  1  0.66666667  0.13950667  0.87980667  1
  C  C543  1  0.66710000  0.34838000  0.79548000  1
  C  C544  1  0.66790000  0.59340000  0.49630000  1
  C  C545  1  0.67020000  0.36800000  0.29800000  1
  C  C546  1  0.67350000  0.98980000  0.99810000  1
  C  C547  1  0.67530000  0.41950000  0.30940000  1
  C  C548  1  0.67540000  0.94190000  0.98150000  1
  C  C549  1  0.67860000  0.28831000  0.63011000  1
  C  C550  1  0.67930000  0.78900000  0.14550000  1
  C  C551  1  0.68257000  0.41626000  0.61931000  1
  C  C552  1  0.68315000  0.80387000  0.02286000  1
  C  C553  1  0.68360000  0.12000000  0.47740000  1
  C  C554  1  0.69380000  0.93420000  0.94800000  1
  C  C555  1  0.69550000  0.57010000  0.58360000  1
  C  C556  1  0.69640000  0.03170000  0.97530000  1
  C  C557  1  0.69690000  0.17270000  0.56240000  1
  C  C558  1  0.69880000  0.46096000  0.82216000  1
  C  C559  1  0.70305000  0.11931000  0.43674000  1
  C  C560  1  0.70990000  0.58593000  0.17883000  1
  C  C561  1  0.70990000  0.17180000  0.51990000  1
  C  C562  1  0.71080000  0.38661000  0.78661000  1
  C  C563  1  0.71460000  0.57966000  0.13366000  1
  C  C564  1  0.71570000  0.98030000  0.92820000  1
  C  C565  1  0.71880000  0.59790000  0.49690000  1
  C  C566  1  0.71899000  0.52286000  0.83971000  1
  C  C567  1  0.72640000  0.44247000  0.79907000  1
  C  C568  1  0.72660000  0.36818000  0.32378000  1
  C  C569  1  0.73300000  0.61230000  0.45370000  1
  C  C570  1  0.73380000  0.46960000  0.34900000  1
  C  C571  1  0.73790000  0.78300000  0.32730000  1
  C  C572  1  0.74030000  0.52716000  0.36046000  1
  C  C573  1  0.74730000  0.57210000  0.58480000  1
  C  C574  1  0.75270000  0.83750000  0.32480000  1
  C  C575  1  0.75970000  0.62016000  0.28686000  1
  C  C576  1  0.76210000  0.58940000  0.54510000  1
  C  C577  1  0.76620000  0.61520000  0.23580000  1
  C  C578  1  0.76700000  0.72070000  0.37930000  1
  C  C579  1  0.77340000  0.59718000  0.14158000  1
  C  C580  1  0.77360000  0.07267000  0.21607000  1
  C  C581  1  0.78101000  0.12072000  0.30387000  1
  C  C582  1  0.78120000  0.77810000  0.37910000  1
  C  C583  1  0.78430000  0.21250000  0.76460000  1
  C  C584  1  0.78540000  0.41906000  0.36506000  1
  C  C585  1  0.78920000  0.07581000  0.17581000  1
  C  C586  1  0.79010000  0.46893000  0.37603000  1
  C  C587  1  0.79010000  0.81000000  0.96190000  1
  C  C588  1  0.79695000  0.73369000  0.91626000  1
  C  C589  1  0.80120000  0.12336000  0.26216000  1
  C  C590  1  0.80310000  0.86550000  0.97580000  1
  C  C591  1  0.80360000  0.27890000  0.83530000  1
  C  C592  1  0.80450000  0.88810000  0.37460000  1
  C  C593  1  0.80620000  0.25420000  0.74040000  1
  C  C594  1  0.81640000  0.79380000  0.93640000  1
  C  C595  1  0.81685000  0.33971000  0.62072000  1
  C  C596  1  0.81743000  0.93674000  0.23369000  1
  C  C597  1  0.82070000  0.46620000  0.60970000  1
  C  C598  1  0.82140000  0.95151000  0.10971000  1
  C  C599  1  0.82460000  0.30610000  0.76650000  1
  C  C600  1  0.82470000  0.63410000  0.24420000  1
  C  C601  1  0.82650000  0.32460000  0.81630000  1
  C  C602  1  0.82980000  0.62780000  0.19780000  1
  C  C603  1  0.83210000  0.82840000  0.42550000  1
  C  C604  1  0.83290000  0.12838000  0.18128000  1
  C  C605  1  0.83330000  0.21314000  0.97284000  1
  C  C606  1  0.84140000  0.12070000  0.88770000  1
  C  C607  1  0.84180000  0.13011000  0.45151000  1
  C  C608  1  0.84320000  0.90700000  0.96220000  1
  C  C609  1  0.84540000  0.88400000  0.42680000  1
  C  C610  1  0.84640000  0.17597000  0.26717000  1
  C  C611  1  0.84800000  0.03564000  0.07724000  1
  C  C612  1  0.84810000  0.01990000  0.31000000  1
  C  C613  1  0.85430000  0.52600000  0.55610000  1
  C  C614  1  0.85650000  0.64550000  0.96620000  1
  C  C615  1  0.85660000  0.29907000  0.57267000  1
  C  C616  1  0.85740000  0.97740000  0.29380000  1
  C  C617  1  0.85810000  0.83600000  0.92450000  1
  C  C618  1  0.86120000  0.32216000  0.62336000  1
  C  C619  1  0.86197000  0.99501000  0.09524000  1
  C  C620  1  0.86310000  0.17832000  0.22662000  1
  C  C621  1  0.86340000  0.52133000  0.60753000  1
  C  C622  1  0.86920000  0.89090000  0.93730000  1
  C  C623  1  0.87940000  0.26420000  0.03040000  1
  C  C624  1  0.88470000  0.07550000  0.06300000  1
  C  C625  1  0.88970000  0.06240000  0.36550000  1
  C  C626  1  0.88990000  0.25580000  0.08050000  1
  C  C627  1  0.89350000  0.64650000  0.20660000  1
  C  C628  1  0.89630000  0.57850000  0.55560000  1
  C  C629  1  0.89717000  0.08227000  0.49544000  1
  C  C630  1  0.89900000  0.12090000  0.90210000  1
  C  C631  1  0.89960000  0.93610000  0.47750000  1
  C  C632  1  0.89977000  0.13304000  0.49501000  1
  C  C633  1  0.90000000  0.28661000  0.57581000  1
  C  C634  1  0.90290000  0.07450000  0.90660000  1
  C  C635  1  0.90710000  0.32117000  0.03107000  1
  C  C636  1  0.90880000  0.32957000  0.67597000  1
  C  C637  1  0.90931000  0.23520000  0.23149000  1
  C  C638  1  0.91040000  0.65450000  0.06970000  1
  C  C639  1  0.91150000  0.97790000  0.33600000  1
  C  C640  1  0.91317000  0.99544000  0.09827000  1
  C  C641  1  0.91380000  0.65793000  0.02133000  1
  C  C642  1  0.91520000  0.56970000  0.65930000  1
  C  C643  1  0.91640000  0.93499000  0.92879000  1
  C  C644  1  0.93000000  0.30220000  0.13200000  1
  C  C645  1  0.93780000  0.07630000  0.06570000  1
  C  C646  1  0.93990000  0.29340000  0.18690000  1
  C  C647  1  0.94360000  0.66470000  0.46830000  1
  C  C648  1  0.94480000  0.06380000  0.40700000  1
  C  C649  1  0.94520000  0.62560000  0.60700000  1
  C  C650  1  0.94600000  0.36634000  0.08094000  1
  C  C651  1  0.94710000  0.29548000  0.62838000  1
  C  C652  1  0.94790000  0.73540000  0.51970000  1
  C  C653  1  0.94870000  0.02950000  0.53160000  1
  C  C654  1  0.95110000  0.03563000  0.08373000  1
  C  C655  1  0.95170000  0.31522000  0.67832000  1
  C  C656  1  0.95190000  0.08453000  0.53563000  1
  C  C657  1  0.95360000  0.02170000  0.39090000  1
  C  C658  1  0.95430000  0.66228000  0.17098000  1
  C  C659  1  0.95560000  0.35842000  0.13182000  1
  C  C660  1  0.95570000  0.17270000  0.91060000  1
  C  C661  1  0.95590000  0.62097000  0.65967000  1
  C  C662  1  0.95720000  0.07320000  0.91860000  1
  C  C663  1  0.95840000  0.18764000  0.53564000  1
  C  C664  1  0.95860000  0.02250000  0.92210000  1
  C  C665  1  0.96040000  0.26650000  0.44190000  1
  C  C666  1  0.96130000  0.66507000  0.12097000  1
  C  C667  1  0.96990000  0.67170000  0.02600000  1
  C  C668  1  0.97710000  0.31780000  0.92150000  1
  C  C669  1  0.98140000  0.31960000  0.87440000  1
  C  C670  1  0.98620000  0.24040000  0.43420000  1
  C  C671  1  0.98650000  0.87460000  0.07010000  1
  C  C672  1  0.98730000  0.82480000  0.07210000  1
  C  C673  1  0.98750000  0.80920000  0.42450000  1
  C  C674  1  0.98940000  0.86150000  0.42370000  1
  C  C675  1  0.99130000  0.32902000  0.28332000  1
  C  C676  1  0.99170000  0.31630000  0.48980000  1
  C  C677  1  0.99380000  0.98141000  0.56501000  1
  C  C678  1  0.99629000  0.67411000  0.26480000  1
  C  C679  1  0.99790000  0.96840000  0.91710000  1
  N  N680  1  0.00030000  0.01717000  0.91487000  1
  N  N681  1  0.00206000  0.96934000  0.42700000  1
  N  N682  1  0.00480000  0.67515000  0.22107000  1
  N  N683  1  0.01423000  0.66096000  0.76353000  1
  N  N684  1  0.04234000  0.07300000  0.07506000  1
  N  N685  1  0.04592000  0.72107000  0.71627000  1
  N  N686  1  0.05498000  0.06932000  0.48210000  1
  N  N687  1  0.05914000  0.33844000  0.74138000  1
  N  N688  1  0.08464000  0.31017000  0.52751000  1
  N  N689  1  0.08722000  0.01790000  0.07288000  1
  N  N690  1  0.09706000  0.75862000  0.81776000  1
  N  N691  1  0.10230000  0.01687000  0.51717000  1
  N  N692  1  0.10257000  0.35327000  0.83904000  1
  N  N693  1  0.21734000  0.77447000  0.18983000  1
  N  N694  1  0.28266000  0.97249000  0.05713000  1
  N  N695  1  0.39743000  0.73647000  0.75070000  1
  N  N696  1  0.39770000  0.41487000  0.41457000  1
  N  N697  1  0.40294000  0.72070000  0.16156000  1
  N  N698  1  0.41278000  0.98566000  0.43068000  1
  N  N699  1  0.41536000  0.44287000  0.72553000  1
  N  N700  1  0.44086000  0.68224000  0.77930000  1
  N  N701  1  0.44502000  0.42712000  0.51434000  1
  N  N702  1  0.45408000  0.67035000  0.17515000  1
  N  N703  1  0.45766000  0.03272000  0.53066000  1
  N  N704  1  0.48577000  0.74930000  0.14673000  1
  N  N705  1  0.49520000  0.21627000  0.17035000  1
  N  N706  1  0.49794000  0.42494000  0.46728000  1
  N  N707  1  0.49970000  0.91457000  0.51687000  1
  N  N708  1  0.50030000  0.08543000  0.48313000  1
  N  N709  1  0.50206000  0.57506000  0.53272000  1
  N  N710  1  0.50480000  0.78373000  0.82965000  1
  N  N711  1  0.51423000  0.25070000  0.85327000  1
  N  N712  1  0.54234000  0.96728000  0.46934000  1
  N  N713  1  0.54592000  0.32965000  0.82485000  1
  N  N714  1  0.55498000  0.57288000  0.48566000  1
  N  N715  1  0.55914000  0.31776000  0.22070000  1
  N  N716  1  0.58464000  0.55713000  0.27447000  1
  N  N717  1  0.58722000  0.01434000  0.56932000  1
  N  N718  1  0.59706000  0.27930000  0.83844000  1
  N  N719  1  0.60230000  0.58513000  0.58543000  1
  N  N720  1  0.60257000  0.26353000  0.24930000  1
  N  N721  1  0.71734000  0.02751000  0.94287000  1
  N  N722  1  0.78266000  0.22553000  0.81017000  1
  N  N723  1  0.89743000  0.64673000  0.16096000  1
  N  N724  1  0.89770000  0.98313000  0.48283000  1
  N  N725  1  0.90294000  0.24138000  0.18224000  1
  N  N726  1  0.91278000  0.98210000  0.92712000  1
  N  N727  1  0.91536000  0.68983000  0.47249000  1
  N  N728  1  0.94086000  0.66156000  0.25862000  1
  N  N729  1  0.94502000  0.93068000  0.51790000  1
  N  N730  1  0.95408000  0.27893000  0.28373000  1
  N  N731  1  0.95766000  0.92700000  0.92494000  1
  N  N732  1  0.98577000  0.33904000  0.23647000  1
  N  N733  1  0.99520000  0.32485000  0.77893000  1
  N  N734  1  0.99794000  0.03066000  0.57300000  1
  N  N735  1  0.99970000  0.98283000  0.08513000  1
  O  O736  1  0.13773000  0.34769000  0.07520000  1
  O  O737  1  0.15509000  0.82391000  0.54826000  1
  O  O738  1  0.16403000  0.53407000  0.34020000  1
  O  O739  1  0.16498000  0.08571000  0.87719000  1
  O  O740  1  0.16713000  0.09658000  0.78045000  1
  O  O741  1  0.16906000  0.84539000  0.13377000  1
  O  O742  1  0.16948000  0.63346000  0.33082000  1
  O  O743  1  0.18005000  0.77488000  0.07151000  1
  O  O744  1  0.18387000  0.28045000  0.11332000  1
  O  O745  1  0.18504000  0.27975000  0.58437000  1
  O  O746  1  0.18967000  0.35330000  0.66353000  1
  O  O747  1  0.18977000  0.83647000  0.02614000  1
  O  O748  1  0.19387000  0.37004000  0.03407000  1
  O  O749  1  0.19538000  0.91563000  0.10067000  1
  O  O750  1  0.19736000  0.83082000  0.66134000  1
  O  O751  1  0.20337000  0.42849000  0.60854000  1
  O  O752  1  0.20852000  0.92073000  0.58571000  1
  O  O753  1  0.21162000  0.36623000  0.53529000  1
  O  O754  1  0.22435000  0.04826000  0.89317000  1
  O  O755  1  0.22749000  0.67195000  0.42770000  1
  O  O756  1  0.22751000  0.57520000  0.43747000  1
  O  O757  1  0.23182000  0.06380000  0.80048000  1
  O  O758  1  0.23668000  0.30048000  0.06866000  1
  O  O759  1  0.24425000  0.44446000  0.17195000  1
  O  O760  1  0.25575000  0.92770000  0.70021000  1
  O  O761  1  0.26332000  0.83198000  0.56380000  1
  O  O762  1  0.26818000  0.56866000  0.33198000  1
  O  O763  1  0.27249000  0.20996000  0.84769000  1
  O  O764  1  0.27251000  0.20021000  0.94446000  1
  O  O765  1  0.27565000  0.66882000  0.32391000  1
  O  O766  1  0.28838000  0.32367000  0.65461000  1
  O  O767  1  0.29148000  0.37719000  0.21221000  1
  O  O768  1  0.29663000  0.40517000  0.72512000  1
  O  O769  1  0.30264000  0.46398000  0.13346000  1
  O  O770  1  0.30462000  0.90529000  0.22025000  1
  O  O771  1  0.30613000  0.84020000  0.67617000  1
  O  O772  1  0.31023000  0.83637000  0.14670000  1
  O  O773  1  0.31033000  0.47386000  0.66363000  1
  O  O774  1  0.31496000  0.39933000  0.59471000  1
  O  O775  1  0.31613000  0.92945000  0.59658000  1
  O  O776  1  0.31995000  0.89146000  0.09483000  1
  O  O777  1  0.33052000  0.16134000  0.96398000  1
  O  O778  1  0.33094000  0.96471000  0.17633000  1
  O  O779  1  0.33287000  0.61332000  0.42945000  1
  O  O780  1  0.33502000  0.71221000  0.42073000  1
  O  O781  1  0.33597000  0.17617000  0.87004000  1
  O  O782  1  0.34491000  0.39317000  0.16882000  1
  O  O783  1  0.36227000  0.93747000  0.70996000  1
  O  O784  1  0.63773000  0.06253000  0.29004000  1
  O  O785  1  0.65509000  0.60683000  0.83118000  1
  O  O786  1  0.66403000  0.82383000  0.12996000  1
  O  O787  1  0.66498000  0.28779000  0.57927000  1
  O  O788  1  0.66713000  0.38668000  0.57055000  1
  O  O789  1  0.66906000  0.03529000  0.82367000  1
  O  O790  1  0.66948000  0.83866000  0.03602000  1
  O  O791  1  0.68005000  0.10854000  0.90517000  1
  O  O792  1  0.68387000  0.07055000  0.40342000  1
  O  O793  1  0.68504000  0.60067000  0.40529000  1
  O  O794  1  0.68967000  0.52614000  0.33637000  1
  O  O795  1  0.68977000  0.16363000  0.85330000  1
  O  O796  1  0.69387000  0.15980000  0.32383000  1
  O  O797  1  0.69538000  0.09471000  0.77975000  1
  O  O798  1  0.69736000  0.53602000  0.86654000  1
  O  O799  1  0.70337000  0.59483000  0.27488000  1
  O  O800  1  0.70852000  0.62281000  0.78779000  1
  O  O801  1  0.71162000  0.67633000  0.34539000  1
  O  O802  1  0.72435000  0.33118000  0.67609000  1
  O  O803  1  0.72749000  0.79979000  0.05554000  1
  O  O804  1  0.72751000  0.79004000  0.15231000  1
  O  O805  1  0.73182000  0.43134000  0.66802000  1
  O  O806  1  0.73668000  0.16802000  0.43620000  1
  O  O807  1  0.74425000  0.07230000  0.29979000  1
  O  O808  1  0.75575000  0.55554000  0.82805000  1
  O  O809  1  0.76332000  0.69952000  0.93134000  1
  O  O810  1  0.76818000  0.93620000  0.19952000  1
  O  O811  1  0.77249000  0.42480000  0.56253000  1
  O  O812  1  0.77251000  0.32805000  0.57230000  1
  O  O813  1  0.77565000  0.95174000  0.10683000  1
  O  O814  1  0.78838000  0.63377000  0.46471000  1
  O  O815  1  0.79148000  0.07927000  0.41429000  1
  O  O816  1  0.79663000  0.57151000  0.39146000  1
  O  O817  1  0.80264000  0.16918000  0.33866000  1
  O  O818  1  0.80462000  0.08437000  0.89933000  1
  O  O819  1  0.80613000  0.62996000  0.96593000  1
  O  O820  1  0.81023000  0.16353000  0.97386000  1
  O  O821  1  0.81033000  0.64670000  0.33647000  1
  O  O822  1  0.81496000  0.72025000  0.41563000  1
  O  O823  1  0.81613000  0.71955000  0.88668000  1
  O  O824  1  0.81995000  0.22512000  0.92849000  1
  O  O825  1  0.83052000  0.36654000  0.66918000  1
  O  O826  1  0.83094000  0.15461000  0.86623000  1
  O  O827  1  0.83287000  0.90342000  0.21955000  1
  O  O828  1  0.83502000  0.91429000  0.12281000  1
  O  O829  1  0.83597000  0.46593000  0.65980000  1
  O  O830  1  0.84491000  0.17609000  0.45174000  1
  O  O831  1  0.86227000  0.65231000  0.92480000  1
