# generated using pymatgen
data_CuH17C30NO4
_symmetry_space_group_name_H-M   'P 1'
_cell_length_a   20.46300000
_cell_length_b   43.25200000
_cell_length_c   43.25200000
_cell_angle_alpha   120.00000000
_cell_angle_beta   90.00000000
_cell_angle_gamma   90.00000000
_symmetry_Int_Tables_number   1
_chemical_formula_structural   CuH17C30NO4
_chemical_formula_sum   'Cu12 H204 C360 N12 O48'
_cell_volume   33152.19777422
_cell_formula_units_Z   12
loop_
 _symmetry_equiv_pos_site_id
 _symmetry_equiv_pos_as_xyz
  1  'x, y, z'
loop_
 _atom_site_type_symbol
 _atom_site_label
 _atom_site_symmetry_multiplicity
 _atom_site_fract_x
 _atom_site_fract_y
 _atom_site_fract_z
 _atom_site_occupancy
  Cu  Cu0  1  0.04870000  0.68087000  0.65350000  1
  Cu  Cu1  1  0.04870000  0.34650000  0.02737000  1
  Cu  Cu2  1  0.04870000  0.97263000  0.31913000  1
  Cu  Cu3  1  0.45130000  0.34650000  0.31913000  1
  Cu  Cu4  1  0.45130000  0.97263000  0.65350000  1
  Cu  Cu5  1  0.45130000  0.68087000  0.02737000  1
  Cu  Cu6  1  0.54870000  0.02737000  0.68087000  1
  Cu  Cu7  1  0.54870000  0.65350000  0.97263000  1
  Cu  Cu8  1  0.54870000  0.31913000  0.34650000  1
  Cu  Cu9  1  0.95130000  0.31913000  0.97263000  1
  Cu  Cu10  1  0.95130000  0.02737000  0.34650000  1
  Cu  Cu11  1  0.95130000  0.65350000  0.68087000  1
  H  H12  1  0.03010000  0.22450000  0.91340000  1
  H  H13  1  0.03010000  0.08660000  0.31110000  1
  H  H14  1  0.03010000  0.68890000  0.77550000  1
  H  H15  1  0.04760000  0.36330000  0.91250000  1
  H  H16  1  0.04760000  0.08750000  0.45080000  1
  H  H17  1  0.04760000  0.54920000  0.63670000  1
  H  H18  1  0.06780000  0.16610000  0.88250000  1
  H  H19  1  0.06780000  0.11750000  0.28360000  1
  H  H20  1  0.06780000  0.71640000  0.83390000  1
  H  H21  1  0.06790000  0.37560000  0.86440000  1
  H  H22  1  0.06790000  0.13560000  0.51120000  1
  H  H23  1  0.06790000  0.48880000  0.62440000  1
  H  H24  1  0.14650000  0.40840000  0.84500000  1
  H  H25  1  0.14650000  0.15500000  0.56340000  1
  H  H26  1  0.14650000  0.43660000  0.59160000  1
  H  H27  1  0.15000000  0.11590000  0.87990000  1
  H  H28  1  0.15000000  0.76400000  0.88410000  1
  H  H29  1  0.15000000  0.12010000  0.23600000  1
  H  H30  1  0.15710000  0.09390000  0.94530000  1
  H  H31  1  0.15710000  0.05470000  0.14860000  1
  H  H32  1  0.15710000  0.85140000  0.90610000  1
  H  H33  1  0.16160000  0.06650000  0.98350000  1
  H  H34  1  0.16160000  0.01650000  0.08300000  1
  H  H35  1  0.16160000  0.91700000  0.93350000  1
  H  H36  1  0.16630000  0.24830000  0.98900000  1
  H  H37  1  0.16630000  0.01100000  0.25930000  1
  H  H38  1  0.16630000  0.74070000  0.75170000  1
  H  H39  1  0.18690000  0.38450000  0.98590000  1
  H  H40  1  0.18690000  0.01410000  0.39860000  1
  H  H41  1  0.18690000  0.60140000  0.61550000  1
  H  H42  1  0.21260000  0.19030000  0.63850000  1
  H  H43  1  0.21260000  0.44820000  0.80970000  1
  H  H44  1  0.21260000  0.36150000  0.55180000  1
  H  H45  1  0.21280000  0.08890000  0.58250000  1
  H  H46  1  0.21280000  0.49360000  0.91110000  1
  H  H47  1  0.21280000  0.41750000  0.50640000  1
  H  H48  1  0.22200000  0.03470000  0.84890000  1
  H  H49  1  0.22200000  0.81420000  0.96530000  1
  H  H50  1  0.22200000  0.15110000  0.18580000  1
  H  H51  1  0.23110000  0.20950000  0.98870000  1
  H  H52  1  0.23110000  0.01130000  0.22080000  1
  H  H53  1  0.23110000  0.77920000  0.79050000  1
  H  H54  1  0.23610000  0.24840000  0.66840000  1
  H  H55  1  0.23610000  0.42000000  0.75160000  1
  H  H56  1  0.23610000  0.33160000  0.58000000  1
  H  H57  1  0.24780000  0.04050000  0.59130000  1
  H  H58  1  0.24780000  0.55080000  0.95950000  1
  H  H59  1  0.24780000  0.40870000  0.44920000  1
  H  H60  1  0.25000000  0.06320000  0.03160000  1
  H  H61  1  0.25000000  0.96840000  0.93680000  1
  H  H62  1  0.25000000  0.29990000  0.70010000  1
  H  H63  1  0.25000000  0.29990000  0.59980000  1
  H  H64  1  0.25000000  0.40020000  0.70010000  1
  H  H65  1  0.25000000  0.96840000  0.03160000  1
  H  H66  1  0.25220000  0.40870000  0.95950000  1
  H  H67  1  0.25220000  0.04050000  0.44920000  1
  H  H68  1  0.25220000  0.55080000  0.59130000  1
  H  H69  1  0.26390000  0.33160000  0.75160000  1
  H  H70  1  0.26390000  0.24840000  0.58000000  1
  H  H71  1  0.26390000  0.42000000  0.66840000  1
  H  H72  1  0.26890000  0.01130000  0.79050000  1
  H  H73  1  0.26890000  0.77920000  0.98870000  1
  H  H74  1  0.26890000  0.20950000  0.22080000  1
  H  H75  1  0.27800000  0.15110000  0.96530000  1
  H  H76  1  0.27800000  0.03470000  0.18580000  1
  H  H77  1  0.27800000  0.81420000  0.84890000  1
  H  H78  1  0.28720000  0.41750000  0.91110000  1
  H  H79  1  0.28720000  0.08890000  0.50640000  1
  H  H80  1  0.28720000  0.49360000  0.58250000  1
  H  H81  1  0.28740000  0.36150000  0.80970000  1
  H  H82  1  0.28740000  0.19030000  0.55180000  1
  H  H83  1  0.28740000  0.44820000  0.63850000  1
  H  H84  1  0.31310000  0.01410000  0.61550000  1
  H  H85  1  0.31310000  0.60140000  0.98590000  1
  H  H86  1  0.31310000  0.38450000  0.39860000  1
  H  H87  1  0.33370000  0.01100000  0.75170000  1
  H  H88  1  0.33370000  0.74070000  0.98900000  1
  H  H89  1  0.33370000  0.24830000  0.25930000  1
  H  H90  1  0.33840000  0.01650000  0.93350000  1
  H  H91  1  0.33840000  0.91700000  0.98350000  1
  H  H92  1  0.33840000  0.06650000  0.08300000  1
  H  H93  1  0.34290000  0.05470000  0.90610000  1
  H  H94  1  0.34290000  0.85140000  0.94530000  1
  H  H95  1  0.34290000  0.09390000  0.14860000  1
  H  H96  1  0.35000000  0.12010000  0.88410000  1
  H  H97  1  0.35000000  0.11590000  0.23600000  1
  H  H98  1  0.35000000  0.76400000  0.87990000  1
  H  H99  1  0.35350000  0.15500000  0.59160000  1
  H  H100  1  0.35350000  0.43660000  0.84500000  1
  H  H101  1  0.35350000  0.40840000  0.56340000  1
  H  H102  1  0.43210000  0.13560000  0.62440000  1
  H  H103  1  0.43210000  0.48880000  0.86440000  1
  H  H104  1  0.43210000  0.37560000  0.51120000  1
  H  H105  1  0.43220000  0.11750000  0.83390000  1
  H  H106  1  0.43220000  0.71640000  0.88250000  1
  H  H107  1  0.43220000  0.16610000  0.28360000  1
  H  H108  1  0.45240000  0.08750000  0.63670000  1
  H  H109  1  0.45240000  0.54920000  0.91250000  1
  H  H110  1  0.45240000  0.36330000  0.45080000  1
  H  H111  1  0.46990000  0.08660000  0.77550000  1
  H  H112  1  0.46990000  0.68890000  0.91340000  1
  H  H113  1  0.46990000  0.22450000  0.31110000  1
  H  H114  1  0.53010000  0.31110000  0.22450000  1
  H  H115  1  0.53010000  0.91340000  0.68890000  1
  H  H116  1  0.53010000  0.77550000  0.08660000  1
  H  H117  1  0.54760000  0.45080000  0.36330000  1
  H  H118  1  0.54760000  0.91250000  0.54920000  1
  H  H119  1  0.54760000  0.63670000  0.08750000  1
  H  H120  1  0.56780000  0.28360000  0.16610000  1
  H  H121  1  0.56780000  0.88250000  0.71640000  1
  H  H122  1  0.56780000  0.83390000  0.11750000  1
  H  H123  1  0.56790000  0.51120000  0.37560000  1
  H  H124  1  0.56790000  0.86440000  0.48880000  1
  H  H125  1  0.56790000  0.62440000  0.13560000  1
  H  H126  1  0.64650000  0.56340000  0.40840000  1
  H  H127  1  0.64650000  0.84500000  0.43660000  1
  H  H128  1  0.64650000  0.59160000  0.15500000  1
  H  H129  1  0.65000000  0.87990000  0.76400000  1
  H  H130  1  0.65000000  0.23600000  0.11590000  1
  H  H131  1  0.65000000  0.88410000  0.12010000  1
  H  H132  1  0.65710000  0.14860000  0.09390000  1
  H  H133  1  0.65710000  0.94530000  0.85140000  1
  H  H134  1  0.65710000  0.90610000  0.05470000  1
  H  H135  1  0.66160000  0.08300000  0.06650000  1
  H  H136  1  0.66160000  0.98350000  0.91700000  1
  H  H137  1  0.66160000  0.93350000  0.01650000  1
  H  H138  1  0.66630000  0.25930000  0.24830000  1
  H  H139  1  0.66630000  0.98900000  0.74070000  1
  H  H140  1  0.66630000  0.75170000  0.01100000  1
  H  H141  1  0.68690000  0.39860000  0.38450000  1
  H  H142  1  0.68690000  0.98590000  0.60140000  1
  H  H143  1  0.68690000  0.61550000  0.01410000  1
  H  H144  1  0.71260000  0.63850000  0.44820000  1
  H  H145  1  0.71260000  0.55180000  0.19030000  1
  H  H146  1  0.71260000  0.80970000  0.36150000  1
  H  H147  1  0.71280000  0.58250000  0.49360000  1
  H  H148  1  0.71280000  0.50640000  0.08890000  1
  H  H149  1  0.71280000  0.91110000  0.41750000  1
  H  H150  1  0.72200000  0.84890000  0.81420000  1
  H  H151  1  0.72200000  0.18580000  0.03470000  1
  H  H152  1  0.72200000  0.96530000  0.15110000  1
  H  H153  1  0.73110000  0.22080000  0.20950000  1
  H  H154  1  0.73110000  0.98870000  0.77920000  1
  H  H155  1  0.73110000  0.79050000  0.01130000  1
  H  H156  1  0.73610000  0.66840000  0.42000000  1
  H  H157  1  0.73610000  0.58000000  0.24840000  1
  H  H158  1  0.73610000  0.75160000  0.33160000  1
  H  H159  1  0.74780000  0.59130000  0.55080000  1
  H  H160  1  0.74780000  0.44920000  0.04050000  1
  H  H161  1  0.74780000  0.95950000  0.40870000  1
  H  H162  1  0.75000000  0.03160000  0.96840000  1
  H  H163  1  0.75000000  0.59980000  0.29990000  1
  H  H164  1  0.75000000  0.70010000  0.40020000  1
  H  H165  1  0.75000000  0.70010000  0.29990000  1
  H  H166  1  0.75000000  0.03160000  0.06320000  1
  H  H167  1  0.75000000  0.93680000  0.96840000  1
  H  H168  1  0.75220000  0.44920000  0.40870000  1
  H  H169  1  0.75220000  0.95950000  0.55080000  1
  H  H170  1  0.75220000  0.59130000  0.04050000  1
  H  H171  1  0.76390000  0.58000000  0.33160000  1
  H  H172  1  0.76390000  0.75160000  0.42000000  1
  H  H173  1  0.76390000  0.66840000  0.24840000  1
  H  H174  1  0.76890000  0.79050000  0.77920000  1
  H  H175  1  0.76890000  0.22080000  0.01130000  1
  H  H176  1  0.76890000  0.98870000  0.20950000  1
  H  H177  1  0.77800000  0.18580000  0.15110000  1
  H  H178  1  0.77800000  0.96530000  0.81420000  1
  H  H179  1  0.77800000  0.84890000  0.03470000  1
  H  H180  1  0.78720000  0.50640000  0.41750000  1
  H  H181  1  0.78720000  0.91110000  0.49360000  1
  H  H182  1  0.78720000  0.58250000  0.08890000  1
  H  H183  1  0.78740000  0.55180000  0.36150000  1
  H  H184  1  0.78740000  0.80970000  0.44820000  1
  H  H185  1  0.78740000  0.63850000  0.19030000  1
  H  H186  1  0.81310000  0.61550000  0.60140000  1
  H  H187  1  0.81310000  0.39860000  0.01410000  1
  H  H188  1  0.81310000  0.98590000  0.38450000  1
  H  H189  1  0.83370000  0.75170000  0.74070000  1
  H  H190  1  0.83370000  0.25930000  0.01100000  1
  H  H191  1  0.83370000  0.98900000  0.24830000  1
  H  H192  1  0.83840000  0.93350000  0.91700000  1
  H  H193  1  0.83840000  0.08300000  0.01650000  1
  H  H194  1  0.83840000  0.98350000  0.06650000  1
  H  H195  1  0.84290000  0.90610000  0.85140000  1
  H  H196  1  0.84290000  0.14860000  0.05470000  1
  H  H197  1  0.84290000  0.94530000  0.09390000  1
  H  H198  1  0.85000000  0.23600000  0.12010000  1
  H  H199  1  0.85000000  0.88410000  0.76400000  1
  H  H200  1  0.85000000  0.87990000  0.11590000  1
  H  H201  1  0.85350000  0.59160000  0.43660000  1
  H  H202  1  0.85350000  0.56340000  0.15500000  1
  H  H203  1  0.85350000  0.84500000  0.40840000  1
  H  H204  1  0.93210000  0.62440000  0.48880000  1
  H  H205  1  0.93210000  0.51120000  0.13560000  1
  H  H206  1  0.93210000  0.86440000  0.37560000  1
  H  H207  1  0.93220000  0.83390000  0.71640000  1
  H  H208  1  0.93220000  0.28360000  0.11750000  1
  H  H209  1  0.93220000  0.88250000  0.16610000  1
  H  H210  1  0.95240000  0.63670000  0.54920000  1
  H  H211  1  0.95240000  0.45080000  0.08750000  1
  H  H212  1  0.95240000  0.91250000  0.36330000  1
  H  H213  1  0.96990000  0.77550000  0.68890000  1
  H  H214  1  0.96990000  0.31110000  0.08660000  1
  H  H215  1  0.96990000  0.91340000  0.22450000  1
  C  C216  1  0.06170000  0.35450000  0.96530000  1
  C  C217  1  0.06170000  0.03470000  0.38920000  1
  C  C218  1  0.06170000  0.61080000  0.64550000  1
  C  C219  1  0.06500000  0.21750000  0.92230000  1
  C  C220  1  0.06500000  0.07770000  0.29520000  1
  C  C221  1  0.06500000  0.70480000  0.78250000  1
  C  C222  1  0.06950000  0.28040000  0.97460000  1
  C  C223  1  0.06950000  0.02540000  0.30580000  1
  C  C224  1  0.06950000  0.69420000  0.71960000  1
  C  C225  1  0.08750000  0.18260000  0.90390000  1
  C  C226  1  0.08750000  0.09610000  0.27870000  1
  C  C227  1  0.08750000  0.72130000  0.81740000  1
  C  C228  1  0.08860000  0.37240000  0.92190000  1
  C  C229  1  0.08860000  0.07810000  0.45050000  1
  C  C230  1  0.08860000  0.54950000  0.62760000  1
  C  C231  1  0.09450000  0.24220000  0.95430000  1
  C  C232  1  0.09450000  0.04570000  0.28790000  1
  C  C233  1  0.09450000  0.71210000  0.75780000  1
  C  C234  1  0.10700000  0.38580000  0.87600000  1
  C  C235  1  0.10700000  0.12400000  0.50980000  1
  C  C236  1  0.10700000  0.49020000  0.61420000  1
  C  C237  1  0.11070000  0.37150000  0.95180000  1
  C  C238  1  0.11070000  0.04820000  0.41970000  1
  C  C239  1  0.11070000  0.58030000  0.62850000  1
  C  C240  1  0.12770000  0.38690000  0.90610000  1
  C  C241  1  0.12770000  0.09390000  0.48080000  1
  C  C242  1  0.12770000  0.51920000  0.61310000  1
  C  C243  1  0.13960000  0.17220000  0.91730000  1
  C  C244  1  0.13960000  0.08270000  0.25490000  1
  C  C245  1  0.13960000  0.74510000  0.82780000  1
  C  C246  1  0.14660000  0.23180000  0.96770000  1
  C  C247  1  0.14660000  0.03230000  0.26410000  1
  C  C248  1  0.14660000  0.73590000  0.76820000  1
  C  C249  1  0.15800000  0.40400000  0.86320000  1
  C  C250  1  0.15800000  0.13680000  0.54080000  1
  C  C251  1  0.15800000  0.45920000  0.59600000  1
  C  C252  1  0.16660000  0.13490000  0.90080000  1
  C  C253  1  0.16660000  0.09920000  0.23410000  1
  C  C254  1  0.16660000  0.76590000  0.86510000  1
  C  C255  1  0.16910000  0.19680000  0.94910000  1
  C  C256  1  0.16910000  0.05090000  0.24770000  1
  C  C257  1  0.16910000  0.75230000  0.80320000  1
  C  C258  1  0.17200000  0.38510000  0.96590000  1
  C  C259  1  0.17200000  0.03410000  0.41920000  1
  C  C260  1  0.17200000  0.58080000  0.61490000  1
  C  C261  1  0.18900000  0.40050000  0.92020000  1
  C  C262  1  0.18900000  0.07980000  0.48030000  1
  C  C263  1  0.18900000  0.51970000  0.59950000  1
  C  C264  1  0.19230000  0.08060000  0.94560000  1
  C  C265  1  0.19230000  0.05440000  0.13500000  1
  C  C266  1  0.19230000  0.86500000  0.91940000  1
  C  C267  1  0.19380000  0.06310000  0.96690000  1
  C  C268  1  0.19380000  0.03310000  0.09620000  1
  C  C269  1  0.19380000  0.90380000  0.93690000  1
  C  C270  1  0.20980000  0.41230000  0.87590000  1
  C  C271  1  0.20980000  0.12410000  0.53640000  1
  C  C272  1  0.20980000  0.46360000  0.58770000  1
  C  C273  1  0.21110000  0.39960000  0.95010000  1
  C  C274  1  0.21110000  0.04990000  0.44950000  1
  C  C275  1  0.21110000  0.55050000  0.60040000  1
  C  C276  1  0.21680000  0.19080000  0.96700000  1
  C  C277  1  0.21680000  0.03300000  0.22380000  1
  C  C278  1  0.21680000  0.77620000  0.80920000  1
  C  C279  1  0.21810000  0.13140000  0.91930000  1
  C  C280  1  0.21810000  0.08070000  0.21210000  1
  C  C281  1  0.21810000  0.78790000  0.86860000  1
  C  C282  1  0.23080000  0.20070000  0.62620000  1
  C  C283  1  0.23080000  0.42550000  0.79930000  1
  C  C284  1  0.23080000  0.37380000  0.57450000  1
  C  C285  1  0.23870000  0.23700000  0.64360000  1
  C  C286  1  0.23870000  0.40660000  0.76300000  1
  C  C287  1  0.23870000  0.35640000  0.59340000  1
  C  C288  1  0.24370000  0.41210000  0.90420000  1
  C  C289  1  0.24370000  0.09580000  0.50790000  1
  C  C290  1  0.24370000  0.49210000  0.58790000  1
  C  C291  1  0.24570000  0.15660000  0.95360000  1
  C  C292  1  0.24570000  0.04640000  0.20300000  1
  C  C293  1  0.24570000  0.79700000  0.84340000  1
  C  C294  1  0.25000000  0.03840000  0.01920000  1
  C  C295  1  0.25000000  0.98080000  0.96160000  1
  C  C296  1  0.25000000  0.01985000  0.98015000  1
  C  C297  1  0.25000000  0.03990000  0.96010000  1
  C  C298  1  0.25000000  0.07500000  0.92500000  1
  C  C299  1  0.25000000  0.17760000  0.58880000  1
  C  C300  1  0.25000000  0.41120000  0.82240000  1
  C  C301  1  0.25000000  0.31230000  0.68770000  1
  C  C302  1  0.25000000  0.25920000  0.62960000  1
  C  C303  1  0.25000000  0.37040000  0.74080000  1
  C  C304  1  0.25000000  0.29960000  0.64980000  1
  C  C305  1  0.25000000  0.35020000  0.70040000  1
  C  C306  1  0.25000000  0.31230000  0.62460000  1
  C  C307  1  0.25000000  0.37540000  0.68770000  1
  C  C308  1  0.25000000  0.35020000  0.64980000  1
  C  C309  1  0.25000000  0.37040000  0.62960000  1
  C  C310  1  0.25000000  0.41120000  0.58880000  1
  C  C311  1  0.25000000  0.07500000  0.15000000  1
  C  C312  1  0.25000000  0.85000000  0.92500000  1
  C  C313  1  0.25000000  0.03990000  0.07980000  1
  C  C314  1  0.25000000  0.92020000  0.96010000  1
  C  C315  1  0.25000000  0.98080000  0.01920000  1
  C  C316  1  0.25000000  0.01985000  0.03970000  1
  C  C317  1  0.25000000  0.96030000  0.98015000  1
  C  C318  1  0.25430000  0.04640000  0.84340000  1
  C  C319  1  0.25430000  0.79700000  0.95360000  1
  C  C320  1  0.25430000  0.15660000  0.20300000  1
  C  C321  1  0.25630000  0.09580000  0.58790000  1
  C  C322  1  0.25630000  0.49210000  0.90420000  1
  C  C323  1  0.25630000  0.41210000  0.50790000  1
  C  C324  1  0.26130000  0.35640000  0.76300000  1
  C  C325  1  0.26130000  0.23700000  0.59340000  1
  C  C326  1  0.26130000  0.40660000  0.64360000  1
  C  C327  1  0.26920000  0.37380000  0.79930000  1
  C  C328  1  0.26920000  0.20070000  0.57450000  1
  C  C329  1  0.26920000  0.42550000  0.62620000  1
  C  C330  1  0.28190000  0.08070000  0.86860000  1
  C  C331  1  0.28190000  0.78790000  0.91930000  1
  C  C332  1  0.28190000  0.13140000  0.21210000  1
  C  C333  1  0.28320000  0.03300000  0.80920000  1
  C  C334  1  0.28320000  0.77620000  0.96700000  1
  C  C335  1  0.28320000  0.19080000  0.22380000  1
  C  C336  1  0.28890000  0.04990000  0.60040000  1
  C  C337  1  0.28890000  0.55050000  0.95010000  1
  C  C338  1  0.28890000  0.39960000  0.44950000  1
  C  C339  1  0.29020000  0.12410000  0.58770000  1
  C  C340  1  0.29020000  0.46360000  0.87590000  1
  C  C341  1  0.29020000  0.41230000  0.53640000  1
  C  C342  1  0.30620000  0.03310000  0.93690000  1
  C  C343  1  0.30620000  0.90380000  0.96690000  1
  C  C344  1  0.30620000  0.06310000  0.09620000  1
  C  C345  1  0.30770000  0.05440000  0.91940000  1
  C  C346  1  0.30770000  0.86500000  0.94560000  1
  C  C347  1  0.30770000  0.08060000  0.13500000  1
  C  C348  1  0.31100000  0.07980000  0.59950000  1
  C  C349  1  0.31100000  0.51970000  0.92020000  1
  C  C350  1  0.31100000  0.40050000  0.48030000  1
  C  C351  1  0.32800000  0.03410000  0.61490000  1
  C  C352  1  0.32800000  0.58080000  0.96590000  1
  C  C353  1  0.32800000  0.38510000  0.41920000  1
  C  C354  1  0.33090000  0.05090000  0.80320000  1
  C  C355  1  0.33090000  0.75230000  0.94910000  1
  C  C356  1  0.33090000  0.19680000  0.24770000  1
  C  C357  1  0.33340000  0.09920000  0.86510000  1
  C  C358  1  0.33340000  0.76590000  0.90080000  1
  C  C359  1  0.33340000  0.13490000  0.23410000  1
  C  C360  1  0.34200000  0.13680000  0.59600000  1
  C  C361  1  0.34200000  0.45920000  0.86320000  1
  C  C362  1  0.34200000  0.40400000  0.54080000  1
  C  C363  1  0.35340000  0.03230000  0.76820000  1
  C  C364  1  0.35340000  0.73590000  0.96770000  1
  C  C365  1  0.35340000  0.23180000  0.26410000  1
  C  C366  1  0.36040000  0.08270000  0.82780000  1
  C  C367  1  0.36040000  0.74510000  0.91730000  1
  C  C368  1  0.36040000  0.17220000  0.25490000  1
  C  C369  1  0.37230000  0.09390000  0.61310000  1
  C  C370  1  0.37230000  0.51920000  0.90610000  1
  C  C371  1  0.37230000  0.38690000  0.48080000  1
  C  C372  1  0.38930000  0.04820000  0.62850000  1
  C  C373  1  0.38930000  0.58030000  0.95180000  1
  C  C374  1  0.38930000  0.37150000  0.41970000  1
  C  C375  1  0.39300000  0.12400000  0.61420000  1
  C  C376  1  0.39300000  0.49020000  0.87600000  1
  C  C377  1  0.39300000  0.38580000  0.50980000  1
  C  C378  1  0.40550000  0.04570000  0.75780000  1
  C  C379  1  0.40550000  0.71210000  0.95430000  1
  C  C380  1  0.40550000  0.24220000  0.28790000  1
  C  C381  1  0.41140000  0.07810000  0.62760000  1
  C  C382  1  0.41140000  0.54950000  0.92190000  1
  C  C383  1  0.41140000  0.37240000  0.45050000  1
  C  C384  1  0.41250000  0.09610000  0.81740000  1
  C  C385  1  0.41250000  0.72130000  0.90390000  1
  C  C386  1  0.41250000  0.18260000  0.27870000  1
  C  C387  1  0.43050000  0.02540000  0.71960000  1
  C  C388  1  0.43050000  0.69420000  0.97460000  1
  C  C389  1  0.43050000  0.28040000  0.30580000  1
  C  C390  1  0.43500000  0.07770000  0.78250000  1
  C  C391  1  0.43500000  0.70480000  0.92230000  1
  C  C392  1  0.43500000  0.21750000  0.29520000  1
  C  C393  1  0.43830000  0.03470000  0.64550000  1
  C  C394  1  0.43830000  0.61080000  0.96530000  1
  C  C395  1  0.43830000  0.35450000  0.38920000  1
  C  C396  1  0.56170000  0.38920000  0.35450000  1
  C  C397  1  0.56170000  0.96530000  0.61080000  1
  C  C398  1  0.56170000  0.64550000  0.03470000  1
  C  C399  1  0.56500000  0.29520000  0.21750000  1
  C  C400  1  0.56500000  0.92230000  0.70480000  1
  C  C401  1  0.56500000  0.78250000  0.07770000  1
  C  C402  1  0.56950000  0.30580000  0.28040000  1
  C  C403  1  0.56950000  0.97460000  0.69420000  1
  C  C404  1  0.56950000  0.71960000  0.02540000  1
  C  C405  1  0.58750000  0.27870000  0.18260000  1
  C  C406  1  0.58750000  0.90390000  0.72130000  1
  C  C407  1  0.58750000  0.81740000  0.09610000  1
  C  C408  1  0.58860000  0.45050000  0.37240000  1
  C  C409  1  0.58860000  0.92190000  0.54950000  1
  C  C410  1  0.58860000  0.62760000  0.07810000  1
  C  C411  1  0.59450000  0.28790000  0.24220000  1
  C  C412  1  0.59450000  0.95430000  0.71210000  1
  C  C413  1  0.59450000  0.75780000  0.04570000  1
  C  C414  1  0.60700000  0.50980000  0.38580000  1
  C  C415  1  0.60700000  0.87600000  0.49020000  1
  C  C416  1  0.60700000  0.61420000  0.12400000  1
  C  C417  1  0.61070000  0.41970000  0.37150000  1
  C  C418  1  0.61070000  0.95180000  0.58030000  1
  C  C419  1  0.61070000  0.62850000  0.04820000  1
  C  C420  1  0.62770000  0.48080000  0.38690000  1
  C  C421  1  0.62770000  0.90610000  0.51920000  1
  C  C422  1  0.62770000  0.61310000  0.09390000  1
  C  C423  1  0.63960000  0.25490000  0.17220000  1
  C  C424  1  0.63960000  0.91730000  0.74510000  1
  C  C425  1  0.63960000  0.82780000  0.08270000  1
  C  C426  1  0.64660000  0.26410000  0.23180000  1
  C  C427  1  0.64660000  0.96770000  0.73590000  1
  C  C428  1  0.64660000  0.76820000  0.03230000  1
  C  C429  1  0.65800000  0.54080000  0.40400000  1
  C  C430  1  0.65800000  0.86320000  0.45920000  1
  C  C431  1  0.65800000  0.59600000  0.13680000  1
  C  C432  1  0.66666667  0.23410000  0.13490000  1
  C  C433  1  0.66666667  0.90080000  0.76590000  1
  C  C434  1  0.66666667  0.86510000  0.09920000  1
  C  C435  1  0.66910000  0.24770000  0.19680000  1
  C  C436  1  0.66910000  0.94910000  0.75230000  1
  C  C437  1  0.66910000  0.80320000  0.05090000  1
  C  C438  1  0.67200000  0.41920000  0.38510000  1
  C  C439  1  0.67200000  0.96590000  0.58080000  1
  C  C440  1  0.67200000  0.61490000  0.03410000  1
  C  C441  1  0.68900000  0.48030000  0.40050000  1
  C  C442  1  0.68900000  0.92020000  0.51970000  1
  C  C443  1  0.68900000  0.59950000  0.07980000  1
  C  C444  1  0.69230000  0.13500000  0.08060000  1
  C  C445  1  0.69230000  0.94560000  0.86500000  1
  C  C446  1  0.69230000  0.91940000  0.05440000  1
  C  C447  1  0.69380000  0.09620000  0.06310000  1
  C  C448  1  0.69380000  0.96690000  0.90380000  1
  C  C449  1  0.69380000  0.93690000  0.03310000  1
  C  C450  1  0.70980000  0.53640000  0.41230000  1
  C  C451  1  0.70980000  0.87590000  0.46360000  1
  C  C452  1  0.70980000  0.58770000  0.12410000  1
  C  C453  1  0.71110000  0.44950000  0.39960000  1
  C  C454  1  0.71110000  0.95010000  0.55050000  1
  C  C455  1  0.71110000  0.60040000  0.04990000  1
  C  C456  1  0.71680000  0.22380000  0.19080000  1
  C  C457  1  0.71680000  0.96700000  0.77620000  1
  C  C458  1  0.71680000  0.80920000  0.03300000  1
  C  C459  1  0.71810000  0.21210000  0.13140000  1
  C  C460  1  0.71810000  0.91930000  0.78790000  1
  C  C461  1  0.71810000  0.86860000  0.08070000  1
  C  C462  1  0.73080000  0.62620000  0.42550000  1
  C  C463  1  0.73080000  0.57450000  0.20070000  1
  C  C464  1  0.73080000  0.79930000  0.37380000  1
  C  C465  1  0.73870000  0.64360000  0.40660000  1
  C  C466  1  0.73870000  0.59340000  0.23700000  1
  C  C467  1  0.73870000  0.76300000  0.35640000  1
  C  C468  1  0.74370000  0.50790000  0.41210000  1
  C  C469  1  0.74370000  0.90420000  0.49210000  1
  C  C470  1  0.74370000  0.58790000  0.09580000  1
  C  C471  1  0.74570000  0.20300000  0.15660000  1
  C  C472  1  0.74570000  0.95360000  0.79700000  1
  C  C473  1  0.74570000  0.84340000  0.04640000  1
  C  C474  1  0.75000000  0.03970000  0.01985000  1
  C  C475  1  0.75000000  0.98015000  0.96030000  1
  C  C476  1  0.75000000  0.01920000  0.98080000  1
  C  C477  1  0.75000000  0.07980000  0.03990000  1
  C  C478  1  0.75000000  0.96010000  0.92020000  1
  C  C479  1  0.75000000  0.15000000  0.07500000  1
  C  C480  1  0.75000000  0.92500000  0.85000000  1
  C  C481  1  0.75000000  0.58880000  0.41120000  1
  C  C482  1  0.75000000  0.62960000  0.37040000  1
  C  C483  1  0.75000000  0.64980000  0.35020000  1
  C  C484  1  0.75000000  0.62460000  0.31230000  1
  C  C485  1  0.75000000  0.68770000  0.37540000  1
  C  C486  1  0.75000000  0.64980000  0.29960000  1
  C  C487  1  0.75000000  0.70040000  0.35020000  1
  C  C488  1  0.75000000  0.62960000  0.25920000  1
  C  C489  1  0.75000000  0.74080000  0.37040000  1
  C  C490  1  0.75000000  0.68770000  0.31230000  1
  C  C491  1  0.75000000  0.58880000  0.17760000  1
  C  C492  1  0.75000000  0.82240000  0.41120000  1
  C  C493  1  0.75000000  0.92500000  0.07500000  1
  C  C494  1  0.75000000  0.96010000  0.03990000  1
  C  C495  1  0.75000000  0.98015000  0.01985000  1
  C  C496  1  0.75000000  0.01920000  0.03840000  1
  C  C497  1  0.75000000  0.96160000  0.98080000  1
  C  C498  1  0.75430000  0.84340000  0.79700000  1
  C  C499  1  0.75430000  0.20300000  0.04640000  1
  C  C500  1  0.75430000  0.95360000  0.15660000  1
  C  C501  1  0.75630000  0.58790000  0.49210000  1
  C  C502  1  0.75630000  0.50790000  0.09580000  1
  C  C503  1  0.75630000  0.90420000  0.41210000  1
  C  C504  1  0.76130000  0.59340000  0.35640000  1
  C  C505  1  0.76130000  0.76300000  0.40660000  1
  C  C506  1  0.76130000  0.64360000  0.23700000  1
  C  C507  1  0.76920000  0.57450000  0.37380000  1
  C  C508  1  0.76920000  0.79930000  0.42550000  1
  C  C509  1  0.76920000  0.62620000  0.20070000  1
  C  C510  1  0.78190000  0.86860000  0.78790000  1
  C  C511  1  0.78190000  0.21210000  0.08070000  1
  C  C512  1  0.78190000  0.91930000  0.13140000  1
  C  C513  1  0.78320000  0.80920000  0.77620000  1
  C  C514  1  0.78320000  0.22380000  0.03300000  1
  C  C515  1  0.78320000  0.96700000  0.19080000  1
  C  C516  1  0.78890000  0.60040000  0.55050000  1
  C  C517  1  0.78890000  0.44950000  0.04990000  1
  C  C518  1  0.78890000  0.95010000  0.39960000  1
  C  C519  1  0.79020000  0.58770000  0.46360000  1
  C  C520  1  0.79020000  0.53640000  0.12410000  1
  C  C521  1  0.79020000  0.87590000  0.41230000  1
  C  C522  1  0.80620000  0.93690000  0.90380000  1
  C  C523  1  0.80620000  0.09620000  0.03310000  1
  C  C524  1  0.80620000  0.96690000  0.06310000  1
  C  C525  1  0.80770000  0.91940000  0.86500000  1
  C  C526  1  0.80770000  0.13500000  0.05440000  1
  C  C527  1  0.80770000  0.94560000  0.08060000  1
  C  C528  1  0.81100000  0.59950000  0.51970000  1
  C  C529  1  0.81100000  0.48030000  0.07980000  1
  C  C530  1  0.81100000  0.92020000  0.40050000  1
  C  C531  1  0.82800000  0.61490000  0.58080000  1
  C  C532  1  0.82800000  0.41920000  0.03410000  1
  C  C533  1  0.82800000  0.96590000  0.38510000  1
  C  C534  1  0.83090000  0.80320000  0.75230000  1
  C  C535  1  0.83090000  0.24770000  0.05090000  1
  C  C536  1  0.83090000  0.94910000  0.19680000  1
  C  C537  1  0.83340000  0.86510000  0.76590000  1
  C  C538  1  0.83340000  0.23410000  0.09920000  1
  C  C539  1  0.83340000  0.90080000  0.13490000  1
  C  C540  1  0.84200000  0.59600000  0.45920000  1
  C  C541  1  0.84200000  0.54080000  0.13680000  1
  C  C542  1  0.84200000  0.86320000  0.40400000  1
  C  C543  1  0.85340000  0.76820000  0.73590000  1
  C  C544  1  0.85340000  0.26410000  0.03230000  1
  C  C545  1  0.85340000  0.96770000  0.23180000  1
  C  C546  1  0.86040000  0.82780000  0.74510000  1
  C  C547  1  0.86040000  0.25490000  0.08270000  1
  C  C548  1  0.86040000  0.91730000  0.17220000  1
  C  C549  1  0.87230000  0.61310000  0.51920000  1
  C  C550  1  0.87230000  0.48080000  0.09390000  1
  C  C551  1  0.87230000  0.90610000  0.38690000  1
  C  C552  1  0.88930000  0.62850000  0.58030000  1
  C  C553  1  0.88930000  0.41970000  0.04820000  1
  C  C554  1  0.88930000  0.95180000  0.37150000  1
  C  C555  1  0.89300000  0.61420000  0.49020000  1
  C  C556  1  0.89300000  0.50980000  0.12400000  1
  C  C557  1  0.89300000  0.87600000  0.38580000  1
  C  C558  1  0.90550000  0.75780000  0.71210000  1
  C  C559  1  0.90550000  0.28790000  0.04570000  1
  C  C560  1  0.90550000  0.95430000  0.24220000  1
  C  C561  1  0.91140000  0.62760000  0.54950000  1
  C  C562  1  0.91140000  0.45050000  0.07810000  1
  C  C563  1  0.91140000  0.92190000  0.37240000  1
  C  C564  1  0.91250000  0.81740000  0.72130000  1
  C  C565  1  0.91250000  0.27870000  0.09610000  1
  C  C566  1  0.91250000  0.90390000  0.18260000  1
  C  C567  1  0.93050000  0.71960000  0.69420000  1
  C  C568  1  0.93050000  0.30580000  0.02540000  1
  C  C569  1  0.93050000  0.97460000  0.28040000  1
  C  C570  1  0.93500000  0.78250000  0.70480000  1
  C  C571  1  0.93500000  0.29520000  0.07770000  1
  C  C572  1  0.93500000  0.92230000  0.21750000  1
  C  C573  1  0.93830000  0.64550000  0.61080000  1
  C  C574  1  0.93830000  0.38920000  0.03470000  1
  C  C575  1  0.93830000  0.96530000  0.35450000  1
  N  N576  1  0.25000000  0.09510000  0.90490000  1
  N  N577  1  0.25000000  0.14160000  0.57080000  1
  N  N578  1  0.25000000  0.42920000  0.85840000  1
  N  N579  1  0.25000000  0.42920000  0.57080000  1
  N  N580  1  0.25000000  0.09510000  0.19020000  1
  N  N581  1  0.25000000  0.80980000  0.90490000  1
  N  N582  1  0.75000000  0.19020000  0.09510000  1
  N  N583  1  0.75000000  0.90490000  0.80980000  1
  N  N584  1  0.75000000  0.57080000  0.42920000  1
  N  N585  1  0.75000000  0.57080000  0.14160000  1
  N  N586  1  0.75000000  0.85840000  0.42920000  1
  N  N587  1  0.75000000  0.90490000  0.09510000  1
  O  O588  1  0.00080000  0.34240000  0.95400000  1
  O  O589  1  0.00080000  0.04600000  0.38840000  1
  O  O590  1  0.00080000  0.61160000  0.65760000  1
  O  O591  1  0.01530000  0.27700000  0.95400000  1
  O  O592  1  0.01530000  0.04600000  0.32300000  1
  O  O593  1  0.01530000  0.67700000  0.72300000  1
  O  O594  1  0.09550000  0.36150000  0.99780000  1
  O  O595  1  0.09550000  0.00220000  0.36370000  1
  O  O596  1  0.09550000  0.63630000  0.63850000  1
  O  O597  1  0.09840000  0.70230000  0.69730000  1
  O  O598  1  0.09840000  0.30270000  0.00500000  1
  O  O599  1  0.09840000  0.99500000  0.29770000  1
  O  O600  1  0.40160000  0.30270000  0.29770000  1
  O  O601  1  0.40160000  0.99500000  0.69730000  1
  O  O602  1  0.40160000  0.70230000  0.00500000  1
  O  O603  1  0.40450000  0.00220000  0.63850000  1
  O  O604  1  0.40450000  0.63630000  0.99780000  1
  O  O605  1  0.40450000  0.36150000  0.36370000  1
  O  O606  1  0.48470000  0.04600000  0.72300000  1
  O  O607  1  0.48470000  0.67700000  0.95400000  1
  O  O608  1  0.48470000  0.27700000  0.32300000  1
  O  O609  1  0.49920000  0.04600000  0.65760000  1
  O  O610  1  0.49920000  0.61160000  0.95400000  1
  O  O611  1  0.49920000  0.34240000  0.38840000  1
  O  O612  1  0.50080000  0.38840000  0.34240000  1
  O  O613  1  0.50080000  0.95400000  0.61160000  1
  O  O614  1  0.50080000  0.65760000  0.04600000  1
  O  O615  1  0.51530000  0.32300000  0.27700000  1
  O  O616  1  0.51530000  0.95400000  0.67700000  1
  O  O617  1  0.51530000  0.72300000  0.04600000  1
  O  O618  1  0.59550000  0.36370000  0.36150000  1
  O  O619  1  0.59550000  0.99780000  0.63630000  1
  O  O620  1  0.59550000  0.63850000  0.00220000  1
  O  O621  1  0.59840000  0.00500000  0.70230000  1
  O  O622  1  0.59840000  0.69730000  0.99500000  1
  O  O623  1  0.59840000  0.29770000  0.30270000  1
  O  O624  1  0.90160000  0.29770000  0.99500000  1
  O  O625  1  0.90160000  0.00500000  0.30270000  1
  O  O626  1  0.90160000  0.69730000  0.70230000  1
  O  O627  1  0.90450000  0.63850000  0.63630000  1
  O  O628  1  0.90450000  0.36370000  0.00220000  1
  O  O629  1  0.90450000  0.99780000  0.36150000  1
  O  O630  1  0.98470000  0.72300000  0.67700000  1
  O  O631  1  0.98470000  0.32300000  0.04600000  1
  O  O632  1  0.98470000  0.95400000  0.27700000  1
  O  O633  1  0.99920000  0.65760000  0.61160000  1
  O  O634  1  0.99920000  0.38840000  0.04600000  1
  O  O635  1  0.99920000  0.95400000  0.34240000  1
