# generated using pymatgen
data_Sm2Cu5Si2H36W22C44(N10O33)2
_symmetry_space_group_name_H-M   'P 1'
_cell_length_a   11.38400000
_cell_length_b   12.18900000
_cell_length_c   23.33100000
_cell_angle_alpha   83.75000000
_cell_angle_beta   82.02200000
_cell_angle_gamma   70.69700000
_symmetry_Int_Tables_number   1
_chemical_formula_structural   Sm2Cu5Si2H36W22C44(N10O33)2
_chemical_formula_sum   'Sm2 Cu5 Si2 H36 W22 C44 N20 O66'
_cell_volume   3018.95411270
_cell_formula_units_Z   1
loop_
 _symmetry_equiv_pos_site_id
 _symmetry_equiv_pos_as_xyz
  1  'x, y, z'
loop_
 _atom_site_type_symbol
 _atom_site_label
 _atom_site_symmetry_multiplicity
 _atom_site_fract_x
 _atom_site_fract_y
 _atom_site_fract_z
 _atom_site_occupancy
  Sm  Sm0  1  0.26350000  0.73297000  0.26011000  1
  Sm  Sm1  1  0.73650000  0.26703000  0.73989000  1
  Cu  Cu2  1  0.10860000  0.24250000  0.25502000  1
  Cu  Cu3  1  0.30840000  0.86950000  0.02778000  1
  Cu  Cu4  1  0.50000000  0.50000000  0.50000000  1
  Cu  Cu5  1  0.69160000  0.13050000  0.97222000  1
  Cu  Cu6  1  0.89140000  0.75750000  0.74498000  1
  Si  Si7  1  0.12640000  0.21270000  0.76270000  1
  Si  Si8  1  0.87360000  0.78730000  0.23730000  1
  H  H9  1  0.06000000  0.86990000  0.98600000  1
  H  H10  1  0.06250000  0.74480000  0.64080000  1
  H  H11  1  0.06630000  0.74890000  0.82640000  1
  H  H12  1  0.08200000  0.33100000  0.49650000  1
  H  H13  1  0.09530000  0.80070000  0.46250000  1
  H  H14  1  0.10800000  0.24790000  0.01040000  1
  H  H15  1  0.24520000  0.37720000  0.97670000  1
  H  H16  1  0.25210000  0.55110000  0.58130000  1
  H  H17  1  0.25540000  0.47120000  0.45950000  1
  H  H18  1  0.25700000  0.60870000  0.88490000  1
  H  H19  1  0.27830000  0.25480000  0.33630000  1
  H  H20  1  0.28670000  0.23680000  0.14880000  1
  H  H21  1  0.32370000  0.70190000  0.43100000  1
  H  H22  1  0.39760000  0.64740000  0.94570000  1
  H  H23  1  0.41550000  0.76130000  0.54320000  1
  H  H24  1  0.45370000  0.14980000  0.41460000  1
  H  H25  1  0.45860000  0.12380000  0.07040000  1
  H  H26  1  0.46500000  0.35250000  0.93710000  1
  H  H27  1  0.53500000  0.64750000  0.06290000  1
  H  H28  1  0.54140000  0.87620000  0.92960000  1
  H  H29  1  0.54630000  0.85020000  0.58540000  1
  H  H30  1  0.58450000  0.23870000  0.45680000  1
  H  H31  1  0.60240000  0.35260000  0.05430000  1
  H  H32  1  0.67630000  0.29810000  0.56900000  1
  H  H33  1  0.71330000  0.76320000  0.85120000  1
  H  H34  1  0.72170000  0.74520000  0.66370000  1
  H  H35  1  0.74300000  0.39130000  0.11510000  1
  H  H36  1  0.74460000  0.52880000  0.54050000  1
  H  H37  1  0.74790000  0.44890000  0.41870000  1
  H  H38  1  0.75480000  0.62280000  0.02330000  1
  H  H39  1  0.89200000  0.75210000  0.98960000  1
  H  H40  1  0.90470000  0.19930000  0.53750000  1
  H  H41  1  0.91800000  0.66900000  0.50350000  1
  H  H42  1  0.93370000  0.25110000  0.17360000  1
  H  H43  1  0.93750000  0.25520000  0.35920000  1
  H  H44  1  0.94000000  0.13010000  0.01400000  1
  W  W45  1  0.01059000  0.34366000  0.63091000  1
  W  W46  1  0.01731000  0.98575000  0.74517000  1
  W  W47  1  0.02890000  0.37080000  0.88917000  1
  W  W48  1  0.07242000  0.88189000  0.13279000  1
  W  W49  1  0.08883000  0.50912000  0.23553000  1
  W  W50  1  0.21112000  0.46532000  0.78200000  1
  W  W51  1  0.23396000  0.07845000  0.63100000  1
  W  W52  1  0.25684000  0.07533000  0.89234000  1
  W  W53  1  0.31600000  0.31348000  0.64562000  1
  W  W54  1  0.35001000  0.93168000  0.76910000  1
  W  W55  1  0.43711000  0.16576000  0.78342000  1
  W  W56  1  0.56289000  0.83424000  0.21658000  1
  W  W57  1  0.64999000  0.06832000  0.23090000  1
  W  W58  1  0.68400000  0.68652000  0.35438000  1
  W  W59  1  0.74316000  0.92467000  0.10766000  1
  W  W60  1  0.76604000  0.92155000  0.36900000  1
  W  W61  1  0.78888000  0.53468000  0.21800000  1
  W  W62  1  0.91117000  0.49088000  0.76447000  1
  W  W63  1  0.92758000  0.11811000  0.86721000  1
  W  W64  1  0.97110000  0.62920000  0.11083000  1
  W  W65  1  0.98269000  0.01425000  0.25483000  1
  W  W66  1  0.98941000  0.65634000  0.36909000  1
  C  C67  1  0.00090000  0.25130000  0.08900000  1
  C  C68  1  0.00360000  0.26830000  0.37360000  1
  C  C69  1  0.00500000  0.24890000  0.14840000  1
  C  C70  1  0.01220000  0.70040000  0.56870000  1
  C  C71  1  0.08800000  0.31200000  0.45850000  1
  C  C72  1  0.10800000  0.24650000  0.05030000  1
  C  C73  1  0.12600000  0.81100000  0.96890000  1
  C  C74  1  0.15200000  0.74000000  0.48240000  1
  C  C75  1  0.20280000  0.28810000  0.41580000  1
  C  C76  1  0.20430000  0.26530000  0.36090000  1
  C  C77  1  0.21400000  0.23960000  0.13370000  1
  C  C78  1  0.21400000  0.23980000  0.07430000  1
  C  C79  1  0.23700000  0.66300000  0.91280000  1
  C  C80  1  0.24100000  0.60320000  0.54870000  1
  C  C81  1  0.28000000  0.68700000  0.46610000  1
  C  C82  1  0.31300000  0.68900000  0.94520000  1
  C  C83  1  0.31700000  0.32400000  0.99030000  1
  C  C84  1  0.32100000  0.40200000  0.45480000  1
  C  C85  1  0.42900000  0.22300000  0.42960000  1
  C  C86  1  0.43400000  0.18200000  0.04140000  1
  C  C87  1  0.43800000  0.30800000  0.96730000  1
  C  C88  1  0.50000000  0.27500000  0.45200000  1
  C  C89  1  0.50000000  0.72500000  0.54800000  1
  C  C90  1  0.56200000  0.69200000  0.03270000  1
  C  C91  1  0.56600000  0.81800000  0.95860000  1
  C  C92  1  0.57100000  0.77700000  0.57040000  1
  C  C93  1  0.67900000  0.59800000  0.54520000  1
  C  C94  1  0.68300000  0.67600000  0.00970000  1
  C  C95  1  0.68700000  0.31100000  0.05480000  1
  C  C96  1  0.72000000  0.31300000  0.53390000  1
  C  C97  1  0.75900000  0.39680000  0.45130000  1
  C  C98  1  0.76300000  0.33700000  0.08720000  1
  C  C99  1  0.78600000  0.76020000  0.92570000  1
  C  C100  1  0.78600000  0.76040000  0.86630000  1
  C  C101  1  0.79570000  0.73470000  0.63910000  1
  C  C102  1  0.79720000  0.71190000  0.58420000  1
  C  C103  1  0.84800000  0.26000000  0.51760000  1
  C  C104  1  0.87400000  0.18900000  0.03110000  1
  C  C105  1  0.89200000  0.75350000  0.94970000  1
  C  C106  1  0.91200000  0.68800000  0.54150000  1
  C  C107  1  0.98780000  0.29960000  0.43130000  1
  C  C108  1  0.99500000  0.75110000  0.85160000  1
  C  C109  1  0.99640000  0.73170000  0.62640000  1
  C  C110  1  0.99910000  0.74870000  0.91100000  1
  N  N111  1  0.10670000  0.25700000  0.34000000  1
  N  N112  1  0.10960000  0.24340000  0.16990000  1
  N  N113  1  0.11580000  0.74080000  0.93290000  1
  N  N114  1  0.12850000  0.68290000  0.53480000  1
  N  N115  1  0.24860000  0.78560000  0.97770000  1
  N  N116  1  0.31360000  0.30220000  0.43470000  1
  N  N117  1  0.32210000  0.24690000  0.03670000  1
  N  N118  1  0.32690000  0.61370000  0.50840000  1
  N  N119  1  0.43660000  0.38340000  0.46620000  1
  N  N120  1  0.48860000  0.78830000  0.00250000  1
  N  N121  1  0.51140000  0.21170000  0.99750000  1
  N  N122  1  0.56340000  0.61660000  0.53380000  1
  N  N123  1  0.67310000  0.38630000  0.49160000  1
  N  N124  1  0.67790000  0.75310000  0.96330000  1
  N  N125  1  0.68640000  0.69780000  0.56530000  1
  N  N126  1  0.75140000  0.21440000  0.02230000  1
  N  N127  1  0.87150000  0.31710000  0.46520000  1
  N  N128  1  0.88420000  0.25920000  0.06710000  1
  N  N129  1  0.89040000  0.75660000  0.83010000  1
  N  N130  1  0.89330000  0.74300000  0.66000000  1
  O  O131  1  0.01230000  0.84840000  0.73390000  1
  O  O132  1  0.02200000  0.15100000  0.77880000  1
  O  O133  1  0.02280000  0.53900000  0.31330000  1
  O  O134  1  0.03260000  0.02140000  0.17350000  1
  O  O135  1  0.05380000  0.74110000  0.11410000  1
  O  O136  1  0.05820000  0.56000000  0.76310000  1
  O  O137  1  0.08570000  0.33560000  0.78850000  1
  O  O138  1  0.09270000  0.51050000  0.15140000  1
  O  O139  1  0.10230000  0.71500000  0.33220000  1
  O  O140  1  0.10500000  0.20300000  0.59500000  1
  O  O141  1  0.10540000  0.05590000  0.89030000  1
  O  O142  1  0.10550000  0.02170000  0.67420000  1
  O  O143  1  0.13620000  0.92840000  0.26890000  1
  O  O144  1  0.13980000  0.92780000  0.06650000  1
  O  O145  1  0.14380000  0.45680000  0.86240000  1
  O  O146  1  0.16310000  0.22970000  0.69180000  1
  O  O147  1  0.17070000  0.23950000  0.90270000  1
  O  O148  1  0.17730000  0.38110000  0.61050000  1
  O  O149  1  0.18310000  0.59540000  0.23180000  1
  O  O150  1  0.18750000  0.92970000  0.77140000  1
  O  O151  1  0.19270000  0.36990000  0.24250000  1
  O  O152  1  0.20900000  0.81230000  0.16470000  1
  O  O153  1  0.24830000  0.13500000  0.79200000  1
  O  O154  1  0.25870000  0.41890000  0.70430000  1
  O  O155  1  0.29450000  0.02030000  0.96250000  1
  O  O156  1  0.32820000  0.00050000  0.69070000  1
  O  O157  1  0.33740000  0.32150000  0.79980000  1
  O  O158  1  0.33900000  0.93490000  0.85210000  1
  O  O159  1  0.34720000  0.16600000  0.60610000  1
  O  O160  1  0.40660000  0.83770000  0.21820000  1
  O  O161  1  0.41120000  0.11570000  0.86400000  1
  O  O162  1  0.41160000  0.21310000  0.70540000  1
  O  O163  1  0.47670000  0.00990000  0.76610000  1
  O  O164  1  0.52330000  0.99010000  0.23390000  1
  O  O165  1  0.58840000  0.78690000  0.29460000  1
  O  O166  1  0.58880000  0.88430000  0.13600000  1
  O  O167  1  0.59340000  0.16230000  0.78180000  1
  O  O168  1  0.65280000  0.83400000  0.39390000  1
  O  O169  1  0.66100000  0.06510000  0.14790000  1
  O  O170  1  0.66260000  0.67850000  0.20020000  1
  O  O171  1  0.67180000  0.99950000  0.30930000  1
  O  O172  1  0.70550000  0.97970000  0.03750000  1
  O  O173  1  0.74130000  0.58110000  0.29570000  1
  O  O174  1  0.75170000  0.86500000  0.20800000  1
  O  O175  1  0.79100000  0.18770000  0.83530000  1
  O  O176  1  0.80730000  0.63010000  0.75750000  1
  O  O177  1  0.81250000  0.07030000  0.22860000  1
  O  O178  1  0.81690000  0.40460000  0.76820000  1
  O  O179  1  0.82270000  0.61890000  0.38950000  1
  O  O180  1  0.82930000  0.76050000  0.09730000  1
  O  O181  1  0.83690000  0.77030000  0.30820000  1
  O  O182  1  0.85620000  0.54320000  0.13760000  1
  O  O183  1  0.86020000  0.07220000  0.93350000  1
  O  O184  1  0.86380000  0.07160000  0.73110000  1
  O  O185  1  0.89450000  0.97830000  0.32580000  1
  O  O186  1  0.89460000  0.94410000  0.10970000  1
  O  O187  1  0.89500000  0.79700000  0.40500000  1
  O  O188  1  0.89770000  0.28500000  0.66780000  1
  O  O189  1  0.90730000  0.48950000  0.84860000  1
  O  O190  1  0.91430000  0.66440000  0.21150000  1
  O  O191  1  0.94180000  0.44000000  0.23690000  1
  O  O192  1  0.94620000  0.25890000  0.88590000  1
  O  O193  1  0.96740000  0.97860000  0.82650000  1
  O  O194  1  0.97720000  0.46100000  0.68670000  1
  O  O195  1  0.97800000  0.84900000  0.22120000  1
  O  O196  1  0.98770000  0.15160000  0.26610000  1
