# generated using pymatgen
data_Zn2P2H42C34N2O9
_symmetry_space_group_name_H-M   'P 1'
_cell_length_a   27.58100000
_cell_length_b   27.58100000
_cell_length_c   29.20141326
_cell_angle_alpha   118.18074343
_cell_angle_beta   118.18074343
_cell_angle_gamma   90.00000000
_symmetry_Int_Tables_number   1
_chemical_formula_structural   Zn2P2H42C34N2O9
_chemical_formula_sum   'Zn16 P16 H336 C272 N16 O72'
_cell_volume   16533.30506677
_cell_formula_units_Z   8
loop_
 _symmetry_equiv_pos_site_id
 _symmetry_equiv_pos_as_xyz
  1  'x, y, z'
loop_
 _atom_site_type_symbol
 _atom_site_label
 _atom_site_symmetry_multiplicity
 _atom_site_fract_x
 _atom_site_fract_y
 _atom_site_fract_z
 _atom_site_occupancy
  C  C0  1  0.15688000  0.76495000  0.30130000  1
  C  C1  1  0.10558000  0.98505000  0.19870000  1
  C  C2  1  0.21483000  0.93983000  0.41686000  1
  C  C3  1  0.04797000  0.81017000  0.08314000  1
  C  C4  1  0.19012000  0.78017000  0.36094000  1
  C  C5  1  0.07918000  0.96983000  0.13906000  1
  C  C6  1  0.27137000  0.50807000  0.52074000  1
  C  C7  1  0.00063000  0.24193000  0.97926000  1
  C  C8  1  0.04100000  0.24820000  0.03340000  1
  C  C9  1  0.25760000  0.50180000  0.46660000  1
  C  C10  1  0.08188000  0.15048000  0.10276000  1
  C  C11  1  0.22912000  0.59952000  0.39724000  1
  C  C12  1  0.02050000  0.71220000  0.97760000  1
  C  C13  1  0.29290000  0.03780000  0.52240000  1
  C  C14  1  0.98720000  0.01790000  0.90840000  1
  C  C15  1  0.32880000  0.73210000  0.59160000  1
  C  C16  1  0.14842000  0.23922000  0.22204000  1
  C  C17  1  0.17638000  0.51078000  0.27796000  1
  C  C18  1  0.35130000  0.52920000  0.62460000  1
  C  C19  1  0.97670000  0.22080000  0.87540000  1
  C  C20  1  0.18730000  0.28800000  0.28900000  1
  C  C21  1  0.14830000  0.46200000  0.21100000  1
  C  C22  1  0.00429000  0.20899000  0.92278000  1
  C  C23  1  0.33151000  0.54101000  0.57722000  1
  C  C24  1  0.25130000  0.77690000  0.38540000  1
  C  C25  1  0.11590000  0.97310000  0.11460000  1
  C  C26  1  0.20280000  0.34090000  0.28800000  1
  C  C27  1  0.16480000  0.40910000  0.21200000  1
  C  C28  1  0.07666000  0.73876000  0.03012000  1
  C  C29  1  0.29654000  0.01124000  0.46988000  1
  C  C30  1  0.26790000  0.73720000  0.40840000  1
  C  C31  1  0.10950000  0.01280000  0.09160000  1
  C  C32  1  0.40590000  0.55840000  0.67500000  1
  C  C33  1  0.98090000  0.19160000  0.82500000  1
  C  C34  1  0.29530000  0.82980000  0.44820000  1
  C  C35  1  0.09710000  0.92020000  0.05180000  1
  C  C36  1  0.13716000  0.17616000  0.12612000  1
  C  C37  1  0.26104000  0.57384000  0.37388000  1
  C  C38  1  0.03272000  0.16912000  0.91564000  1
  C  C39  1  0.36708000  0.58088000  0.58436000  1
  C  C40  1  0.17038000  0.22048000  0.18576000  1
  C  C41  1  0.23462000  0.52952000  0.31424000  1
  C  C42  1  0.23870000  0.26650000  0.31920000  1
  C  C43  1  0.16950000  0.48350000  0.18080000  1
  C  C44  1  0.02690000  0.00130000  0.88540000  1
  C  C45  1  0.39150000  0.74870000  0.61460000  1
  C  C46  1  0.40048000  0.83188000  0.60276000  1
  C  C47  1  0.04772000  0.91812000  0.89724000  1
  C  C48  1  0.03017000  0.94012000  0.86094000  1
  C  C49  1  0.41923000  0.80988000  0.63906000  1
  C  C50  1  0.03350000  0.13960000  0.86240000  1
  C  C51  1  0.42110000  0.61040000  0.63760000  1
  C  C52  1  0.07980000  0.04530000  0.94820000  1
  C  C53  1  0.38160000  0.70470000  0.55180000  1
  C  C54  1  0.51650000  0.98870000  0.81920000  1
  C  C55  1  0.94730000  0.76130000  0.68080000  1
  C  C56  1  0.42616000  0.88716000  0.62612000  1
  C  C57  1  0.05004000  0.86284000  0.87388000  1
  C  C58  1  0.01495000  0.90688000  0.80130000  1
  C  C59  1  0.46365000  0.84312000  0.69870000  1
  C  C60  1  0.67560000  0.30190000  0.10400000  1
  C  C61  1  0.82160000  0.44810000  0.39600000  1
  C  C62  1  0.47048000  0.92038000  0.68576000  1
  C  C63  1  0.03472000  0.82962000  0.81424000  1
  C  C64  1  0.48922000  0.89842000  0.72204000  1
  C  C65  1  0.01718000  0.85158000  0.77796000  1
  C  C66  1  0.53800000  0.93730000  0.78900000  1
  C  C67  1  0.99900000  0.81270000  0.71100000  1
  C  C68  1  0.39310000  0.44170000  0.49820000  1
  C  C69  1  0.14490000  0.30830000  0.00180000  1
  C  C70  1  0.41380000  0.94170000  0.51540000  1
  C  C71  1  0.14840000  0.80830000  0.98460000  1
  C  C72  1  0.75580000  0.30380000  0.19840000  1
  C  C73  1  0.80740000  0.44620000  0.30160000  1
  C  C74  1  0.39820000  0.47210000  0.47340000  1
  C  C75  1  0.17480000  0.27790000  0.02660000  1
  C  C76  1  0.44050000  0.44850000  0.55040000  1
  C  C77  1  0.14010000  0.30150000  0.94960000  1
  C  C78  1  0.73560000  0.29480000  0.13500000  1
  C  C79  1  0.85060000  0.45520000  0.36500000  1
  C  C80  1  0.69850000  0.19050000  0.05040000  1
  C  C81  1  0.89810000  0.55950000  0.44960000  1
  C  C82  1  0.19170000  0.16380000  0.01540000  1
  C  C83  1  0.42630000  0.58620000  0.48460000  1
  C  C84  1  0.69170000  0.14310000  0.99820000  1
  C  C85  1  0.94350000  0.60690000  0.50180000  1
  C  C86  1  0.45830000  0.98420000  0.52640000  1
  C  C87  1  0.18190000  0.76580000  0.97360000  1
  C  C88  1  0.59090000  0.95280000  0.78800000  1
  C  C89  1  0.73590000  0.24300000  0.07800000  1
  C  C90  1  0.90790000  0.50700000  0.42200000  1
  C  C91  1  0.05290000  0.79720000  0.71200000  1
  C  C92  1  0.19979000  0.24069000  0.99918000  1
  C  C93  1  0.45061000  0.50931000  0.50082000  1
  C  C94  1  0.49910000  0.01580000  0.59660000  1
  C  C95  1  0.15250000  0.73420000  0.90340000  1
  C  C96  1  0.49300000  0.48590000  0.57800000  1
  C  C97  1  0.16500000  0.26410000  0.92200000  1
  C  C98  1  0.55380000  0.50580000  0.69840000  1
  C  C99  1  0.10540000  0.24420000  0.80160000  1
  C  C100  1  0.38960000  0.78350000  0.36240000  1
  C  C101  1  0.27720000  0.96650000  0.13760000  1
  C  C102  1  0.41912000  0.78272000  0.41564000  1
  C  C103  1  0.25348000  0.96728000  0.08436000  1
  C  C104  1  0.77920000  0.10130000  0.12460000  1
  C  C105  1  0.90460000  0.64870000  0.37540000  1
  C  C106  1  0.26580000  0.24910000  0.09660000  1
  C  C107  1  0.41920000  0.50090000  0.40340000  1
  C  C108  1  0.80840000  0.15590000  0.17500000  1
  C  C109  1  0.88340000  0.59410000  0.32500000  1
  C  C110  1  0.23420000  0.20830000  0.02640000  1
  C  C111  1  0.45780000  0.54170000  0.47360000  1
  C  C112  1  0.49794000  0.51624000  0.55308000  1
  C  C113  1  0.19486000  0.23376000  0.94692000  1
  C  C114  1  0.96220000  0.77050000  0.47760000  1
  C  C115  1  0.73460000  0.97950000  0.02240000  1
  C  C116  1  0.98876000  0.82666000  0.53012000  1
  C  C117  1  0.70864000  0.92334000  0.96988000  1
  C  C118  1  0.54480000  0.48560000  0.63500000  1
  C  C119  1  0.15980000  0.26440000  0.86500000  1
  C  C120  1  0.18983000  0.96483000  0.91686000  1
  C  C121  1  0.52297000  0.78517000  0.58314000  1
  C  C122  1  0.49820000  0.79100000  0.53340000  1
  C  C123  1  0.21480000  0.95900000  0.96660000  1
  C  C124  1  0.72210000  0.14820000  0.97340000  1
  C  C125  1  0.99870000  0.60180000  0.52660000  1
  C  C126  1  0.76624000  0.24794000  0.05308000  1
  C  C127  1  0.96316000  0.50206000  0.44692000  1
  C  C128  1  0.49069000  0.94979000  0.49918000  1
  C  C129  1  0.24151000  0.80021000  0.00082000  1
  C  C130  1  0.45899000  0.75429000  0.42278000  1
  C  C131  1  0.28621000  0.99571000  0.07722000  1
  C  C132  1  0.75807000  0.02137000  0.02074000  1
  C  C133  1  0.98733000  0.72863000  0.47926000  1
  C  C134  1  0.55190000  0.42560000  0.60400000  1
  C  C135  1  0.19790000  0.32440000  0.89600000  1
  C  C136  1  0.69810000  0.57160000  0.89600000  1
  C  C137  1  0.05210000  0.17840000  0.60400000  1
  C  C138  1  0.49193000  0.75063000  0.47926000  1
  C  C139  1  0.26267000  0.99937000  0.02074000  1
  C  C140  1  0.79101000  0.08151000  0.07722000  1
  C  C141  1  0.96379000  0.66849000  0.42278000  1
  C  C142  1  0.75931000  0.20061000  0.00082000  1
  C  C143  1  0.00849000  0.54939000  0.49918000  1
  C  C144  1  0.48376000  0.94486000  0.44692000  1
  C  C145  1  0.28684000  0.80514000  0.05308000  1
  C  C146  1  0.52790000  0.92480000  0.52660000  1
  C  C147  1  0.25130000  0.82520000  0.97340000  1
  C  C148  1  0.75180000  0.00760000  0.96660000  1
  C  C149  1  0.03520000  0.74240000  0.53340000  1
  C  C150  1  0.06017000  0.79797000  0.58314000  1
  C  C151  1  0.72703000  0.95203000  0.91686000  1
  C  C152  1  0.70520000  0.60060000  0.86500000  1
  C  C153  1  0.09020000  0.14940000  0.63500000  1
  C  C154  1  0.26124000  0.04654000  0.96988000  1
  C  C155  1  0.54136000  0.70346000  0.53012000  1
  C  C156  1  0.28780000  0.04290000  0.02240000  1
  C  C157  1  0.51540000  0.70710000  0.47760000  1
  C  C158  1  0.75206000  0.71316000  0.94692000  1
  C  C159  1  0.05514000  0.03684000  0.55308000  1
  C  C160  1  0.01580000  0.93190000  0.47360000  1
  C  C161  1  0.79220000  0.81810000  0.02640000  1
  C  C162  1  0.44160000  0.73090000  0.32500000  1
  C  C163  1  0.36660000  0.01910000  0.17500000  1
  C  C164  1  0.98420000  0.90250000  0.40340000  1
  C  C165  1  0.83080000  0.84750000  0.09660000  1
  C  C166  1  0.47080000  0.72670000  0.37540000  1
  C  C167  1  0.34540000  0.02330000  0.12460000  1
  C  C168  1  0.83088000  0.11708000  0.08436000  1
  C  C169  1  0.99652000  0.63292000  0.41564000  1
  C  C170  1  0.86040000  0.17110000  0.13760000  1
  C  C171  1  0.97280000  0.57890000  0.36240000  1
  C  C172  1  0.69620000  0.55740000  0.80160000  1
  C  C173  1  0.14460000  0.19260000  0.69840000  1
  C  C174  1  0.75700000  0.65790000  0.92200000  1
  C  C175  1  0.08500000  0.09210000  0.57800000  1
  C  C176  1  0.75090000  0.16920000  0.90340000  1
  C  C177  1  0.09750000  0.58080000  0.59660000  1
  C  C178  1  0.05021000  0.99151000  0.50082000  1
  C  C179  1  0.79939000  0.75849000  0.99918000  1
  C  C180  1  0.65910000  0.91480000  0.71200000  1
  C  C181  1  0.51410000  0.91500000  0.42200000  1
  C  C182  1  0.34210000  0.83500000  0.07800000  1
  C  C183  1  0.19710000  0.83520000  0.78800000  1
  C  C184  1  0.79170000  0.20780000  0.97360000  1
  C  C185  1  0.06810000  0.54220000  0.52640000  1
  C  C186  1  0.55830000  0.89490000  0.50180000  1
  C  C187  1  0.30650000  0.85510000  0.99820000  1
  C  C188  1  0.05830000  0.89840000  0.48460000  1
  C  C189  1  0.82370000  0.85160000  0.01540000  1
  C  C190  1  0.55150000  0.89010000  0.44960000  1
  C  C191  1  0.35190000  0.85990000  0.05040000  1
  C  C192  1  0.51440000  0.90980000  0.36500000  1
  C  C193  1  0.39940000  0.84020000  0.13500000  1
  C  C194  1  0.80950000  0.64810000  0.94960000  1
  C  C195  1  0.10990000  0.10190000  0.55040000  1
  C  C196  1  0.85180000  0.74870000  0.02660000  1
  C  C197  1  0.07520000  0.00130000  0.47340000  1
  C  C198  1  0.49420000  0.85540000  0.30160000  1
  C  C199  1  0.44260000  0.89460000  0.19840000  1
  C  C200  1  0.83620000  0.17630000  0.98460000  1
  C  C201  1  0.10160000  0.57370000  0.51540000  1
  C  C202  1  0.85690000  0.69350000  0.00180000  1
  C  C203  1  0.10510000  0.05650000  0.49820000  1
  C  C204  1  0.71200000  0.89830000  0.71100000  1
  C  C205  1  0.25100000  0.85170000  0.78900000  1
  C  C206  1  0.76078000  0.92638000  0.77796000  1
  C  C207  1  0.23282000  0.82362000  0.72204000  1
  C  C208  1  0.77952000  0.98462000  0.81424000  1
  C  C209  1  0.21528000  0.76538000  0.68576000  1
  C  C210  1  0.57440000  0.94790000  0.39600000  1
  C  C211  1  0.42840000  0.80210000  0.10400000  1
  C  C212  1  0.23505000  0.85558000  0.69870000  1
  C  C213  1  0.78635000  0.89442000  0.80130000  1
  C  C214  1  0.82384000  0.01104000  0.87388000  1
  C  C215  1  0.19996000  0.73896000  0.62612000  1
  C  C216  1  0.73350000  0.91950000  0.68080000  1
  C  C217  1  0.30270000  0.83050000  0.81920000  1
  C  C218  1  0.17020000  0.84710000  0.55180000  1
  C  C219  1  0.86840000  0.90290000  0.94820000  1
  C  C220  1  0.21650000  0.02720000  0.63760000  1
  C  C221  1  0.82890000  0.72280000  0.86240000  1
  C  C222  1  0.21983000  0.82918000  0.63906000  1
  C  C223  1  0.83077000  0.92082000  0.86094000  1
  C  C224  1  0.84952000  0.97912000  0.89724000  1
  C  C225  1  0.20228000  0.77088000  0.60276000  1
  C  C226  1  0.22310000  0.86590000  0.61460000  1
  C  C227  1  0.85850000  0.88410000  0.88540000  1
  C  C228  1  0.01130000  0.69730000  0.18080000  1
  C  C229  1  0.08050000  0.05270000  0.31920000  1
  C  C230  1  0.07962000  0.78472000  0.31424000  1
  C  C231  1  0.01538000  0.96528000  0.18576000  1
  C  C232  1  0.21728000  0.00348000  0.58436000  1
  C  C233  1  0.88292000  0.74652000  0.91564000  1
  C  C234  1  0.11284000  0.80004000  0.37388000  1
  C  C235  1  0.98896000  0.94996000  0.12612000  1
  C  C236  1  0.95470000  0.13160000  0.05180000  1
  C  C237  1  0.15290000  0.61840000  0.44820000  1
  C  C238  1  0.84410000  0.63340000  0.82500000  1
  C  C239  1  0.26910000  0.11660000  0.67500000  1
  C  C240  1  0.98210000  0.07880000  0.09160000  1
  C  C241  1  0.14050000  0.67120000  0.40840000  1
  C  C242  1  0.17334000  0.45864000  0.46988000  1
  C  C243  1  0.95346000  0.29136000  0.03012000  1
  C  C244  1  0.04720000  0.80290000  0.21200000  1
  C  C245  1  0.08520000  0.94710000  0.28800000  1
  C  C246  1  0.99870000  0.14150000  0.11460000  1
  C  C247  1  0.13410000  0.60850000  0.38540000  1
  C  C248  1  0.24571000  0.03621000  0.57722000  1
  C  C249  1  0.91849000  0.71379000  0.92278000  1
  C  C250  1  0.06270000  0.74900000  0.21100000  1
  C  C251  1  0.10170000  0.00100000  0.28900000  1
  C  C252  1  0.89870000  0.65460000  0.87540000  1
  C  C253  1  0.27330000  0.09540000  0.62460000  1
  C  C254  1  0.10158000  0.76718000  0.27796000  1
  C  C255  1  0.07362000  0.98282000  0.22204000  1
  C  C256  1  0.26280000  0.85950000  0.59160000  1
  C  C257  1  0.92120000  0.89050000  0.90840000  1
  C  C258  1  0.22950000  0.48460000  0.52240000  1
  C  C259  1  0.95710000  0.26540000  0.97760000  1
  C  C260  1  0.16812000  0.79772000  0.39724000  1
  C  C261  1  0.02088000  0.95228000  0.10276000  1
  C  C262  1  0.20900000  0.96480000  0.46660000  1
  C  C263  1  0.99240000  0.78520000  0.03340000  1
  C  C264  1  0.97863000  0.73733000  0.97926000  1
  C  C265  1  0.24937000  0.01267000  0.52074000  1
  C  C266  1  0.05988000  0.16923000  0.13906000  1
  C  C267  1  0.17082000  0.58077000  0.36094000  1
  C  C268  1  0.03517000  0.27297000  0.08314000  1
  C  C269  1  0.20203000  0.47703000  0.41686000  1
  C  C270  1  0.09312000  0.21365000  0.19870000  1
  C  C271  1  0.14442000  0.53635000  0.30130000  1
  H  H272  1  0.06270000  0.27420000  0.11940000  1
  H  H273  1  0.19330000  0.47580000  0.38060000  1
  H  H274  1  0.94780000  0.99370000  0.87500000  1
  H  H275  1  0.32280000  0.75630000  0.62500000  1
  H  H276  1  0.16570000  0.29590000  0.31000000  1
  H  H277  1  0.10570000  0.45410000  0.19000000  1
  H  H278  1  0.32700000  0.50160000  0.62120000  1
  H  H279  1  0.95580000  0.24840000  0.87880000  1
  H  H280  1  0.99900000  0.01250000  0.94260000  1
  H  H281  1  0.98890000  0.05820000  0.92240000  1
  H  H282  1  0.31650000  0.69180000  0.57760000  1
  H  H283  1  0.30640000  0.73750000  0.55740000  1
  H  H284  1  0.05870000  0.11960000  0.06120000  1
  H  H285  1  0.24750000  0.63040000  0.43880000  1
  H  H286  1  0.16770000  0.35000000  0.26720000  1
  H  H287  1  0.15050000  0.40000000  0.23280000  1
  H  H288  1  0.26250000  0.74900000  0.44260000  1
  H  H289  1  0.06990000  0.00100000  0.05740000  1
  H  H290  1  0.01220000  0.67720000  0.94160000  1
  H  H291  1  0.32060000  0.07280000  0.55840000  1
  H  H292  1  0.28610000  0.83470000  0.47840000  1
  H  H293  1  0.05770000  0.91530000  0.02160000  1
  H  H294  1  0.07370000  0.23510000  0.03680000  1
  H  H295  1  0.28690000  0.51490000  0.46320000  1
  H  H296  1  0.24370000  0.69780000  0.37500000  1
  H  H297  1  0.11870000  0.05220000  0.12500000  1
  H  H298  1  0.22800000  0.37370000  0.33040000  1
  H  H299  1  0.14760000  0.37630000  0.16960000  1
  H  H300  1  0.22380000  0.23080000  0.31400000  1
  H  H301  1  0.15980000  0.51920000  0.18600000  1
  H  H302  1  0.42030000  0.54900000  0.70540000  1
  H  H303  1  0.96490000  0.20100000  0.79460000  1
  H  H304  1  0.29410000  0.86370000  0.44520000  1
  H  H305  1  0.09890000  0.88630000  0.05480000  1
  H  H306  1  0.48080000  0.97380000  0.81400000  1
  H  H307  1  0.91680000  0.77620000  0.68600000  1
  H  H308  1  0.05230000  0.16140000  0.94720000  1
  H  H309  1  0.35510000  0.58860000  0.55280000  1
  H  H310  1  0.26390000  0.29580000  0.36300000  1
  H  H311  1  0.15090000  0.45420000  0.13700000  1
  H  H312  1  0.26200000  0.76910000  0.35480000  1
  H  H313  1  0.15720000  0.98090000  0.14520000  1
  H  H314  1  0.36960000  0.80870000  0.56120000  1
  H  H315  1  0.05840000  0.94130000  0.93880000  1
  H  H316  1  0.22280000  0.33290000  0.26620000  1
  H  H317  1  0.20660000  0.41710000  0.23380000  1
  H  H318  1  0.01910000  0.01200000  0.85480000  1
  H  H319  1  0.41430000  0.73800000  0.64520000  1
  H  H320  1  0.10620000  0.72180000  0.02840000  1
  H  H321  1  0.32780000  0.02820000  0.47160000  1
  H  H322  1  0.07460000  0.08380000  0.96100000  1
  H  H323  1  0.36360000  0.66620000  0.53900000  1
  H  H324  1  0.08470000  0.03610000  0.97840000  1
  H  H325  1  0.35630000  0.71390000  0.52160000  1
  H  H326  1  0.30820000  0.73890000  0.42240000  1
  H  H327  1  0.13580000  0.01110000  0.07760000  1
  H  H328  1  0.15250000  0.16300000  0.10080000  1
  H  H329  1  0.30170000  0.58700000  0.39920000  1
  H  H330  1  0.33380000  0.82460000  0.46100000  1
  H  H331  1  0.64660000  0.26750000  0.08660000  1
  H  H332  1  0.81000000  0.48250000  0.41340000  1
  H  H333  1  0.12280000  0.92540000  0.03900000  1
  H  H334  1  0.78760000  0.41450000  0.36540000  1
  H  H335  1  0.67220000  0.33550000  0.13460000  1
  H  H336  1  0.20890000  0.23830000  0.20200000  1
  H  H337  1  0.25690000  0.51170000  0.29800000  1
  H  H338  1  0.50920000  0.01030000  0.79900000  1
  H  H339  1  0.96020000  0.73970000  0.70100000  1
  H  H340  1  0.26030000  0.25920000  0.29900000  1
  H  H341  1  0.21130000  0.49080000  0.20100000  1
  H  H342  1  0.41300000  0.90250000  0.60080000  1
  H  H343  1  0.06220000  0.84750000  0.89920000  1
  H  H344  1  0.54580000  0.01390000  0.86300000  1
  H  H345  1  0.93280000  0.73610000  0.63700000  1
  H  H346  1  0.35720000  0.41610000  0.47940000  1
  H  H347  1  0.12780000  0.33390000  0.02060000  1
  H  H348  1  0.05310000  0.11090000  0.85720000  1
  H  H349  1  0.44590000  0.63910000  0.64280000  1
  H  H350  1  0.39080000  0.96180000  0.53120000  1
  H  H351  1  0.10960000  0.78820000  0.96880000  1
  H  H352  1  0.84870000  0.44270000  0.42900000  1
  H  H353  1  0.66970000  0.30730000  0.07100000  1
  H  H354  1  0.73160000  0.27300000  0.19280000  1
  H  H355  1  0.78880000  0.47700000  0.30720000  1
  H  H356  1  0.48830000  0.95890000  0.70200000  1
  H  H357  1  0.03630000  0.79110000  0.79800000  1
  H  H358  1  0.75260000  0.34100000  0.22440000  1
  H  H359  1  0.77820000  0.40900000  0.27560000  1
  H  H360  1  0.54590000  0.91570000  0.81000000  1
  H  H361  1  0.98590000  0.83430000  0.69000000  1
  H  H362  1  0.11370000  0.04410000  0.94520000  1
  H  H363  1  0.41850000  0.70590000  0.55480000  1
  H  H364  1  0.67770000  0.18700000  0.06740000  1
  H  H365  1  0.86030000  0.56300000  0.43260000  1
  H  H366  1  0.36570000  0.46740000  0.43760000  1
  H  H367  1  0.17810000  0.28260000  0.06240000  1
  H  H368  1  0.38880000  0.91340000  0.47120000  1
  H  H369  1  0.16760000  0.83660000  0.02880000  1
  H  H370  1  0.43700000  0.42770000  0.56740000  1
  H  H371  1  0.11960000  0.32230000  0.93260000  1
  H  H372  1  0.17210000  0.18280000  0.03660000  1
  H  H373  1  0.38550000  0.56720000  0.46340000  1
  H  H374  1  0.43280000  0.92210000  0.53660000  1
  H  H375  1  0.14620000  0.82790000  0.96340000  1
  H  H376  1  0.47780000  0.03240000  0.61640000  1
  H  H377  1  0.11140000  0.71760000  0.88360000  1
  H  H378  1  0.66610000  0.10720000  0.97940000  1
  H  H379  1  0.93670000  0.64280000  0.52060000  1
  H  H380  1  0.52300000  0.48160000  0.69280000  1
  H  H381  1  0.08020000  0.26840000  0.80720000  1
  H  H382  1  0.16340000  0.13880000  0.97120000  1
  H  H383  1  0.44220000  0.61120000  0.52880000  1
  H  H384  1  0.36090000  0.80310000  0.35720000  1
  H  H385  1  0.25370000  0.94690000  0.14280000  1
  H  H386  1  0.23860000  0.26540000  0.10760000  1
  H  H387  1  0.38100000  0.48460000  0.39240000  1
  H  H388  1  0.79580000  0.30320000  0.21800000  1
  H  H389  1  0.82780000  0.44680000  0.28200000  1
  H  H390  1  0.18120000  0.74000000  0.98860000  1
  H  H391  1  0.44260000  0.01000000  0.51140000  1
  H  H392  1  0.41140000  0.80230000  0.44720000  1
  H  H393  1  0.21420000  0.94770000  0.05280000  1
  H  H394  1  0.86540000  0.42090000  0.35420000  1
  H  H395  1  0.76120000  0.32910000  0.14580000  1
  H  H396  1  0.75160000  0.07700000  0.12120000  1
  H  H397  1  0.88040000  0.67300000  0.37880000  1
  H  H398  1  0.55320000  0.54580000  0.71800000  1
  H  H399  1  0.08520000  0.20420000  0.78200000  1
  H  H400  1  0.21180000  0.14080000  0.03120000  1
  H  H401  1  0.43060000  0.60920000  0.46880000  1
  H  H402  1  0.79900000  0.17030000  0.20540000  1
  H  H403  1  0.84360000  0.57970000  0.29460000  1
  H  H404  1  0.58290000  0.97280000  0.76620000  1
  H  H405  1  0.06670000  0.77720000  0.73380000  1
  H  H406  1  0.92720000  0.76220000  0.44160000  1
  H  H407  1  0.73560000  0.98780000  0.05840000  1
  H  H408  1  0.97180000  0.85620000  0.52840000  1
  H  H409  1  0.69340000  0.89380000  0.97160000  1
  H  H410  1  0.62370000  0.97800000  0.83040000  1
  H  H411  1  0.04330000  0.77200000  0.66960000  1
  H  H412  1  0.51540000  0.98860000  0.60760000  1
  H  H413  1  0.15780000  0.76140000  0.89240000  1
  H  H414  1  0.52420000  0.81270000  0.61940000  1
  H  H415  1  0.15480000  0.93730000  0.88060000  1
  H  H416  1  0.60000000  0.91770000  0.76720000  1
  H  H417  1  0.08280000  0.83230000  0.73280000  1
  H  H418  1  0.48510000  0.82370000  0.53680000  1
  H  H419  1  0.19830000  0.92630000  0.96320000  1
  H  H420  1  0.51750000  0.39660000  0.58660000  1
  H  H421  1  0.28240000  0.22780000  0.11640000  1
  H  H422  1  0.41600000  0.52220000  0.38360000  1
  H  H423  1  0.18090000  0.35340000  0.91340000  1
  H  H424  1  0.53020000  0.04650000  0.61060000  1
  H  H425  1  0.16960000  0.70350000  0.88940000  1
  H  H426  1  0.69270000  0.59870000  0.92900000  1
  H  H427  1  0.01370000  0.15130000  0.57100000  1
  H  H428  1  0.59100000  0.50260000  0.72440000  1
  H  H429  1  0.11660000  0.24740000  0.77560000  1
  H  H430  1  0.66450000  0.53760000  0.86540000  1
  H  H431  1  0.04910000  0.21240000  0.63460000  1
  H  H432  1  0.29650000  0.28020000  0.11060000  1
  H  H433  1  0.43590000  0.46980000  0.38940000  1
  H  H434  1  0.67090000  0.61540000  0.85420000  1
  H  H435  1  0.06670000  0.13460000  0.64580000  1
  H  H436  1  0.99000000  0.93120000  0.48860000  1
  H  H437  1  0.75140000  0.81880000  0.01140000  1
  H  H438  1  0.71740000  0.11570000  0.93760000  1
  H  H439  1  0.02980000  0.63430000  0.56240000  1
  H  H440  1  0.53260000  0.92810000  0.56240000  1
  H  H441  1  0.22020000  0.82190000  0.93760000  1
  H  H442  1  0.26000000  0.19260000  0.01140000  1
  H  H443  1  0.49860000  0.55740000  0.48860000  1
  H  H444  1  0.57910000  0.51120000  0.64580000  1
  H  H445  1  0.18330000  0.23880000  0.85420000  1
  H  H446  1  0.95350000  0.91960000  0.38940000  1
  H  H447  1  0.81410000  0.83040000  0.11060000  1
  H  H448  1  0.58550000  0.42220000  0.63460000  1
  H  H449  1  0.20090000  0.32780000  0.86540000  1
  H  H450  1  0.65900000  0.52820000  0.77560000  1
  H  H451  1  0.13340000  0.22180000  0.72440000  1
  H  H452  1  0.55730000  0.41970000  0.57100000  1
  H  H453  1  0.23630000  0.33030000  0.92900000  1
  H  H454  1  0.71980000  0.18590000  0.88940000  1
  H  H455  1  0.08040000  0.56410000  0.61060000  1
  H  H456  1  0.73250000  0.56000000  0.91340000  1
  H  H457  1  0.96760000  0.86140000  0.38360000  1
  H  H458  1  0.83400000  0.88860000  0.11640000  1
  H  H459  1  0.06910000  0.19000000  0.58660000  1
  H  H460  1  0.76490000  0.03690000  0.96320000  1
  H  H461  1  0.05170000  0.71310000  0.53680000  1
  H  H462  1  0.65000000  0.90050000  0.73280000  1
  H  H463  1  0.16720000  0.84950000  0.76720000  1
  H  H464  1  0.72580000  0.94330000  0.88060000  1
  H  H465  1  0.09520000  0.80670000  0.61940000  1
  H  H466  1  0.73460000  0.13100000  0.89240000  1
  H  H467  1  0.09220000  0.61900000  0.60760000  1
  H  H468  1  0.62630000  0.89760000  0.66960000  1
  H  H469  1  0.20670000  0.85240000  0.83040000  1
  H  H470  1  0.27820000  0.07780000  0.97160000  1
  H  H471  1  0.55660000  0.67220000  0.52840000  1
  H  H472  1  0.32280000  0.07060000  0.05840000  1
  H  H473  1  0.51440000  0.67940000  0.44160000  1
  H  H474  1  0.66710000  0.95660000  0.73380000  1
  H  H475  1  0.18330000  0.79340000  0.76620000  1
  H  H476  1  0.45100000  0.71490000  0.29460000  1
  H  H477  1  0.40640000  0.03510000  0.20540000  1
  H  H478  1  0.03820000  0.85960000  0.46880000  1
  H  H479  1  0.81940000  0.89040000  0.03120000  1
  H  H480  1  0.69680000  0.57780000  0.78200000  1
  H  H481  1  0.16480000  0.17220000  0.71800000  1
  H  H482  1  0.49840000  0.70580000  0.37880000  1
  H  H483  1  0.36960000  0.04420000  0.12120000  1
  H  H484  1  0.38460000  0.81670000  0.14580000  1
  H  H485  1  0.48880000  0.93330000  0.35420000  1
  H  H486  1  0.83860000  0.10510000  0.05280000  1
  H  H487  1  0.03580000  0.64490000  0.44720000  1
  H  H488  1  0.06880000  0.50140000  0.51140000  1
  H  H489  1  0.80740000  0.24860000  0.98860000  1
  H  H490  1  0.45420000  0.83520000  0.28200000  1
  H  H491  1  0.42220000  0.91480000  0.21800000  1
  H  H492  1  0.01140000  0.90780000  0.39240000  1
  H  H493  1  0.86900000  0.84220000  0.10760000  1
  H  H494  1  0.88910000  0.19590000  0.14280000  1
  H  H495  1  0.99630000  0.55410000  0.35720000  1
  H  H496  1  0.08660000  0.91760000  0.52880000  1
  H  H497  1  0.80780000  0.83240000  0.97120000  1
  H  H498  1  0.72700000  0.53880000  0.80720000  1
  H  H499  1  0.16980000  0.21120000  0.69280000  1
  H  H500  1  0.58390000  0.87780000  0.52060000  1
  H  H501  1  0.31330000  0.87220000  0.97940000  1
  H  H502  1  0.77220000  0.16600000  0.88360000  1
  H  H503  1  0.13860000  0.58400000  0.61640000  1
  H  H504  1  0.81720000  0.13550000  0.96340000  1
  H  H505  1  0.10380000  0.61450000  0.53660000  1
  H  H506  1  0.07790000  0.89620000  0.46340000  1
  H  H507  1  0.86450000  0.85380000  0.03660000  1
  H  H508  1  0.81300000  0.61030000  0.93260000  1
  H  H509  1  0.13040000  0.13970000  0.56740000  1
  H  H510  1  0.86120000  0.19220000  0.02880000  1
  H  H511  1  0.08240000  0.55780000  0.47120000  1
  H  H512  1  0.88430000  0.77980000  0.06240000  1
  H  H513  1  0.07190000  0.97020000  0.43760000  1
  H  H514  1  0.57230000  0.86960000  0.43260000  1
  H  H515  1  0.38970000  0.88040000  0.06740000  1
  H  H516  1  0.13630000  0.84890000  0.55480000  1
  H  H517  1  0.83150000  0.90110000  0.94520000  1
  H  H518  1  0.70410000  0.85570000  0.69000000  1
  H  H519  1  0.26410000  0.89430000  0.81000000  1
  H  H520  1  0.49740000  0.86660000  0.27560000  1
  H  H521  1  0.47180000  0.88340000  0.22440000  1
  H  H522  1  0.76170000  0.00690000  0.79800000  1
  H  H523  1  0.21370000  0.74310000  0.70200000  1
  H  H524  1  0.51840000  0.83020000  0.30720000  1
  H  H525  1  0.46120000  0.91980000  0.19280000  1
  H  H526  1  0.40130000  0.76370000  0.07100000  1
  H  H527  1  0.58030000  0.98630000  0.42900000  1
  H  H528  1  0.85920000  0.18060000  0.96880000  1
  H  H529  1  0.14040000  0.56940000  0.53120000  1
  H  H530  1  0.19690000  0.00370000  0.64280000  1
  H  H531  1  0.80410000  0.74630000  0.85720000  1
  H  H532  1  0.89280000  0.68670000  0.02060000  1
  H  H533  1  0.12220000  0.06330000  0.47940000  1
  H  H534  1  0.70420000  0.90090000  0.63700000  1
  H  H535  1  0.31720000  0.84910000  0.86300000  1
  H  H536  1  0.83700000  0.05170000  0.89920000  1
  H  H537  1  0.18780000  0.69830000  0.60080000  1
  H  H538  1  0.98970000  0.71020000  0.20100000  1
  H  H539  1  0.03870000  0.03980000  0.29900000  1
  H  H540  1  0.74080000  0.96130000  0.70100000  1
  H  H541  1  0.28980000  0.78870000  0.79900000  1
  H  H542  1  0.04110000  0.78630000  0.29800000  1
  H  H543  1  0.99310000  0.96370000  0.20200000  1
  H  H544  1  0.46240000  0.79910000  0.13460000  1
  H  H545  1  0.57780000  0.95090000  0.36540000  1
  H  H546  1  0.91620000  0.11360000  0.03900000  1
  H  H547  1  0.60340000  0.93090000  0.41340000  1
  H  H548  1  0.44000000  0.81910000  0.08660000  1
  H  H549  1  0.12720000  0.63640000  0.46100000  1
  H  H550  1  0.09750000  0.81220000  0.39920000  1
  H  H551  1  0.94830000  0.93780000  0.10080000  1
  H  H552  1  0.94180000  0.06650000  0.07760000  1
  H  H553  1  0.11420000  0.68350000  0.42240000  1
  H  H554  1  0.16530000  0.80770000  0.52160000  1
  H  H555  1  0.89370000  0.94230000  0.97840000  1
  H  H556  1  0.17540000  0.87280000  0.53900000  1
  H  H557  1  0.88640000  0.87720000  0.96100000  1
  H  H558  1  0.14380000  0.44340000  0.47160000  1
  H  H559  1  0.92220000  0.30660000  0.02840000  1
  H  H560  1  0.23090000  0.90720000  0.64520000  1
  H  H561  1  0.83570000  0.84280000  0.85480000  1
  H  H562  1  0.02720000  0.81670000  0.23380000  1
  H  H563  1  0.04340000  0.93330000  0.26620000  1
  H  H564  1  0.88040000  0.99750000  0.93880000  1
  H  H565  1  0.19160000  0.75250000  0.56120000  1
  H  H566  1  0.98800000  0.16430000  0.14520000  1
  H  H567  1  0.09280000  0.58570000  0.35480000  1
  H  H568  1  0.98610000  0.68280000  0.13700000  1
  H  H569  1  0.09910000  0.06720000  0.36300000  1
  H  H570  1  0.19770000  0.96420000  0.55280000  1
  H  H571  1  0.89490000  0.78580000  0.94720000  1
  H  H572  1  0.76920000  0.90980000  0.68600000  1
  H  H573  1  0.33320000  0.84020000  0.81400000  1
  H  H574  1  0.95590000  0.16850000  0.05480000  1
  H  H575  1  0.15110000  0.58150000  0.44520000  1
  H  H576  1  0.82970000  0.59360000  0.79460000  1
  H  H577  1  0.28510000  0.15640000  0.70540000  1
  H  H578  1  0.02620000  0.66680000  0.18600000  1
  H  H579  1  0.09020000  0.08320000  0.31400000  1
  H  H580  1  0.02200000  0.79330000  0.16960000  1
  H  H581  1  0.10240000  0.95670000  0.33040000  1
  H  H582  1  0.00630000  0.07280000  0.12500000  1
  H  H583  1  0.13130000  0.67720000  0.37500000  1
  H  H584  1  0.17630000  0.94830000  0.46320000  1
  H  H585  1  0.96310000  0.80170000  0.03680000  1
  H  H586  1  0.96390000  0.10630000  0.02160000  1
  H  H587  1  0.19230000  0.64370000  0.47840000  1
  H  H588  1  0.23780000  0.48560000  0.55840000  1
  H  H589  1  0.92940000  0.26440000  0.94160000  1
  H  H590  1  0.98750000  0.05640000  0.05740000  1
  H  H591  1  0.18010000  0.69360000  0.44260000  1
  H  H592  1  0.08230000  0.83280000  0.23280000  1
  H  H593  1  0.09950000  0.91720000  0.26720000  1
  H  H594  1  0.19130000  0.80840000  0.43880000  1
  H  H595  1  0.00250000  0.94160000  0.06120000  1
  H  H596  1  0.25100000  0.81990000  0.55740000  1
  H  H597  1  0.26110000  0.88580000  0.57760000  1
  H  H598  1  0.93350000  0.86420000  0.92240000  1
  H  H599  1  0.94360000  0.93010000  0.94260000  1
  H  H600  1  0.92300000  0.63040000  0.87880000  1
  H  H601  1  0.29420000  0.11960000  0.62120000  1
  H  H602  1  0.08430000  0.73590000  0.19000000  1
  H  H603  1  0.14430000  0.01410000  0.31000000  1
  H  H604  1  0.30220000  0.86870000  0.62500000  1
  H  H605  1  0.92720000  0.88130000  0.87500000  1
  H  H606  1  0.18730000  0.90480000  0.38060000  1
  H  H607  1  0.05670000  0.84520000  0.11940000  1
  N  N608  1  0.08975000  0.78705000  0.08230000  1
  N  N609  1  0.25745000  0.96295000  0.41770000  1
  N  N610  1  0.00684000  0.15064000  0.81808000  1
  N  N611  1  0.43876000  0.59936000  0.68192000  1
  N  N612  1  0.40064000  0.75684000  0.31808000  1
  N  N613  1  0.33256000  0.99316000  0.18192000  1
  N  N614  1  0.03705000  0.83975000  0.58230000  1
  N  N615  1  0.70475000  0.91025000  0.91770000  1
  N  N616  1  0.21295000  0.00745000  0.91770000  1
  N  N617  1  0.54525000  0.74255000  0.58230000  1
  N  N618  1  0.84936000  0.18876000  0.18192000  1
  N  N619  1  0.91744000  0.56124000  0.31808000  1
  N  N620  1  0.24316000  0.08256000  0.68192000  1
  N  N621  1  0.81124000  0.66744000  0.81808000  1
  N  N622  1  0.16025000  0.45475000  0.41770000  1
  N  N623  1  0.99255000  0.29525000  0.08230000  1
  O  O624  1  0.17870000  0.74700000  0.26400000  1
  O  O625  1  0.16470000  0.00300000  0.23600000  1
  O  O626  1  0.22219000  0.85019000  0.30978000  1
  O  O627  1  0.16241000  0.89981000  0.19022000  1
  O  O628  1  0.16836000  0.78136000  0.19532000  1
  O  O629  1  0.22304000  0.96864000  0.30468000  1
  O  O630  1  0.99700000  0.92870000  0.76400000  1
  O  O631  1  0.48300000  0.82130000  0.73600000  1
  O  O632  1  0.00676000  0.11966000  0.76632000  1
  O  O633  1  0.49044000  0.63034000  0.73368000  1
  O  O634  1  0.26369000  0.77500000  0.26144000  1
  O  O635  1  0.25225000  0.97500000  0.23856000  1
  O  O636  1  0.02500000  0.01369000  0.76144000  1
  O  O637  1  0.51356000  0.73631000  0.73856000  1
  O  O638  1  0.21048000  0.79354000  0.11348000  1
  O  O639  1  0.34700000  0.95646000  0.38652000  1
  O  O640  1  0.03136000  0.91836000  0.69532000  1
  O  O641  1  0.58604000  0.83164000  0.80468000  1
  O  O642  1  0.10019000  0.97219000  0.80978000  1
  O  O643  1  0.54041000  0.77781000  0.69022000  1
  O  O644  1  0.03716000  0.05733000  0.67692000  1
  O  O645  1  0.61024000  0.69267000  0.82308000  1
  O  O646  1  0.12738000  0.13188000  0.83376000  1
  O  O647  1  0.54362000  0.61812000  0.66624000  1
  O  O648  1  0.38188000  0.87738000  0.33376000  1
  O  O649  1  0.29812000  0.87262000  0.16624000  1
  O  O650  1  0.30733000  0.78716000  0.17692000  1
  O  O651  1  0.38041000  0.96284000  0.32308000  1
  O  O652  1  0.36966000  0.75676000  0.26632000  1
  O  O653  1  0.35334000  0.99324000  0.23368000  1
  O  O654  1  0.04354000  0.96048000  0.61348000  1
  O  O655  1  0.68006000  0.78952000  0.88652000  1
  O  O656  1  0.02593000  0.02873000  0.57766000  1
  O  O657  1  0.69827000  0.72127000  0.92234000  1
  O  O658  1  0.27873000  0.77593000  0.07766000  1
  O  O659  1  0.45107000  0.97407000  0.42234000  1
  O  O660  1  0.97127000  0.44827000  0.42234000  1
  O  O661  1  0.79893000  0.30173000  0.07766000  1
  O  O662  1  0.22407000  0.20107000  0.92234000  1
  O  O663  1  0.55173000  0.54893000  0.57766000  1
  O  O664  1  0.20646000  0.09700000  0.88652000  1
  O  O665  1  0.56994000  0.65300000  0.61348000  1
  O  O666  1  0.88034000  0.24044000  0.23368000  1
  O  O667  1  0.89666000  0.50956000  0.26632000  1
  O  O668  1  0.94267000  0.36024000  0.32308000  1
  O  O669  1  0.86959000  0.38976000  0.17692000  1
  O  O670  1  0.86812000  0.29362000  0.16624000  1
  O  O671  1  0.95188000  0.45638000  0.33376000  1
  O  O672  1  0.12262000  0.04812000  0.66624000  1
  O  O673  1  0.70638000  0.70188000  0.83376000  1
  O  O674  1  0.21284000  0.13041000  0.82308000  1
  O  O675  1  0.63976000  0.61959000  0.67692000  1
  O  O676  1  0.14981000  0.91241000  0.69022000  1
  O  O677  1  0.70959000  0.83759000  0.80978000  1
  O  O678  1  0.21864000  0.97304000  0.80468000  1
  O  O679  1  0.66396000  0.77696000  0.69532000  1
  O  O680  1  0.03952000  0.43006000  0.38652000  1
  O  O681  1  0.90300000  0.31994000  0.11348000  1
  O  O682  1  0.22500000  0.00225000  0.73856000  1
  O  O683  1  0.73644000  0.74775000  0.76144000  1
  O  O684  1  0.98631000  0.26356000  0.23856000  1
  O  O685  1  0.99775000  0.48644000  0.26144000  1
  O  O686  1  0.24324000  0.10334000  0.73368000  1
  O  O687  1  0.75956000  0.64666000  0.76632000  1
  O  O688  1  0.25300000  0.91470000  0.73600000  1
  O  O689  1  0.76700000  0.83530000  0.76400000  1
  O  O690  1  0.08164000  0.33604000  0.30468000  1
  O  O691  1  0.02696000  0.41396000  0.19532000  1
  O  O692  1  0.02781000  0.29041000  0.19022000  1
  O  O693  1  0.08759000  0.45959000  0.30978000  1
  O  O694  1  0.07130000  0.23300000  0.23600000  1
  O  O695  1  0.08530000  0.51700000  0.26400000  1
  P  P696  1  0.21080000  0.79279000  0.25742000  1
  P  P697  1  0.20338000  0.95721000  0.24258000  1
  P  P698  1  0.04279000  0.96080000  0.75742000  1
  P  P699  1  0.53537000  0.78920000  0.74258000  1
  P  P700  1  0.27306000  0.81035000  0.13848000  1
  P  P701  1  0.38458000  0.93965000  0.36152000  1
  P  P702  1  0.06035000  0.02306000  0.63848000  1
  P  P703  1  0.67187000  0.72694000  0.86152000  1
  P  P704  1  0.18965000  0.13458000  0.86152000  1
  P  P705  1  0.57813000  0.61542000  0.63848000  1
  P  P706  1  0.97694000  0.42187000  0.36152000  1
  P  P707  1  0.86542000  0.32813000  0.13848000  1
  P  P708  1  0.20721000  0.95338000  0.74258000  1
  P  P709  1  0.71463000  0.79662000  0.75742000  1
  P  P710  1  0.03920000  0.28537000  0.24258000  1
  P  P711  1  0.04662000  0.46463000  0.25742000  1
  Zn  Zn712  1  0.17486000  0.82425000  0.16098000  1
  Zn  Zn713  1  0.26388000  0.92575000  0.33902000  1
  Zn  Zn714  1  0.06159000  0.06944000  0.75614000  1
  Zn  Zn715  1  0.55545000  0.68056000  0.74386000  1
  Zn  Zn716  1  0.31944000  0.81159000  0.25614000  1
  Zn  Zn717  1  0.31330000  0.93841000  0.24386000  1
  Zn  Zn718  1  0.07425000  0.92486000  0.66098000  1
  Zn  Zn719  1  0.66327000  0.82514000  0.83902000  1
  Zn  Zn720  1  0.17575000  0.01388000  0.83902000  1
  Zn  Zn721  1  0.58673000  0.73612000  0.66098000  1
  Zn  Zn722  1  0.93056000  0.30545000  0.24386000  1
  Zn  Zn723  1  0.93670000  0.44455000  0.25614000  1
  Zn  Zn724  1  0.18841000  0.06330000  0.74386000  1
  Zn  Zn725  1  0.69455000  0.68670000  0.75614000  1
  Zn  Zn726  1  0.07514000  0.41327000  0.33902000  1
  Zn  Zn727  1  0.98612000  0.33673000  0.16098000  1
