# generated using pymatgen
data_Cd3H5C11N5O9
_symmetry_space_group_name_H-M   'P 1'
_cell_length_a   6.59500000
_cell_length_b   9.16530000
_cell_length_c   14.19580000
_cell_angle_alpha   85.87300000
_cell_angle_beta   82.16600000
_cell_angle_gamma   74.73400000
_symmetry_Int_Tables_number   1
_chemical_formula_structural   Cd3H5C11N5O9
_chemical_formula_sum   'Cd6 H10 C22 N10 O18'
_cell_volume   819.47920492
_cell_formula_units_Z   2
loop_
 _symmetry_equiv_pos_site_id
 _symmetry_equiv_pos_as_xyz
  1  'x, y, z'
loop_
 _atom_site_type_symbol
 _atom_site_label
 _atom_site_symmetry_multiplicity
 _atom_site_fract_x
 _atom_site_fract_y
 _atom_site_fract_z
 _atom_site_occupancy
  Cd  Cd0  1  0.05851000  0.11128000  0.27540000  1
  Cd  Cd1  1  0.24604000  0.87754000  0.48855000  1
  Cd  Cd2  1  0.41306000  0.38552000  0.16468000  1
  Cd  Cd3  1  0.58694000  0.61448000  0.83532000  1
  Cd  Cd4  1  0.75396000  0.12246000  0.51145000  1
  Cd  Cd5  1  0.94149000  0.88872000  0.72460000  1
  H  H6  1  0.15830000  0.16420000  0.43860000  1
  H  H7  1  0.16960000  0.88660000  0.08200000  1
  H  H8  1  0.21110000  0.36270000  0.65350000  1
  H  H9  1  0.24100000  0.71930000  0.05950000  1
  H  H10  1  0.33830000  0.13710000  0.95160000  1
  H  H11  1  0.66170000  0.86290000  0.04840000  1
  H  H12  1  0.75900000  0.28070000  0.94050000  1
  H  H13  1  0.78890000  0.63730000  0.34650000  1
  H  H14  1  0.83040000  0.11340000  0.91800000  1
  H  H15  1  0.84170000  0.83580000  0.56140000  1
  C  C16  1  0.15550000  0.57650000  0.76520000  1
  C  C17  1  0.22210000  0.40830000  0.78960000  1
  C  C18  1  0.22460000  0.75500000  0.19290000  1
  C  C19  1  0.24250000  0.31680000  0.71380000  1
  C  C20  1  0.25990000  0.34340000  0.87920000  1
  C  C21  1  0.26500000  0.43190000  0.96390000  1
  C  C22  1  0.30760000  0.16010000  0.72280000  1
  C  C23  1  0.31840000  0.18350000  0.89030000  1
  C  C24  1  0.32630000  0.07410000  0.63580000  1
  C  C25  1  0.34670000  0.09460000  0.81240000  1
  C  C26  1  0.43500000  0.92510000  0.82830000  1
  C  C27  1  0.56500000  0.07490000  0.17170000  1
  C  C28  1  0.65330000  0.90540000  0.18760000  1
  C  C29  1  0.67370000  0.92590000  0.36420000  1
  C  C30  1  0.68160000  0.81650000  0.10970000  1
  C  C31  1  0.69240000  0.83990000  0.27720000  1
  C  C32  1  0.73500000  0.56810000  0.03610000  1
  C  C33  1  0.74010000  0.65660000  0.12080000  1
  C  C34  1  0.75750000  0.68320000  0.28620000  1
  C  C35  1  0.77540000  0.24500000  0.80710000  1
  C  C36  1  0.77790000  0.59170000  0.21040000  1
  C  C37  1  0.84450000  0.42350000  0.23480000  1
  N  N38  1  0.18170000  0.85430000  0.26310000  1
  N  N39  1  0.21010000  0.79100000  0.10110000  1
  N  N40  1  0.21470000  0.76850000  0.34480000  1
  N  N41  1  0.27300000  0.62560000  0.32570000  1
  N  N42  1  0.28180000  0.61200000  0.23110000  1
  N  N43  1  0.71820000  0.38800000  0.76890000  1
  N  N44  1  0.72700000  0.37440000  0.67430000  1
  N  N45  1  0.78530000  0.23150000  0.65520000  1
  N  N46  1  0.78990000  0.20900000  0.89890000  1
  N  N47  1  0.81830000  0.14570000  0.73690000  1
  O  O48  1  0.03400000  0.36460000  0.24610000  1
  O  O49  1  0.08390000  0.10590000  0.42990000  1
  O  O50  1  0.22330000  0.37330000  0.04610000  1
  O  O51  1  0.25570000  0.95780000  0.64070000  1
  O  O52  1  0.29500000  0.65070000  0.74810000  1
  O  O53  1  0.31310000  0.55540000  0.94910000  1
  O  O54  1  0.35920000  0.85820000  0.89840000  1
  O  O55  1  0.40560000  0.12670000  0.55880000  1
  O  O56  1  0.41200000  0.14360000  0.23140000  1
  O  O57  1  0.58800000  0.85640000  0.76860000  1
  O  O58  1  0.59440000  0.87330000  0.44120000  1
  O  O59  1  0.64080000  0.14180000  0.10160000  1
  O  O60  1  0.68690000  0.44460000  0.05090000  1
  O  O61  1  0.70500000  0.34930000  0.25190000  1
  O  O62  1  0.74430000  0.04220000  0.35930000  1
  O  O63  1  0.77670000  0.62670000  0.95390000  1
  O  O64  1  0.91610000  0.89410000  0.57010000  1
  O  O65  1  0.96600000  0.63540000  0.75390000  1
