# generated using pymatgen
data_Er2H3(C5O4)3
_symmetry_space_group_name_H-M   'P 1'
_cell_length_a   9.67390000
_cell_length_b   11.00390000
_cell_length_c   11.55230000
_cell_angle_alpha   104.83300000
_cell_angle_beta   91.00000000
_cell_angle_gamma   114.25700000
_symmetry_Int_Tables_number   1
_chemical_formula_structural   Er2H3(C5O4)3
_chemical_formula_sum   'Er4 H6 C30 O24'
_cell_volume   1073.27310461
_cell_formula_units_Z   2
loop_
 _symmetry_equiv_pos_site_id
 _symmetry_equiv_pos_as_xyz
  1  'x, y, z'
loop_
 _atom_site_type_symbol
 _atom_site_label
 _atom_site_symmetry_multiplicity
 _atom_site_fract_x
 _atom_site_fract_y
 _atom_site_fract_z
 _atom_site_occupancy
  Er  Er0  1  0.48314000  0.57553000  0.67001000  1
  Er  Er1  1  0.49227000  0.99276000  0.25353000  1
  Er  Er2  1  0.50773000  0.00724000  0.74647000  1
  Er  Er3  1  0.51686000  0.42447000  0.32999000  1
  H  H4  1  0.00700000  0.68350000  0.65530000  1
  H  H5  1  0.01260000  0.21780000  0.59100000  1
  H  H6  1  0.08980000  0.20220000  0.15930000  1
  H  H7  1  0.91020000  0.79780000  0.84070000  1
  H  H8  1  0.98740000  0.78220000  0.40900000  1
  H  H9  1  0.99300000  0.31650000  0.34470000  1
  C  C10  1  0.00470000  0.60970000  0.59280000  1
  C  C11  1  0.00770000  0.13010000  0.55410000  1
  C  C12  1  0.05340000  0.12080000  0.09530000  1
  C  C13  1  0.09890000  0.94160000  0.95400000  1
  C  C14  1  0.12030000  0.98800000  0.44170000  1
  C  C15  1  0.12660000  0.11930000  0.49640000  1
  C  C16  1  0.13440000  0.50520000  0.45470000  1
  C  C17  1  0.14080000  0.61770000  0.54990000  1
  C  C18  1  0.15290000  0.06440000  0.05090000  1
  C  C19  1  0.20960000  0.88710000  0.89720000  1
  C  C20  1  0.24960000  0.97010000  0.38240000  1
  C  C21  1  0.25850000  0.25360000  0.49110000  1
  C  C22  1  0.27190000  0.50180000  0.39910000  1
  C  C23  1  0.28250000  0.74980000  0.60690000  1
  C  C24  1  0.31410000  0.12930000  0.11180000  1
  C  C25  1  0.68590000  0.87070000  0.88820000  1
  C  C26  1  0.71750000  0.25020000  0.39310000  1
  C  C27  1  0.72810000  0.49820000  0.60090000  1
  C  C28  1  0.74150000  0.74640000  0.50890000  1
  C  C29  1  0.75040000  0.02990000  0.61760000  1
  C  C30  1  0.79040000  0.11290000  0.10280000  1
  C  C31  1  0.84710000  0.93560000  0.94910000  1
  C  C32  1  0.85920000  0.38230000  0.45010000  1
  C  C33  1  0.86560000  0.49480000  0.54530000  1
  C  C34  1  0.87340000  0.88070000  0.50360000  1
  C  C35  1  0.87970000  0.01200000  0.55830000  1
  C  C36  1  0.90110000  0.05840000  0.04600000  1
  C  C37  1  0.94660000  0.87920000  0.90470000  1
  C  C38  1  0.99230000  0.86990000  0.44590000  1
  C  C39  1  0.99530000  0.39030000  0.40720000  1
  O  O40  1  0.18320000  0.76370000  0.88680000  1
  O  O41  1  0.22360000  0.87970000  0.28300000  1
  O  O42  1  0.25780000  0.44160000  0.29030000  1
  O  O43  1  0.28280000  0.86120000  0.60150000  1
  O  O44  1  0.29540000  0.35350000  0.58760000  1
  O  O45  1  0.31370000  0.25820000  0.39470000  1
  O  O46  1  0.31880000  0.97100000  0.85990000  1
  O  O47  1  0.37130000  0.05020000  0.12650000  1
  O  O48  1  0.38360000  0.26120000  0.14940000  1
  O  O49  1  0.38770000  0.04810000  0.43200000  1
  O  O50  1  0.39440000  0.74900000  0.66680000  1
  O  O51  1  0.40120000  0.55330000  0.46640000  1
  O  O52  1  0.59880000  0.44670000  0.53360000  1
  O  O53  1  0.60560000  0.25100000  0.33320000  1
  O  O54  1  0.61230000  0.95190000  0.56800000  1
  O  O55  1  0.61640000  0.73880000  0.85060000  1
  O  O56  1  0.62870000  0.94980000  0.87350000  1
  O  O57  1  0.68120000  0.02900000  0.14010000  1
  O  O58  1  0.68630000  0.74180000  0.60530000  1
  O  O59  1  0.70460000  0.64650000  0.41240000  1
  O  O60  1  0.71720000  0.13880000  0.39850000  1
  O  O61  1  0.74220000  0.55840000  0.70970000  1
  O  O62  1  0.77640000  0.12030000  0.71700000  1
  O  O63  1  0.81680000  0.23630000  0.11320000  1
