# generated using pymatgen
data_CdH14C20(NO)4
_symmetry_space_group_name_H-M   'P 1'
_cell_length_a   8.25400000
_cell_length_b   18.00600000
_cell_length_c   18.89600000
_cell_angle_alpha   90.00000000
_cell_angle_beta   90.00000000
_cell_angle_gamma   90.00000000
_symmetry_Int_Tables_number   1
_chemical_formula_structural   CdH14C20(NO)4
_chemical_formula_sum   'Cd4 H56 C80 N16 O16'
_cell_volume   2808.35231750
_cell_formula_units_Z   4
loop_
 _symmetry_equiv_pos_site_id
 _symmetry_equiv_pos_as_xyz
  1  'x, y, z'
loop_
 _atom_site_type_symbol
 _atom_site_label
 _atom_site_symmetry_multiplicity
 _atom_site_fract_x
 _atom_site_fract_y
 _atom_site_fract_z
 _atom_site_occupancy
  Cd  Cd0  1  0.48731000  0.09337000  0.02727000  1
  Cd  Cd1  1  0.48731000  0.59337000  0.47273000  1
  Cd  Cd2  1  0.51269000  0.09337000  0.52727000  1
  Cd  Cd3  1  0.51269000  0.59337000  0.97273000  1
  H  H4  1  0.00150000  0.03420000  0.82800000  1
  H  H5  1  0.00150000  0.53420000  0.67200000  1
  H  H6  1  0.04240000  0.02330000  0.98740000  1
  H  H7  1  0.04240000  0.52330000  0.51260000  1
  H  H8  1  0.05240000  0.27130000  0.04980000  1
  H  H9  1  0.05240000  0.77130000  0.45020000  1
  H  H10  1  0.06640000  0.13150000  0.60220000  1
  H  H11  1  0.06640000  0.63150000  0.89780000  1
  H  H12  1  0.18400000  0.10850000  0.90540000  1
  H  H13  1  0.18400000  0.60850000  0.59460000  1
  H  H14  1  0.21370000  0.21070000  0.50360000  1
  H  H15  1  0.21370000  0.71070000  0.99640000  1
  H  H16  1  0.21580000  0.03700000  0.25060000  1
  H  H17  1  0.21580000  0.53700000  0.24940000  1
  H  H18  1  0.25800000  0.44440000  0.53870000  1
  H  H19  1  0.25800000  0.94440000  0.96130000  1
  H  H20  1  0.26610000  0.35130000  0.02400000  1
  H  H21  1  0.26610000  0.85130000  0.47600000  1
  H  H22  1  0.28410000  0.12980000  0.68010000  1
  H  H23  1  0.28410000  0.62980000  0.81990000  1
  H  H24  1  0.35110000  0.08490000  0.36410000  1
  H  H25  1  0.35110000  0.58490000  0.13590000  1
  H  H26  1  0.39950000  0.36080000  0.63490000  1
  H  H27  1  0.39950000  0.86080000  0.86510000  1
  H  H28  1  0.41800000  0.25250000  0.13010000  1
  H  H29  1  0.41800000  0.75250000  0.36990000  1
  H  H30  1  0.49870000  0.07190000  0.25050000  1
  H  H31  1  0.49870000  0.57190000  0.24950000  1
  H  H32  1  0.50130000  0.07190000  0.75050000  1
  H  H33  1  0.50130000  0.57190000  0.74950000  1
  H  H34  1  0.58200000  0.25250000  0.63010000  1
  H  H35  1  0.58200000  0.75250000  0.86990000  1
  H  H36  1  0.60050000  0.36080000  0.13490000  1
  H  H37  1  0.60050000  0.86080000  0.36510000  1
  H  H38  1  0.64890000  0.08490000  0.86410000  1
  H  H39  1  0.64890000  0.58490000  0.63590000  1
  H  H40  1  0.71590000  0.12980000  0.18010000  1
  H  H41  1  0.71590000  0.62980000  0.31990000  1
  H  H42  1  0.73390000  0.35130000  0.52400000  1
  H  H43  1  0.73390000  0.85130000  0.97600000  1
  H  H44  1  0.74200000  0.44440000  0.03870000  1
  H  H45  1  0.74200000  0.94440000  0.46130000  1
  H  H46  1  0.78420000  0.03700000  0.75060000  1
  H  H47  1  0.78420000  0.53700000  0.74940000  1
  H  H48  1  0.78630000  0.21070000  0.00360000  1
  H  H49  1  0.78630000  0.71070000  0.49640000  1
  H  H50  1  0.81600000  0.10850000  0.40540000  1
  H  H51  1  0.81600000  0.60850000  0.09460000  1
  H  H52  1  0.93360000  0.13150000  0.10220000  1
  H  H53  1  0.93360000  0.63150000  0.39780000  1
  H  H54  1  0.94760000  0.27130000  0.54980000  1
  H  H55  1  0.94760000  0.77130000  0.95020000  1
  H  H56  1  0.95760000  0.02330000  0.48740000  1
  H  H57  1  0.95760000  0.52330000  0.01260000  1
  H  H58  1  0.99850000  0.03420000  0.32800000  1
  H  H59  1  0.99850000  0.53420000  0.17200000  1
  C  C60  1  0.01320000  0.05490000  0.78320000  1
  C  C61  1  0.01320000  0.55490000  0.71680000  1
  C  C62  1  0.02340000  0.47310000  0.52030000  1
  C  C63  1  0.02340000  0.97310000  0.97970000  1
  C  C64  1  0.03390000  0.32170000  0.04280000  1
  C  C65  1  0.03390000  0.82170000  0.45720000  1
  C  C66  1  0.05320000  0.11230000  0.64750000  1
  C  C67  1  0.05320000  0.61230000  0.85250000  1
  C  C68  1  0.09750000  0.08370000  0.16810000  1
  C  C69  1  0.09750000  0.58370000  0.33190000  1
  C  C70  1  0.11580000  0.05550000  0.23640000  1
  C  C71  1  0.11580000  0.55550000  0.26360000  1
  C  C72  1  0.12200000  0.35110000  0.54780000  1
  C  C73  1  0.12200000  0.85110000  0.95220000  1
  C  C74  1  0.13400000  0.44550000  0.01610000  1
  C  C75  1  0.13400000  0.94550000  0.48390000  1
  C  C76  1  0.15290000  0.42590000  0.53610000  1
  C  C77  1  0.15290000  0.92590000  0.96390000  1
  C  C78  1  0.16120000  0.36990000  0.02710000  1
  C  C79  1  0.16120000  0.86990000  0.47290000  1
  C  C80  1  0.16150000  0.08580000  0.76250000  1
  C  C81  1  0.16150000  0.58580000  0.73750000  1
  C  C82  1  0.18330000  0.11220000  0.69440000  1
  C  C83  1  0.18330000  0.61220000  0.80560000  1
  C  C84  1  0.23700000  0.08820000  0.11720000  1
  C  C85  1  0.23700000  0.58820000  0.38280000  1
  C  C86  1  0.27250000  0.49730000  0.00020000  1
  C  C87  1  0.27250000  0.99730000  0.49980000  1
  C  C88  1  0.28090000  0.10060000  0.88150000  1
  C  C89  1  0.28090000  0.60060000  0.61850000  1
  C  C90  1  0.28260000  0.23450000  0.53520000  1
  C  C91  1  0.28260000  0.73450000  0.96480000  1
  C  C92  1  0.38460000  0.31810000  0.60800000  1
  C  C93  1  0.38460000  0.81810000  0.89200000  1
  C  C94  1  0.45610000  0.08020000  0.79490000  1
  C  C95  1  0.45610000  0.58020000  0.70510000  1
  C  C96  1  0.46270000  0.08790000  0.35810000  1
  C  C97  1  0.46270000  0.58790000  0.14190000  1
  C  C98  1  0.48540000  0.25790000  0.60530000  1
  C  C99  1  0.48540000  0.75790000  0.89470000  1
  C  C100  1  0.51460000  0.25790000  0.10530000  1
  C  C101  1  0.51460000  0.75790000  0.39470000  1
  C  C102  1  0.53730000  0.08790000  0.85810000  1
  C  C103  1  0.53730000  0.58790000  0.64190000  1
  C  C104  1  0.54390000  0.08020000  0.29490000  1
  C  C105  1  0.54390000  0.58020000  0.20510000  1
  C  C106  1  0.61540000  0.31810000  0.10800000  1
  C  C107  1  0.61540000  0.81810000  0.39200000  1
  C  C108  1  0.71740000  0.23450000  0.03520000  1
  C  C109  1  0.71740000  0.73450000  0.46480000  1
  C  C110  1  0.71910000  0.10060000  0.38150000  1
  C  C111  1  0.71910000  0.60060000  0.11850000  1
  C  C112  1  0.72750000  0.49730000  0.50020000  1
  C  C113  1  0.72750000  0.99730000  0.99980000  1
  C  C114  1  0.76300000  0.08820000  0.61720000  1
  C  C115  1  0.76300000  0.58820000  0.88280000  1
  C  C116  1  0.81670000  0.11220000  0.19440000  1
  C  C117  1  0.81670000  0.61220000  0.30560000  1
  C  C118  1  0.83850000  0.08580000  0.26250000  1
  C  C119  1  0.83850000  0.58580000  0.23750000  1
  C  C120  1  0.83880000  0.36990000  0.52710000  1
  C  C121  1  0.83880000  0.86990000  0.97290000  1
  C  C122  1  0.84710000  0.42590000  0.03610000  1
  C  C123  1  0.84710000  0.92590000  0.46390000  1
  C  C124  1  0.86600000  0.44550000  0.51610000  1
  C  C125  1  0.86600000  0.94550000  0.98390000  1
  C  C126  1  0.87800000  0.35110000  0.04780000  1
  C  C127  1  0.87800000  0.85110000  0.45220000  1
  C  C128  1  0.88420000  0.05550000  0.73640000  1
  C  C129  1  0.88420000  0.55550000  0.76360000  1
  C  C130  1  0.90250000  0.08370000  0.66810000  1
  C  C131  1  0.90250000  0.58370000  0.83190000  1
  C  C132  1  0.94680000  0.11230000  0.14750000  1
  C  C133  1  0.94680000  0.61230000  0.35250000  1
  C  C134  1  0.96610000  0.32170000  0.54280000  1
  C  C135  1  0.96610000  0.82170000  0.95720000  1
  C  C136  1  0.97660000  0.47310000  0.02030000  1
  C  C137  1  0.97660000  0.97310000  0.47970000  1
  C  C138  1  0.98680000  0.05490000  0.28320000  1
  C  C139  1  0.98680000  0.55490000  0.21680000  1
  N  N140  1  0.25490000  0.30320000  0.56260000  1
  N  N141  1  0.25490000  0.80320000  0.93740000  1
  N  N142  1  0.29320000  0.08720000  0.81110000  1
  N  N143  1  0.29320000  0.58720000  0.68890000  1
  N  N144  1  0.41840000  0.20600000  0.55880000  1
  N  N145  1  0.41840000  0.70600000  0.94120000  1
  N  N146  1  0.42490000  0.10100000  0.91110000  1
  N  N147  1  0.42490000  0.60100000  0.58890000  1
  N  N148  1  0.57510000  0.10100000  0.41110000  1
  N  N149  1  0.57510000  0.60100000  0.08890000  1
  N  N150  1  0.58160000  0.20600000  0.05880000  1
  N  N151  1  0.58160000  0.70600000  0.44120000  1
  N  N152  1  0.70680000  0.08720000  0.31110000  1
  N  N153  1  0.70680000  0.58720000  0.18890000  1
  N  N154  1  0.74510000  0.30320000  0.06260000  1
  N  N155  1  0.74510000  0.80320000  0.43740000  1
  O  O156  1  0.21480000  0.11770000  0.05740000  1
  O  O157  1  0.21480000  0.61770000  0.44260000  1
  O  O158  1  0.24170000  0.06610000  0.50160000  1
  O  O159  1  0.24170000  0.56610000  0.99840000  1
  O  O160  1  0.37320000  0.06120000  0.13610000  1
  O  O161  1  0.37320000  0.56120000  0.36390000  1
  O  O162  1  0.41320000  0.47200000  0.98900000  1
  O  O163  1  0.41320000  0.97200000  0.51100000  1
  O  O164  1  0.58680000  0.47200000  0.48900000  1
  O  O165  1  0.58680000  0.97200000  0.01100000  1
  O  O166  1  0.62680000  0.06120000  0.63610000  1
  O  O167  1  0.62680000  0.56120000  0.86390000  1
  O  O168  1  0.75830000  0.06610000  0.00160000  1
  O  O169  1  0.75830000  0.56610000  0.49840000  1
  O  O170  1  0.78520000  0.11770000  0.55740000  1
  O  O171  1  0.78520000  0.61770000  0.94260000  1
