# generated using pymatgen
data_Tb2C12(NO4)3
_symmetry_space_group_name_H-M   'P 1'
_cell_length_a   8.56270000
_cell_length_b   14.07800000
_cell_length_c   20.29700000
_cell_angle_alpha   88.56800000
_cell_angle_beta   86.32500000
_cell_angle_gamma   81.38200000
_symmetry_Int_Tables_number   1
_chemical_formula_structural   Tb2C12(NO4)3
_chemical_formula_sum   'Tb8 C48 N12 O48'
_cell_volume   2413.82292975
_cell_formula_units_Z   4
loop_
 _symmetry_equiv_pos_site_id
 _symmetry_equiv_pos_as_xyz
  1  'x, y, z'
loop_
 _atom_site_type_symbol
 _atom_site_label
 _atom_site_symmetry_multiplicity
 _atom_site_fract_x
 _atom_site_fract_y
 _atom_site_fract_z
 _atom_site_occupancy
  Tb  Tb0  1  0.11784000  0.76033000  0.51433000  1
  Tb  Tb1  1  0.21131000  0.02985000  0.24113000  1
  Tb  Tb2  1  0.23516000  0.48561000  0.24797000  1
  Tb  Tb3  1  0.27365000  0.76272000  0.98096000  1
  Tb  Tb4  1  0.72635000  0.23728000  0.01904000  1
  Tb  Tb5  1  0.76484000  0.51439000  0.75203000  1
  Tb  Tb6  1  0.78869000  0.97015000  0.75887000  1
  Tb  Tb7  1  0.88216000  0.23967000  0.48567000  1
  C  C8  1  0.01400000  0.39840000  0.37770000  1
  C  C9  1  0.01990000  0.45230000  0.44200000  1
  C  C10  1  0.02400000  0.08760000  0.93710000  1
  C  C11  1  0.07900000  0.28090000  0.04800000  1
  C  C12  1  0.08800000  0.53830000  0.45300000  1
  C  C13  1  0.13000000  0.93270000  0.09090000  1
  C  C14  1  0.13500000  0.19750000  0.00310000  1
  C  C15  1  0.17700000  0.93320000  0.40230000  1
  C  C16  1  0.17800000  0.04530000  0.92400000  1
  C  C17  1  0.20400000  0.58120000  0.40190000  1
  C  C18  1  0.21200000  0.19320000  0.50240000  1
  C  C19  1  0.22100000  0.95570000  0.87970000  1
  C  C20  1  0.25210000  0.58660000  0.09150000  1
  C  C21  1  0.27900000  0.15080000  0.98370000  1
  C  C22  1  0.34600000  0.90220000  0.42720000  1
  C  C23  1  0.37400000  0.16050000  0.52530000  1
  C  C24  1  0.39000000  0.53740000  0.04640000  1
  C  C25  1  0.42600000  0.18620000  0.00270000  1
  C  C26  1  0.47800000  0.94400000  0.40650000  1
  C  C27  1  0.49100000  0.02310000  0.35330000  1
  C  C28  1  0.49210000  0.45390000  0.06080000  1
  C  C29  1  0.49300000  0.61140000  0.87840000  1
  C  C30  1  0.49700000  0.71700000  0.54390000  1
  C  C31  1  0.49800000  0.80010000  0.49490000  1
  C  C32  1  0.50200000  0.19990000  0.50510000  1
  C  C33  1  0.50300000  0.28300000  0.45610000  1
  C  C34  1  0.50700000  0.38860000  0.12160000  1
  C  C35  1  0.50790000  0.54610000  0.93920000  1
  C  C36  1  0.50900000  0.97690000  0.64670000  1
  C  C37  1  0.52200000  0.05600000  0.59350000  1
  C  C38  1  0.57400000  0.81380000  0.99730000  1
  C  C39  1  0.61000000  0.46260000  0.95360000  1
  C  C40  1  0.62600000  0.83950000  0.47470000  1
  C  C41  1  0.65400000  0.09780000  0.57280000  1
  C  C42  1  0.72100000  0.84920000  0.01630000  1
  C  C43  1  0.74790000  0.41340000  0.90850000  1
  C  C44  1  0.77900000  0.04430000  0.12030000  1
  C  C45  1  0.78800000  0.80680000  0.49760000  1
  C  C46  1  0.79600000  0.41880000  0.59810000  1
  C  C47  1  0.82200000  0.95470000  0.07600000  1
  C  C48  1  0.82300000  0.06680000  0.59770000  1
  C  C49  1  0.86500000  0.80250000  0.99690000  1
  C  C50  1  0.87000000  0.06730000  0.90910000  1
  C  C51  1  0.91200000  0.46170000  0.54700000  1
  C  C52  1  0.92100000  0.71910000  0.95200000  1
  C  C53  1  0.97600000  0.91240000  0.06290000  1
  C  C54  1  0.98010000  0.54770000  0.55800000  1
  C  C55  1  0.98600000  0.60160000  0.62230000  1
  N  N56  1  0.00040000  0.16400000  0.97710000  1
  N  N57  1  0.07210000  0.57430000  0.50830000  1
  N  N58  1  0.30540000  0.07590000  0.94350000  1
  N  N59  1  0.35680000  0.83290000  0.47230000  1
  N  N60  1  0.37720000  0.08430000  0.56890000  1
  N  N61  1  0.40040000  0.58560000  0.98800000  1
  N  N62  1  0.59960000  0.41440000  0.01200000  1
  N  N63  1  0.62280000  0.91570000  0.43110000  1
  N  N64  1  0.64320000  0.16710000  0.52770000  1
  N  N65  1  0.69460000  0.92410000  0.05650000  1
  N  N66  1  0.92790000  0.42570000  0.49170000  1
  N  N67  1  0.99960000  0.83600000  0.02290000  1
  O  O68  1  0.02810000  0.68160000  0.61370000  1
  O  O69  1  0.04470000  0.43770000  0.32480000  1
  O  O70  1  0.06420000  0.68840000  0.94330000  1
  O  O71  1  0.07690000  0.88570000  0.43250000  1
  O  O72  1  0.11140000  0.98970000  0.13640000  1
  O  O73  1  0.12690000  0.25970000  0.54080000  1
  O  O74  1  0.14860000  0.99970000  0.36330000  1
  O  O75  1  0.15420000  0.15780000  0.45420000  1
  O  O76  1  0.17130000  0.88070000  0.90530000  1
  O  O77  1  0.19000000  0.54220000  0.13580000  1
  O  O78  1  0.19210000  0.30020000  0.07990000  1
  O  O79  1  0.21270000  0.67510000  0.07920000  1
  O  O80  1  0.22400000  0.66410000  0.41770000  1
  O  O81  1  0.25520000  0.89110000  0.06470000  1
  O  O82  1  0.27390000  0.53620000  0.35570000  1
  O  O83  1  0.30160000  0.96350000  0.82570000  1
  O  O84  1  0.36490000  0.69330000  0.55710000  1
  O  O85  1  0.37950000  0.31730000  0.43320000  1
  O  O86  1  0.41050000  0.68870000  0.88600000  1
  O  O87  1  0.44010000  0.41750000  0.17520000  1
  O  O88  1  0.44020000  0.90820000  0.63330000  1
  O  O89  1  0.45730000  0.00750000  0.29130000  1
  O  O90  1  0.47440000  0.25340000  0.97080000  1
  O  O91  1  0.50000000  0.14430000  0.05070000  1
  O  O92  1  0.50000000  0.85570000  0.94930000  1
  O  O93  1  0.52560000  0.74660000  0.02920000  1
  O  O94  1  0.54270000  0.99250000  0.70870000  1
  O  O95  1  0.55980000  0.09180000  0.36670000  1
  O  O96  1  0.55990000  0.58250000  0.82480000  1
  O  O97  1  0.58950000  0.31130000  0.11400000  1
  O  O98  1  0.62050000  0.68270000  0.56680000  1
  O  O99  1  0.63510000  0.30670000  0.44290000  1
  O  O100  1  0.69840000  0.03650000  0.17430000  1
  O  O101  1  0.72610000  0.46380000  0.64430000  1
  O  O102  1  0.74480000  0.10890000  0.93530000  1
  O  O103  1  0.77600000  0.33590000  0.58230000  1
  O  O104  1  0.78730000  0.32490000  0.92080000  1
  O  O105  1  0.80790000  0.69980000  0.92010000  1
  O  O106  1  0.81000000  0.45780000  0.86420000  1
  O  O107  1  0.82870000  0.11930000  0.09470000  1
  O  O108  1  0.84580000  0.84220000  0.54580000  1
  O  O109  1  0.85140000  0.00030000  0.63670000  1
  O  O110  1  0.87310000  0.74030000  0.45920000  1
  O  O111  1  0.88860000  0.01030000  0.86360000  1
  O  O112  1  0.92310000  0.11430000  0.56750000  1
  O  O113  1  0.93580000  0.31160000  0.05670000  1
  O  O114  1  0.95530000  0.56230000  0.67520000  1
  O  O115  1  0.97190000  0.31840000  0.38630000  1
