data_I
_chemical_name_common  'CGCNN_MT\data\SSD\clean_cifs\POZHUI_ion_b'
_cell_length_a 30.98400
_cell_length_b 30.98400
_cell_length_c 30.98400
_cell_angle_alpha 90.00000
_cell_angle_beta  90.00000
_cell_angle_gamma 90.00000
_space_group_name_H-M_alt      'P 1'


loop_
_space_group_symop_operation_xyz
  'x, y, z'

loop_
_atom_site_label
_atom_site_fract_x
_atom_site_fract_y
_atom_site_fract_z
_atom_site_type_symbol
O          0.0  0.10976   0.1682     O
O          0.0  0.10976   0.8318     O
O          0.0   0.1682  0.10976     O
O          0.0   0.1682  0.89024     O
O          0.0  0.16891  0.23967     O
O          0.0  0.16891  0.76033     O
Mg         0.0   0.1747   0.1747    Mg
Mg         0.0   0.1747   0.8253    Mg
H          0.0  0.21516  0.37064     H
H          0.0  0.21516  0.62936     H
O          0.0  0.23967  0.16891     O
O          0.0  0.23967  0.83109     O
C          0.0  0.24696  0.38493     C
C          0.0  0.24696  0.61507     C
H          0.0  0.37064  0.21516     H
H          0.0  0.37064  0.78484     H
C          0.0  0.38493  0.24696     C
C          0.0  0.38493  0.75304     C
C          0.0  0.61507  0.24696     C
C          0.0  0.61507  0.75304     C
H          0.0  0.62936  0.21516     H
H          0.0  0.62936  0.78484     H
C          0.0  0.75304  0.38493     C
C          0.0  0.75304  0.61507     C
O          0.0  0.76033  0.16891     O
O          0.0  0.76033  0.83109     O
H          0.0  0.78484  0.37064     H
H          0.0  0.78484  0.62936     H
Mg         0.0   0.8253   0.1747    Mg
Mg         0.0   0.8253   0.8253    Mg
O          0.0  0.83109  0.23967     O
O          0.0  0.83109  0.76033     O
O          0.0   0.8318  0.10976     O
O          0.0   0.8318  0.89024     O
O          0.0  0.89024   0.1682     O
O          0.0  0.89024   0.8318     O
C      0.02283  0.30649  0.41357     C
C      0.02283  0.30649  0.58643     C
C      0.02283  0.41357  0.30649     C
C      0.02283  0.41357  0.69351     C
C      0.02283  0.58643  0.30649     C
C      0.02283  0.58643  0.69351     C
C      0.02283  0.69351  0.41357     C
C      0.02283  0.69351  0.58643     C
H      0.02518  0.09877  0.18448     H
H      0.02518  0.09877  0.81552     H
H      0.02518  0.15087  0.24745     H
H      0.02518  0.15087  0.75255     H
H      0.02518  0.18448  0.09877     H
H      0.02518  0.18448  0.90123     H
H      0.02518  0.24745  0.15087     H
H      0.02518  0.24745  0.84913     H
H      0.02518  0.75255  0.15087     H
H      0.02518  0.75255  0.84913     H
H      0.02518  0.81552  0.09877     H
H      0.02518  0.81552  0.90123     H
H      0.02518  0.84913  0.24745     H
H      0.02518  0.84913  0.75255     H
H      0.02518  0.90123  0.18448     H
H      0.02518  0.90123  0.81552     H
N      0.03697  0.26851  0.39583     N
N      0.03697  0.26851  0.60417     N
N      0.03697  0.39583  0.26851     N
N      0.03697  0.39583  0.73149     N
N      0.03697  0.60417  0.26851     N
N      0.03697  0.60417  0.73149     N
N      0.03697  0.73149  0.39583     N
N      0.03697  0.73149  0.60417     N
O      0.03815  0.37626  0.44019     O
O      0.03815  0.37626  0.55981     O
O      0.03815  0.44019  0.37626     O
O      0.03815  0.44019  0.62374     O
O      0.03815  0.55981  0.37626     O
O      0.03815  0.55981  0.62374     O
O      0.03815  0.62374  0.44019     O
O      0.03815  0.62374  0.55981     O
C      0.05073  0.33836  0.43209     C
C      0.05073  0.33836  0.56791     C
C      0.05073  0.43209  0.33836     C
C      0.05073  0.43209  0.66164     C
C      0.05073  0.56791  0.33836     C
C      0.05073  0.56791  0.66164     C
C      0.05073  0.66164  0.43209     C
C      0.05073  0.66164  0.56791     C
O      0.05869  0.16993   0.4104     O
O      0.05869  0.16993   0.5896     O
O      0.05869   0.4104  0.16993     O
O      0.05869   0.4104  0.83007     O
O      0.05869   0.5896  0.16993     O
O      0.05869   0.5896  0.83007     O
O      0.05869  0.83007   0.4104     O
O      0.05869  0.83007   0.5896     O
O      0.05981  0.12374  0.46185     O
O      0.05981  0.12374  0.53815     O
O      0.05981  0.46185  0.12374     O
O      0.05981  0.46185  0.87626     O
O      0.05981  0.53815  0.12374     O
O      0.05981  0.53815  0.87626     O
O      0.05981  0.87626  0.46185     O
O      0.05981  0.87626  0.53815     O
O      0.06473  0.18097  0.18097     O
O      0.06473  0.18097  0.81903     O
O      0.06473  0.81903  0.18097     O
O      0.06473  0.81903  0.81903     O
C      0.06791  0.16164  0.44927     C
C      0.06791  0.16164  0.55073     C
C      0.06791  0.44927  0.16164     C
C      0.06791  0.44927  0.83836     C
C      0.06791  0.55073  0.16164     C
C      0.06791  0.55073  0.83836     C
C      0.06791  0.83836  0.44927     C
C      0.06791  0.83836  0.55073     C
H      0.07648  0.15206  0.18766     H
H      0.07648  0.15206  0.81234     H
H      0.07648  0.18766  0.15206     H
H      0.07648  0.18766  0.84794     H
H      0.07648  0.81234  0.15206     H
H      0.07648  0.81234  0.84794     H
H      0.07648  0.84794  0.18766     H
H      0.07648  0.84794  0.81234     H
O       0.0814  0.20754  0.29973     O
O       0.0814  0.20754  0.70027     O
O       0.0814  0.29973  0.20754     O
O       0.0814  0.29973  0.79246     O
O       0.0814  0.70027  0.20754     O
O       0.0814  0.70027  0.79246     O
O       0.0814  0.79246  0.29973     O
O       0.0814  0.79246  0.70027     O
C      0.08643  0.19351  0.47717     C
C      0.08643  0.19351  0.52283     C
C      0.08643  0.47717  0.19351     C
C      0.08643  0.47717  0.80649     C
C      0.08643  0.52283  0.19351     C
C      0.08643  0.52283  0.80649     C
C      0.08643  0.80649  0.47717     C
C      0.08643  0.80649  0.52283     C
H      0.08704  0.30672  0.30672     H
H      0.08704  0.30672  0.69328     H
H      0.08704  0.69328  0.30672     H
H      0.08704  0.69328  0.69328     H
O       0.0896  0.33007  0.44131     O
O       0.0896  0.33007  0.55869     O
O       0.0896  0.44131  0.33007     O
O       0.0896  0.44131  0.66993     O
O       0.0896  0.55869  0.33007     O
O       0.0896  0.55869  0.66993     O
O       0.0896  0.66993  0.44131     O
O       0.0896  0.66993  0.55869     O
H      0.09877  0.02518  0.18448     H
H      0.09877  0.02518  0.81552     H
H      0.09877  0.18448  0.02518     H
H      0.09877  0.18448  0.97482     H
H      0.09877  0.81552  0.02518     H
H      0.09877  0.81552  0.97482     H
H      0.09877  0.97482  0.18448     H
H      0.09877  0.97482  0.81552     H
C      0.10117  0.33001  0.33001     C
C      0.10117  0.33001  0.66999     C
C      0.10117  0.66999  0.33001     C
C      0.10117  0.66999  0.66999     C
N      0.10417  0.23149  0.46303     N
N      0.10417  0.23149  0.53697     N
N      0.10417  0.46303  0.23149     N
N      0.10417  0.46303  0.76851     N
N      0.10417  0.53697  0.23149     N
N      0.10417  0.53697  0.76851     N
N      0.10417  0.76851  0.46303     N
N      0.10417  0.76851  0.53697     N
In     0.10506     0.25  0.39494    In
In     0.10506     0.25  0.60506    In
In     0.10506  0.39494     0.25    In
In     0.10506  0.39494     0.75    In
In     0.10506  0.60506     0.25    In
In     0.10506  0.60506     0.75    In
In     0.10506     0.75  0.39494    In
In     0.10506     0.75  0.60506    In
O      0.10976      0.0   0.1682     O
O      0.10976      0.0   0.8318     O
O      0.10976   0.1682      0.0     O
O      0.10976   0.8318      0.0     O
C      0.11507  0.25304      0.5     C
C      0.11507      0.5  0.25304     C
C      0.11507      0.5  0.74696     C
C      0.11507  0.74696      0.5     C
C      0.11803  0.19082  0.29213     C
C      0.11803  0.19082  0.70787     C
C      0.11803  0.29213  0.19082     C
C      0.11803  0.29213  0.80918     C
C      0.11803  0.70787  0.19082     C
C      0.11803  0.70787  0.80918     C
C      0.11803  0.80918  0.29213     C
C      0.11803  0.80918  0.70787     C
O      0.12374  0.05981  0.46185     O
O      0.12374  0.05981  0.53815     O
O      0.12374  0.46185  0.05981     O
O      0.12374  0.46185  0.94019     O
O      0.12374  0.53815  0.05981     O
O      0.12374  0.53815  0.94019     O
O      0.12374  0.94019  0.46185     O
O      0.12374  0.94019  0.53815     O
N      0.12893  0.30687  0.36094     N
N      0.12893  0.30687  0.63906     N
N      0.12893  0.36094  0.30687     N
N      0.12893  0.36094  0.69313     N
N      0.12893  0.63906  0.30687     N
N      0.12893  0.63906  0.69313     N
N      0.12893  0.69313  0.36094     N
N      0.12893  0.69313  0.63906     N
H      0.12936  0.28484      0.5     H
H      0.12936      0.5  0.28484     H
H      0.12936      0.5  0.71516     H
H      0.12936  0.71516      0.5     H
O       0.1308  0.18816  0.25339     O
O       0.1308  0.18816  0.74661     O
O       0.1308  0.25339  0.18816     O
O       0.1308  0.25339  0.81184     O
O       0.1308  0.74661  0.18816     O
O       0.1308  0.74661  0.81184     O
O       0.1308  0.81184  0.25339     O
O       0.1308  0.81184  0.74661     O
N      0.13906  0.19313  0.37107     N
N      0.13906  0.19313  0.62893     N
N      0.13906  0.37107  0.19313     N
N      0.13906  0.37107  0.80687     N
N      0.13906  0.62893  0.19313     N
N      0.13906  0.62893  0.80687     N
N      0.13906  0.80687  0.37107     N
N      0.13906  0.80687  0.62893     N
C      0.14532  0.17629  0.32854     C
C      0.14532  0.17629  0.67146     C
C      0.14532  0.32854  0.17629     C
C      0.14532  0.32854  0.82371     C
C      0.14532  0.67146  0.17629     C
C      0.14532  0.67146  0.82371     C
C      0.14532  0.82371  0.32854     C
C      0.14532  0.82371  0.67146     C
H      0.15087  0.02518  0.24745     H
H      0.15087  0.02518  0.75255     H
H      0.15087  0.24745  0.02518     H
H      0.15087  0.24745  0.97482     H
H      0.15087  0.75255  0.02518     H
H      0.15087  0.75255  0.97482     H
H      0.15087  0.97482  0.24745     H
H      0.15087  0.97482  0.75255     H
H      0.15206  0.07648  0.18766     H
H      0.15206  0.07648  0.81234     H
H      0.15206  0.18766  0.07648     H
H      0.15206  0.18766  0.92352     H
H      0.15206  0.81234  0.07648     H
H      0.15206  0.81234  0.92352     H
H      0.15206  0.92352  0.18766     H
H      0.15206  0.92352  0.81234     H
C      0.16164  0.06791  0.44927     C
C      0.16164  0.06791  0.55073     C
C      0.16164  0.44927  0.06791     C
C      0.16164  0.44927  0.93209     C
C      0.16164  0.55073  0.06791     C
C      0.16164  0.55073  0.93209     C
C      0.16164  0.93209  0.44927     C
C      0.16164  0.93209  0.55073     C
O       0.1682      0.0  0.10976     O
O       0.1682      0.0  0.89024     O
O       0.1682  0.10976      0.0     O
O       0.1682  0.89024      0.0     O
O      0.16891      0.0  0.23967     O
O      0.16891      0.0  0.76033     O
O      0.16891  0.23967      0.0     O
O      0.16891  0.76033      0.0     O
O      0.16993  0.05869   0.4104     O
O      0.16993  0.05869   0.5896     O
O      0.16993   0.4104  0.05869     O
O      0.16993   0.4104  0.94131     O
O      0.16993   0.5896  0.05869     O
O      0.16993   0.5896  0.94131     O
O      0.16993  0.94131   0.4104     O
O      0.16993  0.94131   0.5896     O
C      0.16999  0.16999  0.39883     C
C      0.16999  0.16999  0.60117     C
C      0.16999  0.39883  0.16999     C
C      0.16999  0.39883  0.83001     C
C      0.16999  0.60117  0.16999     C
C      0.16999  0.60117  0.83001     C
C      0.16999  0.83001  0.39883     C
C      0.16999  0.83001  0.60117     C
C      0.17146  0.32371  0.35468     C
C      0.17146  0.32371  0.64532     C
C      0.17146  0.35468  0.32371     C
C      0.17146  0.35468  0.67629     C
C      0.17146  0.64532  0.32371     C
C      0.17146  0.64532  0.67629     C
C      0.17146  0.67629  0.35468     C
C      0.17146  0.67629  0.64532     C
Mg      0.1747      0.0   0.1747    Mg
Mg      0.1747      0.0   0.8253    Mg
Mg      0.1747   0.1747      0.0    Mg
Mg      0.1747   0.8253      0.0    Mg
C      0.17629  0.14532  0.32854     C
C      0.17629  0.14532  0.67146     C
C      0.17629  0.32854  0.14532     C
C      0.17629  0.32854  0.85468     C
C      0.17629  0.67146  0.14532     C
C      0.17629  0.67146  0.85468     C
C      0.17629  0.85468  0.32854     C
C      0.17629  0.85468  0.67146     C
O      0.18097  0.06473  0.18097     O
O      0.18097  0.06473  0.81903     O
O      0.18097  0.18097  0.06473     O
O      0.18097  0.18097  0.93527     O
O      0.18097  0.81903  0.06473     O
O      0.18097  0.81903  0.93527     O
O      0.18097  0.93527  0.18097     O
O      0.18097  0.93527  0.81903     O
H      0.18448  0.02518  0.09877     H
H      0.18448  0.02518  0.90123     H
H      0.18448  0.09877  0.02518     H
H      0.18448  0.09877  0.97482     H
H      0.18448  0.90123  0.02518     H
H      0.18448  0.90123  0.97482     H
H      0.18448  0.97482  0.09877     H
H      0.18448  0.97482  0.90123     H
H      0.18766  0.07648  0.15206     H
H      0.18766  0.07648  0.84794     H
H      0.18766  0.15206  0.07648     H
H      0.18766  0.15206  0.92352     H
H      0.18766  0.84794  0.07648     H
H      0.18766  0.84794  0.92352     H
H      0.18766  0.92352  0.15206     H
H      0.18766  0.92352  0.84794     H
O      0.18816   0.1308  0.25339     O
O      0.18816   0.1308  0.74661     O
O      0.18816  0.25339   0.1308     O
O      0.18816  0.25339   0.8692     O
O      0.18816  0.74661   0.1308     O
O      0.18816  0.74661   0.8692     O
O      0.18816   0.8692  0.25339     O
O      0.18816   0.8692  0.74661     O
C      0.19082  0.11803  0.29213     C
C      0.19082  0.11803  0.70787     C
C      0.19082  0.29213  0.11803     C
C      0.19082  0.29213  0.88197     C
C      0.19082  0.70787  0.11803     C
C      0.19082  0.70787  0.88197     C
C      0.19082  0.88197  0.29213     C
C      0.19082  0.88197  0.70787     C
N      0.19313  0.13906  0.37107     N
N      0.19313  0.13906  0.62893     N
N      0.19313  0.37107  0.13906     N
N      0.19313  0.37107  0.86094     N
N      0.19313  0.62893  0.13906     N
N      0.19313  0.62893  0.86094     N
N      0.19313  0.86094  0.37107     N
N      0.19313  0.86094  0.62893     N
H      0.19328  0.19328  0.41296     H
H      0.19328  0.19328  0.58704     H
H      0.19328  0.41296  0.19328     H
H      0.19328  0.41296  0.80672     H
H      0.19328  0.58704  0.19328     H
H      0.19328  0.58704  0.80672     H
H      0.19328  0.80672  0.41296     H
H      0.19328  0.80672  0.58704     H
C      0.19351  0.08643  0.47717     C
C      0.19351  0.08643  0.52283     C
C      0.19351  0.47717  0.08643     C
C      0.19351  0.47717  0.91357     C
C      0.19351  0.52283  0.08643     C
C      0.19351  0.52283  0.91357     C
C      0.19351  0.91357  0.47717     C
C      0.19351  0.91357  0.52283     C
O      0.20027  0.29246   0.4186     O
O      0.20027  0.29246   0.5814     O
O      0.20027   0.4186  0.29246     O
O      0.20027   0.4186  0.70754     O
O      0.20027   0.5814  0.29246     O
O      0.20027   0.5814  0.70754     O
O      0.20027  0.70754   0.4186     O
O      0.20027  0.70754   0.5814     O
O      0.20754   0.0814  0.29973     O
O      0.20754   0.0814  0.70027     O
O      0.20754  0.29973   0.0814     O
O      0.20754  0.29973   0.9186     O
O      0.20754  0.70027   0.0814     O
O      0.20754  0.70027   0.9186     O
O      0.20754   0.9186  0.29973     O
O      0.20754   0.9186  0.70027     O
C      0.20787  0.30918  0.38197     C
C      0.20787  0.30918  0.61803     C
C      0.20787  0.38197  0.30918     C
C      0.20787  0.38197  0.69082     C
C      0.20787  0.61803  0.30918     C
C      0.20787  0.61803  0.69082     C
C      0.20787  0.69082  0.38197     C
C      0.20787  0.69082  0.61803     C
H      0.21516      0.0  0.37064     H
H      0.21516      0.0  0.62936     H
H      0.21516  0.37064      0.0     H
H      0.21516  0.62936      0.0     H
N      0.23149  0.10417  0.46303     N
N      0.23149  0.10417  0.53697     N
N      0.23149  0.46303  0.10417     N
N      0.23149  0.46303  0.89583     N
N      0.23149  0.53697  0.10417     N
N      0.23149  0.53697  0.89583     N
N      0.23149  0.89583  0.46303     N
N      0.23149  0.89583  0.53697     N
O      0.23967      0.0  0.16891     O
O      0.23967      0.0  0.83109     O
O      0.23967  0.16891      0.0     O
O      0.23967  0.83109      0.0     O
O      0.24661  0.31184   0.3692     O
O      0.24661  0.31184   0.6308     O
O      0.24661   0.3692  0.31184     O
O      0.24661   0.3692  0.68816     O
O      0.24661   0.6308  0.31184     O
O      0.24661   0.6308  0.68816     O
O      0.24661  0.68816   0.3692     O
O      0.24661  0.68816   0.6308     O
C      0.24696      0.0  0.38493     C
C      0.24696      0.0  0.61507     C
C      0.24696  0.38493      0.0     C
C      0.24696  0.61507      0.0     C
H      0.24745  0.02518  0.15087     H
H      0.24745  0.02518  0.84913     H
H      0.24745  0.15087  0.02518     H
H      0.24745  0.15087  0.97482     H
H      0.24745  0.84913  0.02518     H
H      0.24745  0.84913  0.97482     H
H      0.24745  0.97482  0.15087     H
H      0.24745  0.97482  0.84913     H
In        0.25  0.10506  0.39494    In
In        0.25  0.10506  0.60506    In
In        0.25  0.39494  0.10506    In
In        0.25  0.39494  0.89494    In
In        0.25  0.60506  0.10506    In
In        0.25  0.60506  0.89494    In
In        0.25  0.89494  0.39494    In
In        0.25  0.89494  0.60506    In
H      0.25255  0.34913  0.47482     H
H      0.25255  0.34913  0.52518     H
H      0.25255  0.47482  0.34913     H
H      0.25255  0.47482  0.65087     H
H      0.25255  0.52518  0.34913     H
H      0.25255  0.52518  0.65087     H
H      0.25255  0.65087  0.47482     H
H      0.25255  0.65087  0.52518     H
C      0.25304  0.11507      0.5     C
C      0.25304      0.5  0.11507     C
C      0.25304      0.5  0.88493     C
C      0.25304  0.88493      0.5     C
O      0.25339   0.1308  0.18816     O
O      0.25339   0.1308  0.81184     O
O      0.25339  0.18816   0.1308     O
O      0.25339  0.18816   0.8692     O
O      0.25339  0.81184   0.1308     O
O      0.25339  0.81184   0.8692     O
O      0.25339   0.8692  0.18816     O
O      0.25339   0.8692  0.81184     O
O      0.26033  0.33109      0.5     O
O      0.26033      0.5  0.33109     O
O      0.26033      0.5  0.66891     O
O      0.26033  0.66891      0.5     O
N      0.26851  0.03697  0.39583     N
N      0.26851  0.03697  0.60417     N
N      0.26851  0.39583  0.03697     N
N      0.26851  0.39583  0.96303     N
N      0.26851  0.60417  0.03697     N
N      0.26851  0.60417  0.96303     N
N      0.26851  0.96303  0.39583     N
N      0.26851  0.96303  0.60417     N
H      0.28484  0.12936      0.5     H
H      0.28484      0.5  0.12936     H
H      0.28484      0.5  0.87064     H
H      0.28484  0.87064      0.5     H
C      0.29213  0.11803  0.19082     C
C      0.29213  0.11803  0.80918     C
C      0.29213  0.19082  0.11803     C
C      0.29213  0.19082  0.88197     C
C      0.29213  0.80918  0.11803     C
C      0.29213  0.80918  0.88197     C
C      0.29213  0.88197  0.19082     C
C      0.29213  0.88197  0.80918     C
O      0.29246  0.20027   0.4186     O
O      0.29246  0.20027   0.5814     O
O      0.29246   0.4186  0.20027     O
O      0.29246   0.4186  0.79973     O
O      0.29246   0.5814  0.20027     O
O      0.29246   0.5814  0.79973     O
O      0.29246  0.79973   0.4186     O
O      0.29246  0.79973   0.5814     O
O      0.29973   0.0814  0.20754     O
O      0.29973   0.0814  0.79246     O
O      0.29973  0.20754   0.0814     O
O      0.29973  0.20754   0.9186     O
O      0.29973  0.79246   0.0814     O
O      0.29973  0.79246   0.9186     O
O      0.29973   0.9186  0.20754     O
O      0.29973   0.9186  0.79246     O
C      0.30649  0.02283  0.41357     C
C      0.30649  0.02283  0.58643     C
C      0.30649  0.41357  0.02283     C
C      0.30649  0.41357  0.97717     C
C      0.30649  0.58643  0.02283     C
C      0.30649  0.58643  0.97717     C
C      0.30649  0.97717  0.41357     C
C      0.30649  0.97717  0.58643     C
H      0.30672  0.08704  0.30672     H
H      0.30672  0.08704  0.69328     H
H      0.30672  0.30672  0.08704     H
H      0.30672  0.30672  0.91296     H
H      0.30672  0.69328  0.08704     H
H      0.30672  0.69328  0.91296     H
H      0.30672  0.91296  0.30672     H
H      0.30672  0.91296  0.69328     H
N      0.30687  0.12893  0.36094     N
N      0.30687  0.12893  0.63906     N
N      0.30687  0.36094  0.12893     N
N      0.30687  0.36094  0.87107     N
N      0.30687  0.63906  0.12893     N
N      0.30687  0.63906  0.87107     N
N      0.30687  0.87107  0.36094     N
N      0.30687  0.87107  0.63906     N
C      0.30918  0.20787  0.38197     C
C      0.30918  0.20787  0.61803     C
C      0.30918  0.38197  0.20787     C
C      0.30918  0.38197  0.79213     C
C      0.30918  0.61803  0.20787     C
C      0.30918  0.61803  0.79213     C
C      0.30918  0.79213  0.38197     C
C      0.30918  0.79213  0.61803     C
O      0.31184  0.24661   0.3692     O
O      0.31184  0.24661   0.6308     O
O      0.31184   0.3692  0.24661     O
O      0.31184   0.3692  0.75339     O
O      0.31184   0.6308  0.24661     O
O      0.31184   0.6308  0.75339     O
O      0.31184  0.75339   0.3692     O
O      0.31184  0.75339   0.6308     O
H      0.31234  0.34794  0.42352     H
H      0.31234  0.34794  0.57648     H
H      0.31234  0.42352  0.34794     H
H      0.31234  0.42352  0.65206     H
H      0.31234  0.57648  0.34794     H
H      0.31234  0.57648  0.65206     H
H      0.31234  0.65206  0.42352     H
H      0.31234  0.65206  0.57648     H
H      0.31552  0.40123  0.47482     H
H      0.31552  0.40123  0.52518     H
H      0.31552  0.47482  0.40123     H
H      0.31552  0.47482  0.59877     H
H      0.31552  0.52518  0.40123     H
H      0.31552  0.52518  0.59877     H
H      0.31552  0.59877  0.47482     H
H      0.31552  0.59877  0.52518     H
O      0.31903  0.31903  0.43527     O
O      0.31903  0.31903  0.56473     O
O      0.31903  0.43527  0.31903     O
O      0.31903  0.43527  0.68097     O
O      0.31903  0.56473  0.31903     O
O      0.31903  0.56473  0.68097     O
O      0.31903  0.68097  0.43527     O
O      0.31903  0.68097  0.56473     O
C      0.32371  0.17146  0.35468     C
C      0.32371  0.17146  0.64532     C
C      0.32371  0.35468  0.17146     C
C      0.32371  0.35468  0.82854     C
C      0.32371  0.64532  0.17146     C
C      0.32371  0.64532  0.82854     C
C      0.32371  0.82854  0.35468     C
C      0.32371  0.82854  0.64532     C
Mg      0.3253   0.3253      0.5    Mg
Mg      0.3253      0.5   0.3253    Mg
Mg      0.3253      0.5   0.6747    Mg
Mg      0.3253   0.6747      0.5    Mg
C      0.32854  0.14532  0.17629     C
C      0.32854  0.14532  0.82371     C
C      0.32854  0.17629  0.14532     C
C      0.32854  0.17629  0.85468     C
C      0.32854  0.82371  0.14532     C
C      0.32854  0.82371  0.85468     C
C      0.32854  0.85468  0.17629     C
C      0.32854  0.85468  0.82371     C
C      0.33001  0.10117  0.33001     C
C      0.33001  0.10117  0.66999     C
C      0.33001  0.33001  0.10117     C
C      0.33001  0.33001  0.89883     C
C      0.33001  0.66999  0.10117     C
C      0.33001  0.66999  0.89883     C
C      0.33001  0.89883  0.33001     C
C      0.33001  0.89883  0.66999     C
O      0.33007   0.0896  0.44131     O
O      0.33007   0.0896  0.55869     O
O      0.33007  0.44131   0.0896     O
O      0.33007  0.44131   0.9104     O
O      0.33007  0.55869   0.0896     O
O      0.33007  0.55869   0.9104     O
O      0.33007   0.9104  0.44131     O
O      0.33007   0.9104  0.55869     O
O      0.33109  0.26033      0.5     O
O      0.33109      0.5  0.26033     O
O      0.33109      0.5  0.73967     O
O      0.33109  0.73967      0.5     O
O       0.3318  0.39024      0.5     O
O       0.3318      0.5  0.39024     O
O       0.3318      0.5  0.60976     O
O       0.3318  0.60976      0.5     O
C      0.33836  0.05073  0.43209     C
C      0.33836  0.05073  0.56791     C
C      0.33836  0.43209  0.05073     C
C      0.33836  0.43209  0.94927     C
C      0.33836  0.56791  0.05073     C
C      0.33836  0.56791  0.94927     C
C      0.33836  0.94927  0.43209     C
C      0.33836  0.94927  0.56791     C
H      0.34794  0.31234  0.42352     H
H      0.34794  0.31234  0.57648     H
H      0.34794  0.42352  0.31234     H
H      0.34794  0.42352  0.68766     H
H      0.34794  0.57648  0.31234     H
H      0.34794  0.57648  0.68766     H
H      0.34794  0.68766  0.42352     H
H      0.34794  0.68766  0.57648     H
H      0.34913  0.25255  0.47482     H
H      0.34913  0.25255  0.52518     H
H      0.34913  0.47482  0.25255     H
H      0.34913  0.47482  0.74745     H
H      0.34913  0.52518  0.25255     H
H      0.34913  0.52518  0.74745     H
H      0.34913  0.74745  0.47482     H
H      0.34913  0.74745  0.52518     H
C      0.35468  0.17146  0.32371     C
C      0.35468  0.17146  0.67629     C
C      0.35468  0.32371  0.17146     C
C      0.35468  0.32371  0.82854     C
C      0.35468  0.67629  0.17146     C
C      0.35468  0.67629  0.82854     C
C      0.35468  0.82854  0.32371     C
C      0.35468  0.82854  0.67629     C
N      0.36094  0.12893  0.30687     N
N      0.36094  0.12893  0.69313     N
N      0.36094  0.30687  0.12893     N
N      0.36094  0.30687  0.87107     N
N      0.36094  0.69313  0.12893     N
N      0.36094  0.69313  0.87107     N
N      0.36094  0.87107  0.30687     N
N      0.36094  0.87107  0.69313     N
O       0.3692  0.24661  0.31184     O
O       0.3692  0.24661  0.68816     O
O       0.3692  0.31184  0.24661     O
O       0.3692  0.31184  0.75339     O
O       0.3692  0.68816  0.24661     O
O       0.3692  0.68816  0.75339     O
O       0.3692  0.75339  0.31184     O
O       0.3692  0.75339  0.68816     O
H      0.37064      0.0  0.21516     H
H      0.37064      0.0  0.78484     H
H      0.37064  0.21516      0.0     H
H      0.37064  0.78484      0.0     H
N      0.37107  0.13906  0.19313     N
N      0.37107  0.13906  0.80687     N
N      0.37107  0.19313  0.13906     N
N      0.37107  0.19313  0.86094     N
N      0.37107  0.80687  0.13906     N
N      0.37107  0.80687  0.86094     N
N      0.37107  0.86094  0.19313     N
N      0.37107  0.86094  0.80687     N
O      0.37626  0.03815  0.44019     O
O      0.37626  0.03815  0.55981     O
O      0.37626  0.44019  0.03815     O
O      0.37626  0.44019  0.96185     O
O      0.37626  0.55981  0.03815     O
O      0.37626  0.55981  0.96185     O
O      0.37626  0.96185  0.44019     O
O      0.37626  0.96185  0.55981     O
C      0.38197  0.20787  0.30918     C
C      0.38197  0.20787  0.69082     C
C      0.38197  0.30918  0.20787     C
C      0.38197  0.30918  0.79213     C
C      0.38197  0.69082  0.20787     C
C      0.38197  0.69082  0.79213     C
C      0.38197  0.79213  0.30918     C
C      0.38197  0.79213  0.69082     C
C      0.38493      0.0  0.24696     C
C      0.38493      0.0  0.75304     C
C      0.38493  0.24696      0.0     C
C      0.38493  0.75304      0.0     C
O      0.39024   0.3318      0.5     O
O      0.39024      0.5   0.3318     O
O      0.39024      0.5   0.6682     O
O      0.39024   0.6682      0.5     O
In     0.39494  0.10506     0.25    In
In     0.39494  0.10506     0.75    In
In     0.39494     0.25  0.10506    In
In     0.39494     0.25  0.89494    In
In     0.39494     0.75  0.10506    In
In     0.39494     0.75  0.89494    In
In     0.39494  0.89494     0.25    In
In     0.39494  0.89494     0.75    In
N      0.39583  0.03697  0.26851     N
N      0.39583  0.03697  0.73149     N
N      0.39583  0.26851  0.03697     N
N      0.39583  0.26851  0.96303     N
N      0.39583  0.73149  0.03697     N
N      0.39583  0.73149  0.96303     N
N      0.39583  0.96303  0.26851     N
N      0.39583  0.96303  0.73149     N
C      0.39883  0.16999  0.16999     C
C      0.39883  0.16999  0.83001     C
C      0.39883  0.83001  0.16999     C
C      0.39883  0.83001  0.83001     C
H      0.40123  0.31552  0.47482     H
H      0.40123  0.31552  0.52518     H
H      0.40123  0.47482  0.31552     H
H      0.40123  0.47482  0.68448     H
H      0.40123  0.52518  0.31552     H
H      0.40123  0.52518  0.68448     H
H      0.40123  0.68448  0.47482     H
H      0.40123  0.68448  0.52518     H
O       0.4104  0.05869  0.16993     O
O       0.4104  0.05869  0.83007     O
O       0.4104  0.16993  0.05869     O
O       0.4104  0.16993  0.94131     O
O       0.4104  0.83007  0.05869     O
O       0.4104  0.83007  0.94131     O
O       0.4104  0.94131  0.16993     O
O       0.4104  0.94131  0.83007     O
H      0.41296  0.19328  0.19328     H
H      0.41296  0.19328  0.80672     H
H      0.41296  0.80672  0.19328     H
H      0.41296  0.80672  0.80672     H
C      0.41357  0.02283  0.30649     C
C      0.41357  0.02283  0.69351     C
C      0.41357  0.30649  0.02283     C
C      0.41357  0.30649  0.97717     C
C      0.41357  0.69351  0.02283     C
C      0.41357  0.69351  0.97717     C
C      0.41357  0.97717  0.30649     C
C      0.41357  0.97717  0.69351     C
O       0.4186  0.20027  0.29246     O
O       0.4186  0.20027  0.70754     O
O       0.4186  0.29246  0.20027     O
O       0.4186  0.29246  0.79973     O
O       0.4186  0.70754  0.20027     O
O       0.4186  0.70754  0.79973     O
O       0.4186  0.79973  0.29246     O
O       0.4186  0.79973  0.70754     O
H      0.42352  0.31234  0.34794     H
H      0.42352  0.31234  0.65206     H
H      0.42352  0.34794  0.31234     H
H      0.42352  0.34794  0.68766     H
H      0.42352  0.65206  0.31234     H
H      0.42352  0.65206  0.68766     H
H      0.42352  0.68766  0.34794     H
H      0.42352  0.68766  0.65206     H
C      0.43209  0.05073  0.33836     C
C      0.43209  0.05073  0.66164     C
C      0.43209  0.33836  0.05073     C
C      0.43209  0.33836  0.94927     C
C      0.43209  0.66164  0.05073     C
C      0.43209  0.66164  0.94927     C
C      0.43209  0.94927  0.33836     C
C      0.43209  0.94927  0.66164     C
O      0.43527  0.31903  0.31903     O
O      0.43527  0.31903  0.68097     O
O      0.43527  0.68097  0.31903     O
O      0.43527  0.68097  0.68097     O
O      0.44019  0.03815  0.37626     O
O      0.44019  0.03815  0.62374     O
O      0.44019  0.37626  0.03815     O
O      0.44019  0.37626  0.96185     O
O      0.44019  0.62374  0.03815     O
O      0.44019  0.62374  0.96185     O
O      0.44019  0.96185  0.37626     O
O      0.44019  0.96185  0.62374     O
O      0.44131   0.0896  0.33007     O
O      0.44131   0.0896  0.66993     O
O      0.44131  0.33007   0.0896     O
O      0.44131  0.33007   0.9104     O
O      0.44131  0.66993   0.0896     O
O      0.44131  0.66993   0.9104     O
O      0.44131   0.9104  0.33007     O
O      0.44131   0.9104  0.66993     O
C      0.44927  0.06791  0.16164     C
C      0.44927  0.06791  0.83836     C
C      0.44927  0.16164  0.06791     C
C      0.44927  0.16164  0.93209     C
C      0.44927  0.83836  0.06791     C
C      0.44927  0.83836  0.93209     C
C      0.44927  0.93209  0.16164     C
C      0.44927  0.93209  0.83836     C
O      0.46185  0.05981  0.12374     O
O      0.46185  0.05981  0.87626     O
O      0.46185  0.12374  0.05981     O
O      0.46185  0.12374  0.94019     O
O      0.46185  0.87626  0.05981     O
O      0.46185  0.87626  0.94019     O
O      0.46185  0.94019  0.12374     O
O      0.46185  0.94019  0.87626     O
N      0.46303  0.10417  0.23149     N
N      0.46303  0.10417  0.76851     N
N      0.46303  0.23149  0.10417     N
N      0.46303  0.23149  0.89583     N
N      0.46303  0.76851  0.10417     N
N      0.46303  0.76851  0.89583     N
N      0.46303  0.89583  0.23149     N
N      0.46303  0.89583  0.76851     N
H      0.47482  0.25255  0.34913     H
H      0.47482  0.25255  0.65087     H
H      0.47482  0.31552  0.40123     H
H      0.47482  0.31552  0.59877     H
H      0.47482  0.34913  0.25255     H
H      0.47482  0.34913  0.74745     H
H      0.47482  0.40123  0.31552     H
H      0.47482  0.40123  0.68448     H
H      0.47482  0.59877  0.31552     H
H      0.47482  0.59877  0.68448     H
H      0.47482  0.65087  0.25255     H
H      0.47482  0.65087  0.74745     H
H      0.47482  0.68448  0.40123     H
H      0.47482  0.68448  0.59877     H
H      0.47482  0.74745  0.34913     H
H      0.47482  0.74745  0.65087     H
C      0.47717  0.08643  0.19351     C
C      0.47717  0.08643  0.80649     C
C      0.47717  0.19351  0.08643     C
C      0.47717  0.19351  0.91357     C
C      0.47717  0.80649  0.08643     C
C      0.47717  0.80649  0.91357     C
C      0.47717  0.91357  0.19351     C
C      0.47717  0.91357  0.80649     C
C          0.5  0.11507  0.25304     C
C          0.5  0.11507  0.74696     C
H          0.5  0.12936  0.28484     H
H          0.5  0.12936  0.71516     H
C          0.5  0.25304  0.11507     C
C          0.5  0.25304  0.88493     C
O          0.5  0.26033  0.33109     O
O          0.5  0.26033  0.66891     O
H          0.5  0.28484  0.12936     H
H          0.5  0.28484  0.87064     H
Mg         0.5   0.3253   0.3253    Mg
Mg         0.5   0.3253   0.6747    Mg
O          0.5  0.33109  0.26033     O
O          0.5  0.33109  0.73967     O
O          0.5   0.3318  0.39024     O
O          0.5   0.3318  0.60976     O
O          0.5  0.39024   0.3318     O
O          0.5  0.39024   0.6682     O
O          0.5  0.60976   0.3318     O
O          0.5  0.60976   0.6682     O
O          0.5   0.6682  0.39024     O
O          0.5   0.6682  0.60976     O
O          0.5  0.66891  0.26033     O
O          0.5  0.66891  0.73967     O
Mg         0.5   0.6747   0.3253    Mg
Mg         0.5   0.6747   0.6747    Mg
H          0.5  0.71516  0.12936     H
H          0.5  0.71516  0.87064     H
O          0.5  0.73967  0.33109     O
O          0.5  0.73967  0.66891     O
C          0.5  0.74696  0.11507     C
C          0.5  0.74696  0.88493     C
H          0.5  0.87064  0.28484     H
H          0.5  0.87064  0.71516     H
C          0.5  0.88493  0.25304     C
C          0.5  0.88493  0.74696     C
C      0.52283  0.08643  0.19351     C
C      0.52283  0.08643  0.80649     C
C      0.52283  0.19351  0.08643     C
C      0.52283  0.19351  0.91357     C
C      0.52283  0.80649  0.08643     C
C      0.52283  0.80649  0.91357     C
C      0.52283  0.91357  0.19351     C
C      0.52283  0.91357  0.80649     C
H      0.52518  0.25255  0.34913     H
H      0.52518  0.25255  0.65087     H
H      0.52518  0.31552  0.40123     H
H      0.52518  0.31552  0.59877     H
H      0.52518  0.34913  0.25255     H
H      0.52518  0.34913  0.74745     H
H      0.52518  0.40123  0.31552     H
H      0.52518  0.40123  0.68448     H
H      0.52518  0.59877  0.31552     H
H      0.52518  0.59877  0.68448     H
H      0.52518  0.65087  0.25255     H
H      0.52518  0.65087  0.74745     H
H      0.52518  0.68448  0.40123     H
H      0.52518  0.68448  0.59877     H
H      0.52518  0.74745  0.34913     H
H      0.52518  0.74745  0.65087     H
N      0.53697  0.10417  0.23149     N
N      0.53697  0.10417  0.76851     N
N      0.53697  0.23149  0.10417     N
N      0.53697  0.23149  0.89583     N
N      0.53697  0.76851  0.10417     N
N      0.53697  0.76851  0.89583     N
N      0.53697  0.89583  0.23149     N
N      0.53697  0.89583  0.76851     N
O      0.53815  0.05981  0.12374     O
O      0.53815  0.05981  0.87626     O
O      0.53815  0.12374  0.05981     O
O      0.53815  0.12374  0.94019     O
O      0.53815  0.87626  0.05981     O
O      0.53815  0.87626  0.94019     O
O      0.53815  0.94019  0.12374     O
O      0.53815  0.94019  0.87626     O
C      0.55073  0.06791  0.16164     C
C      0.55073  0.06791  0.83836     C
C      0.55073  0.16164  0.06791     C
C      0.55073  0.16164  0.93209     C
C      0.55073  0.83836  0.06791     C
C      0.55073  0.83836  0.93209     C
C      0.55073  0.93209  0.16164     C
C      0.55073  0.93209  0.83836     C
O      0.55869   0.0896  0.33007     O
O      0.55869   0.0896  0.66993     O
O      0.55869  0.33007   0.0896     O
O      0.55869  0.33007   0.9104     O
O      0.55869  0.66993   0.0896     O
O      0.55869  0.66993   0.9104     O
O      0.55869   0.9104  0.33007     O
O      0.55869   0.9104  0.66993     O
O      0.55981  0.03815  0.37626     O
O      0.55981  0.03815  0.62374     O
O      0.55981  0.37626  0.03815     O
O      0.55981  0.37626  0.96185     O
O      0.55981  0.62374  0.03815     O
O      0.55981  0.62374  0.96185     O
O      0.55981  0.96185  0.37626     O
O      0.55981  0.96185  0.62374     O
O      0.56473  0.31903  0.31903     O
O      0.56473  0.31903  0.68097     O
O      0.56473  0.68097  0.31903     O
O      0.56473  0.68097  0.68097     O
C      0.56791  0.05073  0.33836     C
C      0.56791  0.05073  0.66164     C
C      0.56791  0.33836  0.05073     C
C      0.56791  0.33836  0.94927     C
C      0.56791  0.66164  0.05073     C
C      0.56791  0.66164  0.94927     C
C      0.56791  0.94927  0.33836     C
C      0.56791  0.94927  0.66164     C
H      0.57648  0.31234  0.34794     H
H      0.57648  0.31234  0.65206     H
H      0.57648  0.34794  0.31234     H
H      0.57648  0.34794  0.68766     H
H      0.57648  0.65206  0.31234     H
H      0.57648  0.65206  0.68766     H
H      0.57648  0.68766  0.34794     H
H      0.57648  0.68766  0.65206     H
O       0.5814  0.20027  0.29246     O
O       0.5814  0.20027  0.70754     O
O       0.5814  0.29246  0.20027     O
O       0.5814  0.29246  0.79973     O
O       0.5814  0.70754  0.20027     O
O       0.5814  0.70754  0.79973     O
O       0.5814  0.79973  0.29246     O
O       0.5814  0.79973  0.70754     O
C      0.58643  0.02283  0.30649     C
C      0.58643  0.02283  0.69351     C
C      0.58643  0.30649  0.02283     C
C      0.58643  0.30649  0.97717     C
C      0.58643  0.69351  0.02283     C
C      0.58643  0.69351  0.97717     C
C      0.58643  0.97717  0.30649     C
C      0.58643  0.97717  0.69351     C
H      0.58704  0.19328  0.19328     H
H      0.58704  0.19328  0.80672     H
H      0.58704  0.80672  0.19328     H
H      0.58704  0.80672  0.80672     H
O       0.5896  0.05869  0.16993     O
O       0.5896  0.05869  0.83007     O
O       0.5896  0.16993  0.05869     O
O       0.5896  0.16993  0.94131     O
O       0.5896  0.83007  0.05869     O
O       0.5896  0.83007  0.94131     O
O       0.5896  0.94131  0.16993     O
O       0.5896  0.94131  0.83007     O
H      0.59877  0.31552  0.47482     H
H      0.59877  0.31552  0.52518     H
H      0.59877  0.47482  0.31552     H
H      0.59877  0.47482  0.68448     H
H      0.59877  0.52518  0.31552     H
H      0.59877  0.52518  0.68448     H
H      0.59877  0.68448  0.47482     H
H      0.59877  0.68448  0.52518     H
C      0.60117  0.16999  0.16999     C
C      0.60117  0.16999  0.83001     C
C      0.60117  0.83001  0.16999     C
C      0.60117  0.83001  0.83001     C
N      0.60417  0.03697  0.26851     N
N      0.60417  0.03697  0.73149     N
N      0.60417  0.26851  0.03697     N
N      0.60417  0.26851  0.96303     N
N      0.60417  0.73149  0.03697     N
N      0.60417  0.73149  0.96303     N
N      0.60417  0.96303  0.26851     N
N      0.60417  0.96303  0.73149     N
In     0.60506  0.10506     0.25    In
In     0.60506  0.10506     0.75    In
In     0.60506     0.25  0.10506    In
In     0.60506     0.25  0.89494    In
In     0.60506     0.75  0.10506    In
In     0.60506     0.75  0.89494    In
In     0.60506  0.89494     0.25    In
In     0.60506  0.89494     0.75    In
O      0.60976   0.3318      0.5     O
O      0.60976      0.5   0.3318     O
O      0.60976      0.5   0.6682     O
O      0.60976   0.6682      0.5     O
C      0.61507      0.0  0.24696     C
C      0.61507      0.0  0.75304     C
C      0.61507  0.24696      0.0     C
C      0.61507  0.75304      0.0     C
C      0.61803  0.20787  0.30918     C
C      0.61803  0.20787  0.69082     C
C      0.61803  0.30918  0.20787     C
C      0.61803  0.30918  0.79213     C
C      0.61803  0.69082  0.20787     C
C      0.61803  0.69082  0.79213     C
C      0.61803  0.79213  0.30918     C
C      0.61803  0.79213  0.69082     C
O      0.62374  0.03815  0.44019     O
O      0.62374  0.03815  0.55981     O
O      0.62374  0.44019  0.03815     O
O      0.62374  0.44019  0.96185     O
O      0.62374  0.55981  0.03815     O
O      0.62374  0.55981  0.96185     O
O      0.62374  0.96185  0.44019     O
O      0.62374  0.96185  0.55981     O
N      0.62893  0.13906  0.19313     N
N      0.62893  0.13906  0.80687     N
N      0.62893  0.19313  0.13906     N
N      0.62893  0.19313  0.86094     N
N      0.62893  0.80687  0.13906     N
N      0.62893  0.80687  0.86094     N
N      0.62893  0.86094  0.19313     N
N      0.62893  0.86094  0.80687     N
H      0.62936      0.0  0.21516     H
H      0.62936      0.0  0.78484     H
H      0.62936  0.21516      0.0     H
H      0.62936  0.78484      0.0     H
O       0.6308  0.24661  0.31184     O
O       0.6308  0.24661  0.68816     O
O       0.6308  0.31184  0.24661     O
O       0.6308  0.31184  0.75339     O
O       0.6308  0.68816  0.24661     O
O       0.6308  0.68816  0.75339     O
O       0.6308  0.75339  0.31184     O
O       0.6308  0.75339  0.68816     O
N      0.63906  0.12893  0.30687     N
N      0.63906  0.12893  0.69313     N
N      0.63906  0.30687  0.12893     N
N      0.63906  0.30687  0.87107     N
N      0.63906  0.69313  0.12893     N
N      0.63906  0.69313  0.87107     N
N      0.63906  0.87107  0.30687     N
N      0.63906  0.87107  0.69313     N
C      0.64532  0.17146  0.32371     C
C      0.64532  0.17146  0.67629     C
C      0.64532  0.32371  0.17146     C
C      0.64532  0.32371  0.82854     C
C      0.64532  0.67629  0.17146     C
C      0.64532  0.67629  0.82854     C
C      0.64532  0.82854  0.32371     C
C      0.64532  0.82854  0.67629     C
H      0.65087  0.25255  0.47482     H
H      0.65087  0.25255  0.52518     H
H      0.65087  0.47482  0.25255     H
H      0.65087  0.47482  0.74745     H
H      0.65087  0.52518  0.25255     H
H      0.65087  0.52518  0.74745     H
H      0.65087  0.74745  0.47482     H
H      0.65087  0.74745  0.52518     H
H      0.65206  0.31234  0.42352     H
H      0.65206  0.31234  0.57648     H
H      0.65206  0.42352  0.31234     H
H      0.65206  0.42352  0.68766     H
H      0.65206  0.57648  0.31234     H
H      0.65206  0.57648  0.68766     H
H      0.65206  0.68766  0.42352     H
H      0.65206  0.68766  0.57648     H
C      0.66164  0.05073  0.43209     C
C      0.66164  0.05073  0.56791     C
C      0.66164  0.43209  0.05073     C
C      0.66164  0.43209  0.94927     C
C      0.66164  0.56791  0.05073     C
C      0.66164  0.56791  0.94927     C
C      0.66164  0.94927  0.43209     C
C      0.66164  0.94927  0.56791     C
O       0.6682  0.39024      0.5     O
O       0.6682      0.5  0.39024     O
O       0.6682      0.5  0.60976     O
O       0.6682  0.60976      0.5     O
O      0.66891  0.26033      0.5     O
O      0.66891      0.5  0.26033     O
O      0.66891      0.5  0.73967     O
O      0.66891  0.73967      0.5     O
O      0.66993   0.0896  0.44131     O
O      0.66993   0.0896  0.55869     O
O      0.66993  0.44131   0.0896     O
O      0.66993  0.44131   0.9104     O
O      0.66993  0.55869   0.0896     O
O      0.66993  0.55869   0.9104     O
O      0.66993   0.9104  0.44131     O
O      0.66993   0.9104  0.55869     O
C      0.66999  0.10117  0.33001     C
C      0.66999  0.10117  0.66999     C
C      0.66999  0.33001  0.10117     C
C      0.66999  0.33001  0.89883     C
C      0.66999  0.66999  0.10117     C
C      0.66999  0.66999  0.89883     C
C      0.66999  0.89883  0.33001     C
C      0.66999  0.89883  0.66999     C
C      0.67146  0.14532  0.17629     C
C      0.67146  0.14532  0.82371     C
C      0.67146  0.17629  0.14532     C
C      0.67146  0.17629  0.85468     C
C      0.67146  0.82371  0.14532     C
C      0.67146  0.82371  0.85468     C
C      0.67146  0.85468  0.17629     C
C      0.67146  0.85468  0.82371     C
Mg      0.6747   0.3253      0.5    Mg
Mg      0.6747      0.5   0.3253    Mg
Mg      0.6747      0.5   0.6747    Mg
Mg      0.6747   0.6747      0.5    Mg
C      0.67629  0.17146  0.35468     C
C      0.67629  0.17146  0.64532     C
C      0.67629  0.35468  0.17146     C
C      0.67629  0.35468  0.82854     C
C      0.67629  0.64532  0.17146     C
C      0.67629  0.64532  0.82854     C
C      0.67629  0.82854  0.35468     C
C      0.67629  0.82854  0.64532     C
O      0.68097  0.31903  0.43527     O
O      0.68097  0.31903  0.56473     O
O      0.68097  0.43527  0.31903     O
O      0.68097  0.43527  0.68097     O
O      0.68097  0.56473  0.31903     O
O      0.68097  0.56473  0.68097     O
O      0.68097  0.68097  0.43527     O
O      0.68097  0.68097  0.56473     O
H      0.68448  0.40123  0.47482     H
H      0.68448  0.40123  0.52518     H
H      0.68448  0.47482  0.40123     H
H      0.68448  0.47482  0.59877     H
H      0.68448  0.52518  0.40123     H
H      0.68448  0.52518  0.59877     H
H      0.68448  0.59877  0.47482     H
H      0.68448  0.59877  0.52518     H
H      0.68766  0.34794  0.42352     H
H      0.68766  0.34794  0.57648     H
H      0.68766  0.42352  0.34794     H
H      0.68766  0.42352  0.65206     H
H      0.68766  0.57648  0.34794     H
H      0.68766  0.57648  0.65206     H
H      0.68766  0.65206  0.42352     H
H      0.68766  0.65206  0.57648     H
O      0.68816  0.24661   0.3692     O
O      0.68816  0.24661   0.6308     O
O      0.68816   0.3692  0.24661     O
O      0.68816   0.3692  0.75339     O
O      0.68816   0.6308  0.24661     O
O      0.68816   0.6308  0.75339     O
O      0.68816  0.75339   0.3692     O
O      0.68816  0.75339   0.6308     O
C      0.69082  0.20787  0.38197     C
C      0.69082  0.20787  0.61803     C
C      0.69082  0.38197  0.20787     C
C      0.69082  0.38197  0.79213     C
C      0.69082  0.61803  0.20787     C
C      0.69082  0.61803  0.79213     C
C      0.69082  0.79213  0.38197     C
C      0.69082  0.79213  0.61803     C
N      0.69313  0.12893  0.36094     N
N      0.69313  0.12893  0.63906     N
N      0.69313  0.36094  0.12893     N
N      0.69313  0.36094  0.87107     N
N      0.69313  0.63906  0.12893     N
N      0.69313  0.63906  0.87107     N
N      0.69313  0.87107  0.36094     N
N      0.69313  0.87107  0.63906     N
H      0.69328  0.08704  0.30672     H
H      0.69328  0.08704  0.69328     H
H      0.69328  0.30672  0.08704     H
H      0.69328  0.30672  0.91296     H
H      0.69328  0.69328  0.08704     H
H      0.69328  0.69328  0.91296     H
H      0.69328  0.91296  0.30672     H
H      0.69328  0.91296  0.69328     H
C      0.69351  0.02283  0.41357     C
C      0.69351  0.02283  0.58643     C
C      0.69351  0.41357  0.02283     C
C      0.69351  0.41357  0.97717     C
C      0.69351  0.58643  0.02283     C
C      0.69351  0.58643  0.97717     C
C      0.69351  0.97717  0.41357     C
C      0.69351  0.97717  0.58643     C
O      0.70027   0.0814  0.20754     O
O      0.70027   0.0814  0.79246     O
O      0.70027  0.20754   0.0814     O
O      0.70027  0.20754   0.9186     O
O      0.70027  0.79246   0.0814     O
O      0.70027  0.79246   0.9186     O
O      0.70027   0.9186  0.20754     O
O      0.70027   0.9186  0.79246     O
O      0.70754  0.20027   0.4186     O
O      0.70754  0.20027   0.5814     O
O      0.70754   0.4186  0.20027     O
O      0.70754   0.4186  0.79973     O
O      0.70754   0.5814  0.20027     O
O      0.70754   0.5814  0.79973     O
O      0.70754  0.79973   0.4186     O
O      0.70754  0.79973   0.5814     O
C      0.70787  0.11803  0.19082     C
C      0.70787  0.11803  0.80918     C
C      0.70787  0.19082  0.11803     C
C      0.70787  0.19082  0.88197     C
C      0.70787  0.80918  0.11803     C
C      0.70787  0.80918  0.88197     C
C      0.70787  0.88197  0.19082     C
C      0.70787  0.88197  0.80918     C
H      0.71516  0.12936      0.5     H
H      0.71516      0.5  0.12936     H
H      0.71516      0.5  0.87064     H
H      0.71516  0.87064      0.5     H
N      0.73149  0.03697  0.39583     N
N      0.73149  0.03697  0.60417     N
N      0.73149  0.39583  0.03697     N
N      0.73149  0.39583  0.96303     N
N      0.73149  0.60417  0.03697     N
N      0.73149  0.60417  0.96303     N
N      0.73149  0.96303  0.39583     N
N      0.73149  0.96303  0.60417     N
O      0.73967  0.33109      0.5     O
O      0.73967      0.5  0.33109     O
O      0.73967      0.5  0.66891     O
O      0.73967  0.66891      0.5     O
O      0.74661   0.1308  0.18816     O
O      0.74661   0.1308  0.81184     O
O      0.74661  0.18816   0.1308     O
O      0.74661  0.18816   0.8692     O
O      0.74661  0.81184   0.1308     O
O      0.74661  0.81184   0.8692     O
O      0.74661   0.8692  0.18816     O
O      0.74661   0.8692  0.81184     O
C      0.74696  0.11507      0.5     C
C      0.74696      0.5  0.11507     C
C      0.74696      0.5  0.88493     C
C      0.74696  0.88493      0.5     C
H      0.74745  0.34913  0.47482     H
H      0.74745  0.34913  0.52518     H
H      0.74745  0.47482  0.34913     H
H      0.74745  0.47482  0.65087     H
H      0.74745  0.52518  0.34913     H
H      0.74745  0.52518  0.65087     H
H      0.74745  0.65087  0.47482     H
H      0.74745  0.65087  0.52518     H
In        0.75  0.10506  0.39494    In
In        0.75  0.10506  0.60506    In
In        0.75  0.39494  0.10506    In
In        0.75  0.39494  0.89494    In
In        0.75  0.60506  0.10506    In
In        0.75  0.60506  0.89494    In
In        0.75  0.89494  0.39494    In
In        0.75  0.89494  0.60506    In
H      0.75255  0.02518  0.15087     H
H      0.75255  0.02518  0.84913     H
H      0.75255  0.15087  0.02518     H
H      0.75255  0.15087  0.97482     H
H      0.75255  0.84913  0.02518     H
H      0.75255  0.84913  0.97482     H
H      0.75255  0.97482  0.15087     H
H      0.75255  0.97482  0.84913     H
C      0.75304      0.0  0.38493     C
C      0.75304      0.0  0.61507     C
C      0.75304  0.38493      0.0     C
C      0.75304  0.61507      0.0     C
O      0.75339  0.31184   0.3692     O
O      0.75339  0.31184   0.6308     O
O      0.75339   0.3692  0.31184     O
O      0.75339   0.3692  0.68816     O
O      0.75339   0.6308  0.31184     O
O      0.75339   0.6308  0.68816     O
O      0.75339  0.68816   0.3692     O
O      0.75339  0.68816   0.6308     O
O      0.76033      0.0  0.16891     O
O      0.76033      0.0  0.83109     O
O      0.76033  0.16891      0.0     O
O      0.76033  0.83109      0.0     O
N      0.76851  0.10417  0.46303     N
N      0.76851  0.10417  0.53697     N
N      0.76851  0.46303  0.10417     N
N      0.76851  0.46303  0.89583     N
N      0.76851  0.53697  0.10417     N
N      0.76851  0.53697  0.89583     N
N      0.76851  0.89583  0.46303     N
N      0.76851  0.89583  0.53697     N
H      0.78484      0.0  0.37064     H
H      0.78484      0.0  0.62936     H
H      0.78484  0.37064      0.0     H
H      0.78484  0.62936      0.0     H
C      0.79213  0.30918  0.38197     C
C      0.79213  0.30918  0.61803     C
C      0.79213  0.38197  0.30918     C
C      0.79213  0.38197  0.69082     C
C      0.79213  0.61803  0.30918     C
C      0.79213  0.61803  0.69082     C
C      0.79213  0.69082  0.38197     C
C      0.79213  0.69082  0.61803     C
O      0.79246   0.0814  0.29973     O
O      0.79246   0.0814  0.70027     O
O      0.79246  0.29973   0.0814     O
O      0.79246  0.29973   0.9186     O
O      0.79246  0.70027   0.0814     O
O      0.79246  0.70027   0.9186     O
O      0.79246   0.9186  0.29973     O
O      0.79246   0.9186  0.70027     O
O      0.79973  0.29246   0.4186     O
O      0.79973  0.29246   0.5814     O
O      0.79973   0.4186  0.29246     O
O      0.79973   0.4186  0.70754     O
O      0.79973   0.5814  0.29246     O
O      0.79973   0.5814  0.70754     O
O      0.79973  0.70754   0.4186     O
O      0.79973  0.70754   0.5814     O
C      0.80649  0.08643  0.47717     C
C      0.80649  0.08643  0.52283     C
C      0.80649  0.47717  0.08643     C
C      0.80649  0.47717  0.91357     C
C      0.80649  0.52283  0.08643     C
C      0.80649  0.52283  0.91357     C
C      0.80649  0.91357  0.47717     C
C      0.80649  0.91357  0.52283     C
H      0.80672  0.19328  0.41296     H
H      0.80672  0.19328  0.58704     H
H      0.80672  0.41296  0.19328     H
H      0.80672  0.41296  0.80672     H
H      0.80672  0.58704  0.19328     H
H      0.80672  0.58704  0.80672     H
H      0.80672  0.80672  0.41296     H
H      0.80672  0.80672  0.58704     H
N      0.80687  0.13906  0.37107     N
N      0.80687  0.13906  0.62893     N
N      0.80687  0.37107  0.13906     N
N      0.80687  0.37107  0.86094     N
N      0.80687  0.62893  0.13906     N
N      0.80687  0.62893  0.86094     N
N      0.80687  0.86094  0.37107     N
N      0.80687  0.86094  0.62893     N
C      0.80918  0.11803  0.29213     C
C      0.80918  0.11803  0.70787     C
C      0.80918  0.29213  0.11803     C
C      0.80918  0.29213  0.88197     C
C      0.80918  0.70787  0.11803     C
C      0.80918  0.70787  0.88197     C
C      0.80918  0.88197  0.29213     C
C      0.80918  0.88197  0.70787     C
O      0.81184   0.1308  0.25339     O
O      0.81184   0.1308  0.74661     O
O      0.81184  0.25339   0.1308     O
O      0.81184  0.25339   0.8692     O
O      0.81184  0.74661   0.1308     O
O      0.81184  0.74661   0.8692     O
O      0.81184   0.8692  0.25339     O
O      0.81184   0.8692  0.74661     O
H      0.81234  0.07648  0.15206     H
H      0.81234  0.07648  0.84794     H
H      0.81234  0.15206  0.07648     H
H      0.81234  0.15206  0.92352     H
H      0.81234  0.84794  0.07648     H
H      0.81234  0.84794  0.92352     H
H      0.81234  0.92352  0.15206     H
H      0.81234  0.92352  0.84794     H
H      0.81552  0.02518  0.09877     H
H      0.81552  0.02518  0.90123     H
H      0.81552  0.09877  0.02518     H
H      0.81552  0.09877  0.97482     H
H      0.81552  0.90123  0.02518     H
H      0.81552  0.90123  0.97482     H
H      0.81552  0.97482  0.09877     H
H      0.81552  0.97482  0.90123     H
O      0.81903  0.06473  0.18097     O
O      0.81903  0.06473  0.81903     O
O      0.81903  0.18097  0.06473     O
O      0.81903  0.18097  0.93527     O
O      0.81903  0.81903  0.06473     O
O      0.81903  0.81903  0.93527     O
O      0.81903  0.93527  0.18097     O
O      0.81903  0.93527  0.81903     O
C      0.82371  0.14532  0.32854     C
C      0.82371  0.14532  0.67146     C
C      0.82371  0.32854  0.14532     C
C      0.82371  0.32854  0.85468     C
C      0.82371  0.67146  0.14532     C
C      0.82371  0.67146  0.85468     C
C      0.82371  0.85468  0.32854     C
C      0.82371  0.85468  0.67146     C
Mg      0.8253      0.0   0.1747    Mg
Mg      0.8253      0.0   0.8253    Mg
Mg      0.8253   0.1747      0.0    Mg
Mg      0.8253   0.8253      0.0    Mg
C      0.82854  0.32371  0.35468     C
C      0.82854  0.32371  0.64532     C
C      0.82854  0.35468  0.32371     C
C      0.82854  0.35468  0.67629     C
C      0.82854  0.64532  0.32371     C
C      0.82854  0.64532  0.67629     C
C      0.82854  0.67629  0.35468     C
C      0.82854  0.67629  0.64532     C
C      0.83001  0.16999  0.39883     C
C      0.83001  0.16999  0.60117     C
C      0.83001  0.39883  0.16999     C
C      0.83001  0.39883  0.83001     C
C      0.83001  0.60117  0.16999     C
C      0.83001  0.60117  0.83001     C
C      0.83001  0.83001  0.39883     C
C      0.83001  0.83001  0.60117     C
O      0.83007  0.05869   0.4104     O
O      0.83007  0.05869   0.5896     O
O      0.83007   0.4104  0.05869     O
O      0.83007   0.4104  0.94131     O
O      0.83007   0.5896  0.05869     O
O      0.83007   0.5896  0.94131     O
O      0.83007  0.94131   0.4104     O
O      0.83007  0.94131   0.5896     O
O      0.83109      0.0  0.23967     O
O      0.83109      0.0  0.76033     O
O      0.83109  0.23967      0.0     O
O      0.83109  0.76033      0.0     O
O       0.8318      0.0  0.10976     O
O       0.8318      0.0  0.89024     O
O       0.8318  0.10976      0.0     O
O       0.8318  0.89024      0.0     O
C      0.83836  0.06791  0.44927     C
C      0.83836  0.06791  0.55073     C
C      0.83836  0.44927  0.06791     C
C      0.83836  0.44927  0.93209     C
C      0.83836  0.55073  0.06791     C
C      0.83836  0.55073  0.93209     C
C      0.83836  0.93209  0.44927     C
C      0.83836  0.93209  0.55073     C
H      0.84794  0.07648  0.18766     H
H      0.84794  0.07648  0.81234     H
H      0.84794  0.18766  0.07648     H
H      0.84794  0.18766  0.92352     H
H      0.84794  0.81234  0.07648     H
H      0.84794  0.81234  0.92352     H
H      0.84794  0.92352  0.18766     H
H      0.84794  0.92352  0.81234     H
H      0.84913  0.02518  0.24745     H
H      0.84913  0.02518  0.75255     H
H      0.84913  0.24745  0.02518     H
H      0.84913  0.24745  0.97482     H
H      0.84913  0.75255  0.02518     H
H      0.84913  0.75255  0.97482     H
H      0.84913  0.97482  0.24745     H
H      0.84913  0.97482  0.75255     H
C      0.85468  0.17629  0.32854     C
C      0.85468  0.17629  0.67146     C
C      0.85468  0.32854  0.17629     C
C      0.85468  0.32854  0.82371     C
C      0.85468  0.67146  0.17629     C
C      0.85468  0.67146  0.82371     C
C      0.85468  0.82371  0.32854     C
C      0.85468  0.82371  0.67146     C
N      0.86094  0.19313  0.37107     N
N      0.86094  0.19313  0.62893     N
N      0.86094  0.37107  0.19313     N
N      0.86094  0.37107  0.80687     N
N      0.86094  0.62893  0.19313     N
N      0.86094  0.62893  0.80687     N
N      0.86094  0.80687  0.37107     N
N      0.86094  0.80687  0.62893     N
O       0.8692  0.18816  0.25339     O
O       0.8692  0.18816  0.74661     O
O       0.8692  0.25339  0.18816     O
O       0.8692  0.25339  0.81184     O
O       0.8692  0.74661  0.18816     O
O       0.8692  0.74661  0.81184     O
O       0.8692  0.81184  0.25339     O
O       0.8692  0.81184  0.74661     O
H      0.87064  0.28484      0.5     H
H      0.87064      0.5  0.28484     H
H      0.87064      0.5  0.71516     H
H      0.87064  0.71516      0.5     H
N      0.87107  0.30687  0.36094     N
N      0.87107  0.30687  0.63906     N
N      0.87107  0.36094  0.30687     N
N      0.87107  0.36094  0.69313     N
N      0.87107  0.63906  0.30687     N
N      0.87107  0.63906  0.69313     N
N      0.87107  0.69313  0.36094     N
N      0.87107  0.69313  0.63906     N
O      0.87626  0.05981  0.46185     O
O      0.87626  0.05981  0.53815     O
O      0.87626  0.46185  0.05981     O
O      0.87626  0.46185  0.94019     O
O      0.87626  0.53815  0.05981     O
O      0.87626  0.53815  0.94019     O
O      0.87626  0.94019  0.46185     O
O      0.87626  0.94019  0.53815     O
C      0.88197  0.19082  0.29213     C
C      0.88197  0.19082  0.70787     C
C      0.88197  0.29213  0.19082     C
C      0.88197  0.29213  0.80918     C
C      0.88197  0.70787  0.19082     C
C      0.88197  0.70787  0.80918     C
C      0.88197  0.80918  0.29213     C
C      0.88197  0.80918  0.70787     C
C      0.88493  0.25304      0.5     C
C      0.88493      0.5  0.25304     C
C      0.88493      0.5  0.74696     C
C      0.88493  0.74696      0.5     C
O      0.89024      0.0   0.1682     O
O      0.89024      0.0   0.8318     O
O      0.89024   0.1682      0.0     O
O      0.89024   0.8318      0.0     O
In     0.89494     0.25  0.39494    In
In     0.89494     0.25  0.60506    In
In     0.89494  0.39494     0.25    In
In     0.89494  0.39494     0.75    In
In     0.89494  0.60506     0.25    In
In     0.89494  0.60506     0.75    In
In     0.89494     0.75  0.39494    In
In     0.89494     0.75  0.60506    In
N      0.89583  0.23149  0.46303     N
N      0.89583  0.23149  0.53697     N
N      0.89583  0.46303  0.23149     N
N      0.89583  0.46303  0.76851     N
N      0.89583  0.53697  0.23149     N
N      0.89583  0.53697  0.76851     N
N      0.89583  0.76851  0.46303     N
N      0.89583  0.76851  0.53697     N
C      0.89883  0.33001  0.33001     C
C      0.89883  0.33001  0.66999     C
C      0.89883  0.66999  0.33001     C
C      0.89883  0.66999  0.66999     C
H      0.90123  0.02518  0.18448     H
H      0.90123  0.02518  0.81552     H
H      0.90123  0.18448  0.02518     H
H      0.90123  0.18448  0.97482     H
H      0.90123  0.81552  0.02518     H
H      0.90123  0.81552  0.97482     H
H      0.90123  0.97482  0.18448     H
H      0.90123  0.97482  0.81552     H
O       0.9104  0.33007  0.44131     O
O       0.9104  0.33007  0.55869     O
O       0.9104  0.44131  0.33007     O
O       0.9104  0.44131  0.66993     O
O       0.9104  0.55869  0.33007     O
O       0.9104  0.55869  0.66993     O
O       0.9104  0.66993  0.44131     O
O       0.9104  0.66993  0.55869     O
H      0.91296  0.30672  0.30672     H
H      0.91296  0.30672  0.69328     H
H      0.91296  0.69328  0.30672     H
H      0.91296  0.69328  0.69328     H
C      0.91357  0.19351  0.47717     C
C      0.91357  0.19351  0.52283     C
C      0.91357  0.47717  0.19351     C
C      0.91357  0.47717  0.80649     C
C      0.91357  0.52283  0.19351     C
C      0.91357  0.52283  0.80649     C
C      0.91357  0.80649  0.47717     C
C      0.91357  0.80649  0.52283     C
O       0.9186  0.20754  0.29973     O
O       0.9186  0.20754  0.70027     O
O       0.9186  0.29973  0.20754     O
O       0.9186  0.29973  0.79246     O
O       0.9186  0.70027  0.20754     O
O       0.9186  0.70027  0.79246     O
O       0.9186  0.79246  0.29973     O
O       0.9186  0.79246  0.70027     O
H      0.92352  0.15206  0.18766     H
H      0.92352  0.15206  0.81234     H
H      0.92352  0.18766  0.15206     H
H      0.92352  0.18766  0.84794     H
H      0.92352  0.81234  0.15206     H
H      0.92352  0.81234  0.84794     H
H      0.92352  0.84794  0.18766     H
H      0.92352  0.84794  0.81234     H
C      0.93209  0.16164  0.44927     C
C      0.93209  0.16164  0.55073     C
C      0.93209  0.44927  0.16164     C
C      0.93209  0.44927  0.83836     C
C      0.93209  0.55073  0.16164     C
C      0.93209  0.55073  0.83836     C
C      0.93209  0.83836  0.44927     C
C      0.93209  0.83836  0.55073     C
O      0.93527  0.18097  0.18097     O
O      0.93527  0.18097  0.81903     O
O      0.93527  0.81903  0.18097     O
O      0.93527  0.81903  0.81903     O
O      0.94019  0.12374  0.46185     O
O      0.94019  0.12374  0.53815     O
O      0.94019  0.46185  0.12374     O
O      0.94019  0.46185  0.87626     O
O      0.94019  0.53815  0.12374     O
O      0.94019  0.53815  0.87626     O
O      0.94019  0.87626  0.46185     O
O      0.94019  0.87626  0.53815     O
O      0.94131  0.16993   0.4104     O
O      0.94131  0.16993   0.5896     O
O      0.94131   0.4104  0.16993     O
O      0.94131   0.4104  0.83007     O
O      0.94131   0.5896  0.16993     O
O      0.94131   0.5896  0.83007     O
O      0.94131  0.83007   0.4104     O
O      0.94131  0.83007   0.5896     O
C      0.94927  0.33836  0.43209     C
C      0.94927  0.33836  0.56791     C
C      0.94927  0.43209  0.33836     C
C      0.94927  0.43209  0.66164     C
C      0.94927  0.56791  0.33836     C
C      0.94927  0.56791  0.66164     C
C      0.94927  0.66164  0.43209     C
C      0.94927  0.66164  0.56791     C
O      0.96185  0.37626  0.44019     O
O      0.96185  0.37626  0.55981     O
O      0.96185  0.44019  0.37626     O
O      0.96185  0.44019  0.62374     O
O      0.96185  0.55981  0.37626     O
O      0.96185  0.55981  0.62374     O
O      0.96185  0.62374  0.44019     O
O      0.96185  0.62374  0.55981     O
N      0.96303  0.26851  0.39583     N
N      0.96303  0.26851  0.60417     N
N      0.96303  0.39583  0.26851     N
N      0.96303  0.39583  0.73149     N
N      0.96303  0.60417  0.26851     N
N      0.96303  0.60417  0.73149     N
N      0.96303  0.73149  0.39583     N
N      0.96303  0.73149  0.60417     N
H      0.97482  0.09877  0.18448     H
H      0.97482  0.09877  0.81552     H
H      0.97482  0.15087  0.24745     H
H      0.97482  0.15087  0.75255     H
H      0.97482  0.18448  0.09877     H
H      0.97482  0.18448  0.90123     H
H      0.97482  0.24745  0.15087     H
H      0.97482  0.24745  0.84913     H
H      0.97482  0.75255  0.15087     H
H      0.97482  0.75255  0.84913     H
H      0.97482  0.81552  0.09877     H
H      0.97482  0.81552  0.90123     H
H      0.97482  0.84913  0.24745     H
H      0.97482  0.84913  0.75255     H
H      0.97482  0.90123  0.18448     H
H      0.97482  0.90123  0.81552     H
C      0.97717  0.30649  0.41357     C
C      0.97717  0.30649  0.58643     C
C      0.97717  0.41357  0.30649     C
C      0.97717  0.41357  0.69351     C
C      0.97717  0.58643  0.30649     C
C      0.97717  0.58643  0.69351     C
C      0.97717  0.69351  0.41357     C
C      0.97717  0.69351  0.58643     C
