# generated using pymatgen
data_AgH24(C3N)4
_symmetry_space_group_name_H-M   'P 1'
_cell_length_a   45.61100000
_cell_length_b   45.61100000
_cell_length_c   45.61100000
_cell_angle_alpha   90.00000000
_cell_angle_beta   90.00000000
_cell_angle_gamma   90.00000000
_symmetry_Int_Tables_number   1
_chemical_formula_structural   AgH24(C3N)4
_chemical_formula_sum   'Ag136 H3264 C1632 N544'
_cell_volume   94887.45143413
_cell_formula_units_Z   136
loop_
 _symmetry_equiv_pos_site_id
 _symmetry_equiv_pos_as_xyz
  1  'x, y, z'
loop_
 _atom_site_type_symbol
 _atom_site_label
 _atom_site_symmetry_multiplicity
 _atom_site_fract_x
 _atom_site_fract_y
 _atom_site_fract_z
 _atom_site_occupancy
  Ag  Ag1  1  0.12500000  0.62500000  0.12500000  1.0
  Ag  Ag2  1  0.12500000  0.12500000  0.62500000  1.0
  Ag  Ag3  1  0.62500000  0.62500000  0.62500000  1.0
  Ag  Ag4  1  0.62500000  0.12500000  0.12500000  1.0
  Ag  Ag5  1  0.37500000  0.37500000  0.37500000  1.0
  Ag  Ag6  1  0.37500000  0.87500000  0.87500000  1.0
  Ag  Ag7  1  0.87500000  0.37500000  0.87500000  1.0
  Ag  Ag8  1  0.87500000  0.87500000  0.37500000  1.0
  Ag  Ag9  1  0.21760000  0.53240000  0.03240000  1.0
  Ag  Ag10  1  0.53240000  0.71760000  0.53240000  1.0
  Ag  Ag11  1  0.03240000  0.03240000  0.71760000  1.0
  Ag  Ag12  1  0.71760000  0.21760000  0.21760000  1.0
  Ag  Ag13  1  0.71760000  0.71760000  0.71760000  1.0
  Ag  Ag14  1  0.03240000  0.21760000  0.53240000  1.0
  Ag  Ag15  1  0.53240000  0.53240000  0.71760000  1.0
  Ag  Ag16  1  0.71760000  0.03240000  0.03240000  1.0
  Ag  Ag17  1  0.21760000  0.71760000  0.21760000  1.0
  Ag  Ag18  1  0.53240000  0.03240000  0.21760000  1.0
  Ag  Ag19  1  0.71760000  0.53240000  0.53240000  1.0
  Ag  Ag20  1  0.03240000  0.71760000  0.03240000  1.0
  Ag  Ag21  1  0.21760000  0.21760000  0.71760000  1.0
  Ag  Ag22  1  0.28240000  0.46760000  0.46760000  1.0
  Ag  Ag23  1  0.46760000  0.78240000  0.96760000  1.0
  Ag  Ag24  1  0.78240000  0.28240000  0.78240000  1.0
  Ag  Ag25  1  0.96760000  0.96760000  0.28240000  1.0
  Ag  Ag26  1  0.96760000  0.28240000  0.96760000  1.0
  Ag  Ag27  1  0.28240000  0.78240000  0.78240000  1.0
  Ag  Ag28  1  0.28240000  0.28240000  0.28240000  1.0
  Ag  Ag29  1  0.78240000  0.96760000  0.46760000  1.0
  Ag  Ag30  1  0.46760000  0.46760000  0.28240000  1.0
  Ag  Ag31  1  0.78240000  0.78240000  0.28240000  1.0
  Ag  Ag32  1  0.28240000  0.96760000  0.96760000  1.0
  Ag  Ag33  1  0.46760000  0.28240000  0.46760000  1.0
  Ag  Ag34  1  0.96760000  0.46760000  0.78240000  1.0
  Ag  Ag35  1  0.78240000  0.46760000  0.96760000  1.0
  Ag  Ag36  1  0.96760000  0.78240000  0.46760000  1.0
  Ag  Ag37  1  0.46760000  0.96760000  0.78240000  1.0
  Ag  Ag38  1  0.53240000  0.21760000  0.03240000  1.0
  Ag  Ag39  1  0.21760000  0.03240000  0.53240000  1.0
  Ag  Ag40  1  0.03240000  0.53240000  0.21760000  1.0
  Ag  Ag41  1  0.37134000  0.56760000  0.06760000  1.0
  Ag  Ag42  1  0.87134000  0.56760000  0.56760000  1.0
  Ag  Ag43  1  0.37866000  0.68240000  0.56760000  1.0
  Ag  Ag44  1  0.37866000  0.18240000  0.06760000  1.0
  Ag  Ag45  1  0.87866000  0.06760000  0.68240000  1.0
  Ag  Ag46  1  0.87866000  0.56760000  0.18240000  1.0
  Ag  Ag47  1  0.87134000  0.18240000  0.18240000  1.0
  Ag  Ag48  1  0.87134000  0.68240000  0.68240000  1.0
  Ag  Ag49  1  0.37134000  0.18240000  0.68240000  1.0
  Ag  Ag50  1  0.37134000  0.68240000  0.18240000  1.0
  Ag  Ag51  1  0.06760000  0.37134000  0.56760000  1.0
  Ag  Ag52  1  0.06760000  0.87134000  0.06760000  1.0
  Ag  Ag53  1  0.56760000  0.87134000  0.56760000  1.0
  Ag  Ag54  1  0.56760000  0.37866000  0.68240000  1.0
  Ag  Ag55  1  0.56760000  0.87866000  0.18240000  1.0
  Ag  Ag56  1  0.68240000  0.87866000  0.06760000  1.0
  Ag  Ag57  1  0.18240000  0.87866000  0.56760000  1.0
  Ag  Ag58  1  0.18240000  0.87134000  0.18240000  1.0
  Ag  Ag59  1  0.18240000  0.37134000  0.68240000  1.0
  Ag  Ag60  1  0.68240000  0.87134000  0.68240000  1.0
  Ag  Ag61  1  0.68240000  0.37134000  0.18240000  1.0
  Ag  Ag62  1  0.56760000  0.06760000  0.37134000  1.0
  Ag  Ag63  1  0.56760000  0.56760000  0.87134000  1.0
  Ag  Ag64  1  0.68240000  0.56760000  0.37866000  1.0
  Ag  Ag65  1  0.18240000  0.56760000  0.87866000  1.0
  Ag  Ag66  1  0.06760000  0.68240000  0.87866000  1.0
  Ag  Ag67  1  0.06760000  0.18240000  0.37866000  1.0
  Ag  Ag68  1  0.18240000  0.18240000  0.87134000  1.0
  Ag  Ag69  1  0.18240000  0.68240000  0.37134000  1.0
  Ag  Ag70  1  0.68240000  0.18240000  0.37134000  1.0
  Ag  Ag71  1  0.68240000  0.68240000  0.87134000  1.0
  Ag  Ag72  1  0.31760000  0.62134000  0.43240000  1.0
  Ag  Ag73  1  0.81760000  0.62134000  0.93240000  1.0
  Ag  Ag74  1  0.43240000  0.62866000  0.93240000  1.0
  Ag  Ag75  1  0.43240000  0.12866000  0.43240000  1.0
  Ag  Ag76  1  0.93240000  0.12866000  0.93240000  1.0
  Ag  Ag77  1  0.81760000  0.12866000  0.81760000  1.0
  Ag  Ag78  1  0.81760000  0.62866000  0.31760000  1.0
  Ag  Ag79  1  0.31760000  0.12866000  0.31760000  1.0
  Ag  Ag80  1  0.31760000  0.62866000  0.81760000  1.0
  Ag  Ag81  1  0.93240000  0.12134000  0.31760000  1.0
  Ag  Ag82  1  0.93240000  0.62134000  0.81760000  1.0
  Ag  Ag83  1  0.12134000  0.31760000  0.93240000  1.0
  Ag  Ag84  1  0.12134000  0.81760000  0.43240000  1.0
  Ag  Ag85  1  0.12866000  0.81760000  0.81760000  1.0
  Ag  Ag86  1  0.12866000  0.31760000  0.31760000  1.0
  Ag  Ag87  1  0.62866000  0.81760000  0.31760000  1.0
  Ag  Ag88  1  0.62866000  0.31760000  0.81760000  1.0
  Ag  Ag89  1  0.62866000  0.93240000  0.43240000  1.0
  Ag  Ag90  1  0.12866000  0.93240000  0.93240000  1.0
  Ag  Ag91  1  0.62134000  0.43240000  0.31760000  1.0
  Ag  Ag92  1  0.62134000  0.93240000  0.81760000  1.0
  Ag  Ag93  1  0.81760000  0.81760000  0.12866000  1.0
  Ag  Ag94  1  0.81760000  0.31760000  0.62866000  1.0
  Ag  Ag95  1  0.31760000  0.81760000  0.62866000  1.0
  Ag  Ag96  1  0.31760000  0.31760000  0.12866000  1.0
  Ag  Ag97  1  0.31760000  0.93240000  0.12134000  1.0
  Ag  Ag98  1  0.81760000  0.93240000  0.62134000  1.0
  Ag  Ag99  1  0.43240000  0.31760000  0.62134000  1.0
  Ag  Ag100  1  0.43240000  0.81760000  0.12134000  1.0
  Ag  Ag101  1  0.93240000  0.43240000  0.62866000  1.0
  Ag  Ag102  1  0.93240000  0.93240000  0.12866000  1.0
  Ag  Ag103  1  0.62866000  0.43240000  0.93240000  1.0
  Ag  Ag104  1  0.12866000  0.43240000  0.43240000  1.0
  Ag  Ag105  1  0.62134000  0.31760000  0.43240000  1.0
  Ag  Ag106  1  0.62134000  0.81760000  0.93240000  1.0
  Ag  Ag107  1  0.12134000  0.93240000  0.31760000  1.0
  Ag  Ag108  1  0.12134000  0.43240000  0.81760000  1.0
  Ag  Ag109  1  0.93240000  0.62866000  0.43240000  1.0
  Ag  Ag110  1  0.43240000  0.62134000  0.31760000  1.0
  Ag  Ag111  1  0.43240000  0.12134000  0.81760000  1.0
  Ag  Ag112  1  0.31760000  0.12134000  0.93240000  1.0
  Ag  Ag113  1  0.81760000  0.12134000  0.43240000  1.0
  Ag  Ag114  1  0.43240000  0.93240000  0.62866000  1.0
  Ag  Ag115  1  0.43240000  0.43240000  0.12866000  1.0
  Ag  Ag116  1  0.31760000  0.43240000  0.62134000  1.0
  Ag  Ag117  1  0.81760000  0.43240000  0.12134000  1.0
  Ag  Ag118  1  0.93240000  0.31760000  0.12134000  1.0
  Ag  Ag119  1  0.93240000  0.81760000  0.62134000  1.0
  Ag  Ag120  1  0.68240000  0.37866000  0.56760000  1.0
  Ag  Ag121  1  0.18240000  0.37866000  0.06760000  1.0
  Ag  Ag122  1  0.56760000  0.37134000  0.06760000  1.0
  Ag  Ag123  1  0.06760000  0.87866000  0.68240000  1.0
  Ag  Ag124  1  0.06760000  0.37866000  0.18240000  1.0
  Ag  Ag125  1  0.87866000  0.68240000  0.06760000  1.0
  Ag  Ag126  1  0.87866000  0.18240000  0.56760000  1.0
  Ag  Ag127  1  0.37134000  0.06760000  0.56760000  1.0
  Ag  Ag128  1  0.87134000  0.06760000  0.06760000  1.0
  Ag  Ag129  1  0.37866000  0.56760000  0.68240000  1.0
  Ag  Ag130  1  0.37866000  0.06760000  0.18240000  1.0
  Ag  Ag131  1  0.68240000  0.06760000  0.87866000  1.0
  Ag  Ag132  1  0.18240000  0.06760000  0.37866000  1.0
  Ag  Ag133  1  0.56760000  0.68240000  0.37866000  1.0
  Ag  Ag134  1  0.56760000  0.18240000  0.87866000  1.0
  Ag  Ag135  1  0.06760000  0.56760000  0.37134000  1.0
  Ag  Ag136  1  0.06760000  0.06760000  0.87134000  1.0
  H  H1  1  0.18600000  0.62640000  0.08890000  1.0
  H  H2  1  0.18960000  0.59760000  0.03560000  1.0
  H  H3  1  0.28300000  0.52950000  0.00460000  1.0
  H  H4  1  0.32940000  0.51510000  0.04000000  1.0
  H  H5  1  0.31520000  0.58890000  0.02660000  1.0
  H  H6  1  0.30680000  0.59750000  0.05960000  1.0
  H  H7  1  0.26020000  0.58610000  0.05120000  1.0
  H  H8  1  0.26830000  0.57910000  0.01780000  1.0
  H  H9  1  0.36660000  0.57690000  0.13900000  1.0
  H  H10  1  0.33630000  0.58940000  0.12650000  1.0
  H  H11  1  0.41340000  0.59620000  0.12100000  1.0
  H  H12  1  0.35650000  0.51140000  0.10420000  1.0
  H  H13  1  0.37780000  0.53010000  0.12500000  1.0
  H  H14  1  0.40510000  0.50550000  0.04490000  1.0
  H  H15  1  0.37340000  0.49530000  0.05620000  1.0
  H  H16  1  0.42600000  0.54440000  0.10680000  1.0
  H  H17  1  0.43590000  0.53340000  0.07490000  1.0
  H  H18  1  0.18600000  0.12640000  0.58890000  1.0
  H  H19  1  0.18960000  0.09760000  0.53560000  1.0
  H  H20  1  0.28300000  0.02950000  0.50460000  1.0
  H  H21  1  0.32940000  0.01510000  0.54000000  1.0
  H  H22  1  0.31520000  0.08890000  0.52660000  1.0
  H  H23  1  0.30680000  0.09750000  0.55960000  1.0
  H  H24  1  0.26020000  0.08610000  0.55120000  1.0
  H  H25  1  0.26830000  0.07910000  0.51780000  1.0
  H  H26  1  0.36660000  0.07690000  0.63900000  1.0
  H  H27  1  0.33630000  0.08940000  0.62650000  1.0
  H  H28  1  0.41340000  0.09620000  0.62100000  1.0
  H  H29  1  0.35650000  0.01140000  0.60420000  1.0
  H  H30  1  0.37780000  0.03010000  0.62500000  1.0
  H  H31  1  0.40510000  0.00550000  0.54490000  1.0
  H  H32  1  0.37340000  0.99530000  0.55620000  1.0
  H  H33  1  0.42600000  0.04440000  0.60680000  1.0
  H  H34  1  0.43590000  0.03340000  0.57490000  1.0
  H  H35  1  0.68600000  0.62640000  0.58890000  1.0
  H  H36  1  0.68960000  0.59760000  0.53560000  1.0
  H  H37  1  0.78300000  0.52950000  0.50460000  1.0
  H  H38  1  0.82940000  0.51510000  0.54000000  1.0
  H  H39  1  0.81520000  0.58890000  0.52660000  1.0
  H  H40  1  0.80680000  0.59750000  0.55960000  1.0
  H  H41  1  0.76020000  0.58610000  0.55120000  1.0
  H  H42  1  0.76830000  0.57910000  0.51780000  1.0
  H  H43  1  0.86660000  0.57690000  0.63900000  1.0
  H  H44  1  0.83630000  0.58940000  0.62650000  1.0
  H  H45  1  0.91340000  0.59620000  0.62100000  1.0
  H  H46  1  0.85650000  0.51140000  0.60420000  1.0
  H  H47  1  0.87780000  0.53010000  0.62500000  1.0
  H  H48  1  0.90510000  0.50550000  0.54490000  1.0
  H  H49  1  0.87340000  0.49530000  0.55620000  1.0
  H  H50  1  0.92600000  0.54440000  0.60680000  1.0
  H  H51  1  0.93590000  0.53340000  0.57490000  1.0
  H  H52  1  0.68600000  0.12640000  0.08890000  1.0
  H  H53  1  0.68960000  0.09760000  0.03560000  1.0
  H  H54  1  0.78300000  0.02950000  0.00460000  1.0
  H  H55  1  0.82940000  0.01510000  0.04000000  1.0
  H  H56  1  0.81520000  0.08890000  0.02660000  1.0
  H  H57  1  0.80680000  0.09750000  0.05960000  1.0
  H  H58  1  0.76020000  0.08610000  0.05120000  1.0
  H  H59  1  0.76830000  0.07910000  0.01780000  1.0
  H  H60  1  0.86660000  0.07690000  0.13900000  1.0
  H  H61  1  0.83630000  0.08940000  0.12650000  1.0
  H  H62  1  0.91340000  0.09620000  0.12100000  1.0
  H  H63  1  0.85650000  0.01140000  0.10420000  1.0
  H  H64  1  0.87780000  0.03010000  0.12500000  1.0
  H  H65  1  0.90510000  0.00550000  0.04490000  1.0
  H  H66  1  0.87340000  0.99530000  0.05620000  1.0
  H  H67  1  0.92600000  0.04440000  0.10680000  1.0
  H  H68  1  0.93590000  0.03340000  0.07490000  1.0
  H  H69  1  0.56400000  0.62360000  0.58890000  1.0
  H  H70  1  0.56040000  0.65240000  0.53560000  1.0
  H  H71  1  0.46700000  0.72050000  0.50460000  1.0
  H  H72  1  0.42060000  0.73490000  0.54000000  1.0
  H  H73  1  0.43480000  0.66110000  0.52660000  1.0
  H  H74  1  0.44320000  0.65250000  0.55960000  1.0
  H  H75  1  0.48980000  0.66390000  0.55120000  1.0
  H  H76  1  0.48170000  0.67090000  0.51780000  1.0
  H  H77  1  0.38340000  0.67310000  0.63900000  1.0
  H  H78  1  0.41370000  0.66060000  0.62650000  1.0
  H  H79  1  0.33660000  0.65380000  0.62100000  1.0
  H  H80  1  0.39350000  0.73860000  0.60420000  1.0
  H  H81  1  0.37220000  0.71990000  0.62500000  1.0
  H  H82  1  0.34490000  0.74450000  0.54490000  1.0
  H  H83  1  0.37660000  0.75470000  0.55620000  1.0
  H  H84  1  0.32400000  0.70560000  0.60680000  1.0
  H  H85  1  0.31410000  0.71660000  0.57490000  1.0
  H  H86  1  0.56400000  0.12360000  0.08890000  1.0
  H  H87  1  0.56040000  0.15240000  0.03560000  1.0
  H  H88  1  0.46700000  0.22050000  0.00460000  1.0
  H  H89  1  0.42060000  0.23490000  0.04000000  1.0
  H  H90  1  0.43480000  0.16110000  0.02660000  1.0
  H  H91  1  0.44320000  0.15250000  0.05960000  1.0
  H  H92  1  0.48980000  0.16390000  0.05120000  1.0
  H  H93  1  0.48170000  0.17090000  0.01780000  1.0
  H  H94  1  0.38340000  0.17310000  0.13900000  1.0
  H  H95  1  0.41370000  0.16060000  0.12650000  1.0
  H  H96  1  0.33660000  0.15380000  0.12100000  1.0
  H  H97  1  0.39350000  0.23860000  0.10420000  1.0
  H  H98  1  0.37220000  0.21990000  0.12500000  1.0
  H  H99  1  0.34490000  0.24450000  0.04490000  1.0
  H  H100  1  0.37660000  0.25470000  0.05620000  1.0
  H  H101  1  0.32400000  0.20560000  0.10680000  1.0
  H  H102  1  0.31410000  0.21660000  0.07490000  1.0
  H  H103  1  0.06400000  0.62360000  0.08890000  1.0
  H  H104  1  0.06040000  0.65240000  0.03560000  1.0
  H  H105  1  0.96700000  0.72050000  0.00460000  1.0
  H  H106  1  0.92060000  0.73490000  0.04000000  1.0
  H  H107  1  0.93480000  0.66110000  0.02660000  1.0
  H  H108  1  0.94320000  0.65250000  0.05960000  1.0
  H  H109  1  0.98980000  0.66390000  0.05120000  1.0
  H  H110  1  0.98170000  0.67090000  0.01780000  1.0
  H  H111  1  0.88340000  0.67310000  0.13900000  1.0
  H  H112  1  0.91370000  0.66060000  0.12650000  1.0
  H  H113  1  0.83660000  0.65380000  0.12100000  1.0
  H  H114  1  0.89350000  0.73860000  0.10420000  1.0
  H  H115  1  0.87220000  0.71990000  0.12500000  1.0
  H  H116  1  0.84490000  0.74450000  0.04490000  1.0
  H  H117  1  0.87660000  0.75470000  0.05620000  1.0
  H  H118  1  0.82400000  0.70560000  0.10680000  1.0
  H  H119  1  0.81410000  0.71660000  0.07490000  1.0
  H  H120  1  0.06400000  0.12360000  0.58890000  1.0
  H  H121  1  0.06040000  0.15240000  0.53560000  1.0
  H  H122  1  0.96700000  0.22050000  0.50460000  1.0
  H  H123  1  0.92060000  0.23490000  0.54000000  1.0
  H  H124  1  0.93480000  0.16110000  0.52660000  1.0
  H  H125  1  0.94320000  0.15250000  0.55960000  1.0
  H  H126  1  0.98980000  0.16390000  0.55120000  1.0
  H  H127  1  0.98170000  0.17090000  0.51780000  1.0
  H  H128  1  0.88340000  0.17310000  0.63900000  1.0
  H  H129  1  0.91370000  0.16060000  0.62650000  1.0
  H  H130  1  0.83660000  0.15380000  0.62100000  1.0
  H  H131  1  0.89350000  0.23860000  0.60420000  1.0
  H  H132  1  0.87220000  0.21990000  0.62500000  1.0
  H  H133  1  0.84490000  0.24450000  0.54490000  1.0
  H  H134  1  0.87660000  0.25470000  0.55620000  1.0
  H  H135  1  0.82400000  0.20560000  0.60680000  1.0
  H  H136  1  0.81410000  0.21660000  0.57490000  1.0
  H  H137  1  0.06400000  0.12640000  0.66110000  1.0
  H  H138  1  0.06040000  0.09760000  0.71440000  1.0
  H  H139  1  0.96700000  0.02950000  0.74540000  1.0
  H  H140  1  0.92060000  0.01510000  0.71000000  1.0
  H  H141  1  0.93480000  0.08890000  0.72340000  1.0
  H  H142  1  0.94320000  0.09750000  0.69040000  1.0
  H  H143  1  0.98980000  0.08610000  0.69880000  1.0
  H  H144  1  0.98170000  0.07910000  0.73220000  1.0
  H  H145  1  0.88340000  0.07690000  0.61100000  1.0
  H  H146  1  0.91370000  0.08940000  0.62350000  1.0
  H  H147  1  0.83660000  0.09620000  0.62900000  1.0
  H  H148  1  0.89350000  0.01140000  0.64580000  1.0
  H  H149  1  0.87220000  0.03010000  0.62500000  1.0
  H  H150  1  0.84490000  0.00550000  0.70510000  1.0
  H  H151  1  0.87660000  0.99530000  0.69380000  1.0
  H  H152  1  0.82400000  0.04440000  0.64320000  1.0
  H  H153  1  0.81410000  0.03340000  0.67510000  1.0
  H  H154  1  0.06400000  0.62640000  0.16110000  1.0
  H  H155  1  0.06040000  0.59760000  0.21440000  1.0
  H  H156  1  0.96700000  0.52950000  0.24540000  1.0
  H  H157  1  0.92060000  0.51510000  0.21000000  1.0
  H  H158  1  0.93480000  0.58890000  0.22340000  1.0
  H  H159  1  0.94320000  0.59750000  0.19040000  1.0
  H  H160  1  0.98980000  0.58610000  0.19880000  1.0
  H  H161  1  0.98170000  0.57910000  0.23220000  1.0
  H  H162  1  0.88340000  0.57690000  0.11100000  1.0
  H  H163  1  0.91370000  0.58940000  0.12350000  1.0
  H  H164  1  0.83660000  0.59620000  0.12900000  1.0
  H  H165  1  0.89350000  0.51140000  0.14580000  1.0
  H  H166  1  0.87220000  0.53010000  0.12500000  1.0
  H  H167  1  0.84490000  0.50550000  0.20510000  1.0
  H  H168  1  0.87660000  0.49530000  0.19380000  1.0
  H  H169  1  0.82400000  0.54440000  0.14320000  1.0
  H  H170  1  0.81410000  0.53340000  0.17510000  1.0
  H  H171  1  0.56400000  0.12640000  0.16110000  1.0
  H  H172  1  0.56040000  0.09760000  0.21440000  1.0
  H  H173  1  0.46700000  0.02950000  0.24540000  1.0
  H  H174  1  0.42060000  0.01510000  0.21000000  1.0
  H  H175  1  0.43480000  0.08890000  0.22340000  1.0
  H  H176  1  0.44320000  0.09750000  0.19040000  1.0
  H  H177  1  0.48980000  0.08610000  0.19880000  1.0
  H  H178  1  0.48170000  0.07910000  0.23220000  1.0
  H  H179  1  0.38340000  0.07690000  0.11100000  1.0
  H  H180  1  0.41370000  0.08940000  0.12350000  1.0
  H  H181  1  0.33660000  0.09620000  0.12900000  1.0
  H  H182  1  0.39350000  0.01140000  0.14580000  1.0
  H  H183  1  0.37220000  0.03010000  0.12500000  1.0
  H  H184  1  0.34490000  0.00550000  0.20510000  1.0
  H  H185  1  0.37660000  0.99530000  0.19380000  1.0
  H  H186  1  0.32400000  0.04440000  0.14320000  1.0
  H  H187  1  0.31410000  0.03340000  0.17510000  1.0
  H  H188  1  0.56400000  0.62640000  0.66110000  1.0
  H  H189  1  0.56040000  0.59760000  0.71440000  1.0
  H  H190  1  0.46700000  0.52950000  0.74540000  1.0
  H  H191  1  0.42060000  0.51510000  0.71000000  1.0
  H  H192  1  0.43480000  0.58890000  0.72340000  1.0
  H  H193  1  0.44320000  0.59750000  0.69040000  1.0
  H  H194  1  0.48980000  0.58610000  0.69880000  1.0
  H  H195  1  0.48170000  0.57910000  0.73220000  1.0
  H  H196  1  0.38340000  0.57690000  0.61100000  1.0
  H  H197  1  0.41370000  0.58940000  0.62350000  1.0
  H  H198  1  0.33660000  0.59620000  0.62900000  1.0
  H  H199  1  0.39350000  0.51140000  0.64580000  1.0
  H  H200  1  0.37220000  0.53010000  0.62500000  1.0
  H  H201  1  0.34490000  0.50550000  0.70510000  1.0
  H  H202  1  0.37660000  0.49530000  0.69380000  1.0
  H  H203  1  0.32400000  0.54440000  0.64320000  1.0
  H  H204  1  0.31410000  0.53340000  0.67510000  1.0
  H  H205  1  0.68600000  0.12360000  0.16110000  1.0
  H  H206  1  0.68960000  0.15240000  0.21440000  1.0
  H  H207  1  0.78300000  0.22050000  0.24540000  1.0
  H  H208  1  0.82940000  0.23490000  0.21000000  1.0
  H  H209  1  0.81520000  0.16110000  0.22340000  1.0
  H  H210  1  0.80680000  0.15250000  0.19040000  1.0
  H  H211  1  0.76020000  0.16390000  0.19880000  1.0
  H  H212  1  0.76830000  0.17090000  0.23220000  1.0
  H  H213  1  0.86660000  0.17310000  0.11100000  1.0
  H  H214  1  0.83630000  0.16060000  0.12350000  1.0
  H  H215  1  0.91340000  0.15380000  0.12900000  1.0
  H  H216  1  0.85650000  0.23860000  0.14580000  1.0
  H  H217  1  0.87780000  0.21990000  0.12500000  1.0
  H  H218  1  0.90510000  0.24450000  0.20510000  1.0
  H  H219  1  0.87340000  0.25470000  0.19380000  1.0
  H  H220  1  0.92600000  0.20560000  0.14320000  1.0
  H  H221  1  0.93590000  0.21660000  0.17510000  1.0
  H  H222  1  0.68600000  0.62360000  0.66110000  1.0
  H  H223  1  0.68960000  0.65240000  0.71440000  1.0
  H  H224  1  0.78300000  0.72050000  0.74540000  1.0
  H  H225  1  0.82940000  0.73490000  0.71000000  1.0
  H  H226  1  0.81520000  0.66110000  0.72340000  1.0
  H  H227  1  0.80680000  0.65250000  0.69040000  1.0
  H  H228  1  0.76020000  0.66390000  0.69880000  1.0
  H  H229  1  0.76830000  0.67090000  0.73220000  1.0
  H  H230  1  0.86660000  0.67310000  0.61100000  1.0
  H  H231  1  0.83630000  0.66060000  0.62350000  1.0
  H  H232  1  0.91340000  0.65380000  0.62900000  1.0
  H  H233  1  0.85650000  0.73860000  0.64580000  1.0
  H  H234  1  0.87780000  0.71990000  0.62500000  1.0
  H  H235  1  0.90510000  0.74450000  0.70510000  1.0
  H  H236  1  0.87340000  0.75470000  0.69380000  1.0
  H  H237  1  0.92600000  0.70560000  0.64320000  1.0
  H  H238  1  0.93590000  0.71660000  0.67510000  1.0
  H  H239  1  0.18600000  0.12360000  0.66110000  1.0
  H  H240  1  0.18960000  0.15240000  0.71440000  1.0
  H  H241  1  0.28300000  0.22050000  0.74540000  1.0
  H  H242  1  0.32940000  0.23490000  0.71000000  1.0
  H  H243  1  0.31520000  0.16110000  0.72340000  1.0
  H  H244  1  0.30680000  0.15250000  0.69040000  1.0
  H  H245  1  0.26020000  0.16390000  0.69880000  1.0
  H  H246  1  0.26830000  0.17090000  0.73220000  1.0
  H  H247  1  0.36660000  0.17310000  0.61100000  1.0
  H  H248  1  0.33630000  0.16060000  0.62350000  1.0
  H  H249  1  0.41340000  0.15380000  0.62900000  1.0
  H  H250  1  0.35650000  0.23860000  0.64580000  1.0
  H  H251  1  0.37780000  0.21990000  0.62500000  1.0
  H  H252  1  0.40510000  0.24450000  0.70510000  1.0
  H  H253  1  0.37340000  0.25470000  0.69380000  1.0
  H  H254  1  0.42600000  0.20560000  0.64320000  1.0
  H  H255  1  0.43590000  0.21660000  0.67510000  1.0
  H  H256  1  0.18600000  0.62360000  0.16110000  1.0
  H  H257  1  0.18960000  0.65240000  0.21440000  1.0
  H  H258  1  0.28300000  0.72050000  0.24540000  1.0
  H  H259  1  0.32940000  0.73490000  0.21000000  1.0
  H  H260  1  0.31520000  0.66110000  0.22340000  1.0
  H  H261  1  0.30680000  0.65250000  0.19040000  1.0
  H  H262  1  0.26020000  0.66390000  0.19880000  1.0
  H  H263  1  0.26830000  0.67090000  0.23220000  1.0
  H  H264  1  0.36660000  0.67310000  0.11100000  1.0
  H  H265  1  0.33630000  0.66060000  0.12350000  1.0
  H  H266  1  0.41340000  0.65380000  0.12900000  1.0
  H  H267  1  0.35650000  0.73860000  0.14580000  1.0
  H  H268  1  0.37780000  0.71990000  0.12500000  1.0
  H  H269  1  0.40510000  0.74450000  0.20510000  1.0
  H  H270  1  0.37340000  0.75470000  0.19380000  1.0
  H  H271  1  0.42600000  0.70560000  0.14320000  1.0
  H  H272  1  0.43590000  0.71660000  0.17510000  1.0
  H  H273  1  0.08890000  0.18600000  0.62640000  1.0
  H  H274  1  0.03560000  0.18960000  0.59760000  1.0
  H  H275  1  0.00460000  0.28300000  0.52950000  1.0
  H  H276  1  0.04000000  0.32940000  0.51510000  1.0
  H  H277  1  0.02660000  0.31520000  0.58890000  1.0
  H  H278  1  0.05960000  0.30680000  0.59750000  1.0
  H  H279  1  0.05120000  0.26020000  0.58610000  1.0
  H  H280  1  0.01780000  0.26830000  0.57910000  1.0
  H  H281  1  0.13900000  0.36660000  0.57690000  1.0
  H  H282  1  0.12650000  0.33630000  0.58940000  1.0
  H  H283  1  0.12100000  0.41340000  0.59620000  1.0
  H  H284  1  0.10420000  0.35650000  0.51140000  1.0
  H  H285  1  0.12500000  0.37780000  0.53010000  1.0
  H  H286  1  0.04490000  0.40510000  0.50550000  1.0
  H  H287  1  0.05620000  0.37340000  0.49530000  1.0
  H  H288  1  0.10680000  0.42600000  0.54440000  1.0
  H  H289  1  0.07490000  0.43590000  0.53340000  1.0
  H  H290  1  0.08890000  0.68600000  0.12640000  1.0
  H  H291  1  0.03560000  0.68960000  0.09760000  1.0
  H  H292  1  0.00460000  0.78300000  0.02950000  1.0
  H  H293  1  0.04000000  0.82940000  0.01510000  1.0
  H  H294  1  0.02660000  0.81520000  0.08890000  1.0
  H  H295  1  0.05960000  0.80680000  0.09750000  1.0
  H  H296  1  0.05120000  0.76020000  0.08610000  1.0
  H  H297  1  0.01780000  0.76830000  0.07910000  1.0
  H  H298  1  0.13900000  0.86660000  0.07690000  1.0
  H  H299  1  0.12650000  0.83630000  0.08940000  1.0
  H  H300  1  0.12100000  0.91340000  0.09620000  1.0
  H  H301  1  0.10420000  0.85650000  0.01140000  1.0
  H  H302  1  0.12500000  0.87780000  0.03010000  1.0
  H  H303  1  0.04490000  0.90510000  0.00550000  1.0
  H  H304  1  0.05620000  0.87340000  0.99530000  1.0
  H  H305  1  0.10680000  0.92600000  0.04440000  1.0
  H  H306  1  0.07490000  0.93590000  0.03340000  1.0
  H  H307  1  0.58890000  0.18600000  0.12640000  1.0
  H  H308  1  0.53560000  0.18960000  0.09760000  1.0
  H  H309  1  0.50460000  0.28300000  0.02950000  1.0
  H  H310  1  0.54000000  0.32940000  0.01510000  1.0
  H  H311  1  0.52660000  0.31520000  0.08890000  1.0
  H  H312  1  0.55960000  0.30680000  0.09750000  1.0
  H  H313  1  0.55120000  0.26020000  0.08610000  1.0
  H  H314  1  0.51780000  0.26830000  0.07910000  1.0
  H  H315  1  0.63900000  0.36660000  0.07690000  1.0
  H  H316  1  0.62650000  0.33630000  0.08940000  1.0
  H  H317  1  0.62100000  0.41340000  0.09620000  1.0
  H  H318  1  0.60420000  0.35650000  0.01140000  1.0
  H  H319  1  0.62500000  0.37780000  0.03010000  1.0
  H  H320  1  0.54490000  0.40510000  0.00550000  1.0
  H  H321  1  0.55620000  0.37340000  0.99530000  1.0
  H  H322  1  0.60680000  0.42600000  0.04440000  1.0
  H  H323  1  0.57490000  0.43590000  0.03340000  1.0
  H  H324  1  0.58890000  0.68600000  0.62640000  1.0
  H  H325  1  0.53560000  0.68960000  0.59760000  1.0
  H  H326  1  0.50460000  0.78300000  0.52950000  1.0
  H  H327  1  0.54000000  0.82940000  0.51510000  1.0
  H  H328  1  0.52660000  0.81520000  0.58890000  1.0
  H  H329  1  0.55960000  0.80680000  0.59750000  1.0
  H  H330  1  0.55120000  0.76020000  0.58610000  1.0
  H  H331  1  0.51780000  0.76830000  0.57910000  1.0
  H  H332  1  0.63900000  0.86660000  0.57690000  1.0
  H  H333  1  0.62650000  0.83630000  0.58940000  1.0
  H  H334  1  0.62100000  0.91340000  0.59620000  1.0
  H  H335  1  0.60420000  0.85650000  0.51140000  1.0
  H  H336  1  0.62500000  0.87780000  0.53010000  1.0
  H  H337  1  0.54490000  0.90510000  0.50550000  1.0
  H  H338  1  0.55620000  0.87340000  0.49530000  1.0
  H  H339  1  0.60680000  0.92600000  0.54440000  1.0
  H  H340  1  0.57490000  0.93590000  0.53340000  1.0
  H  H341  1  0.58890000  0.56400000  0.62360000  1.0
  H  H342  1  0.53560000  0.56040000  0.65240000  1.0
  H  H343  1  0.50460000  0.46700000  0.72050000  1.0
  H  H344  1  0.54000000  0.42060000  0.73490000  1.0
  H  H345  1  0.52660000  0.43480000  0.66110000  1.0
  H  H346  1  0.55960000  0.44320000  0.65250000  1.0
  H  H347  1  0.55120000  0.48980000  0.66390000  1.0
  H  H348  1  0.51780000  0.48170000  0.67090000  1.0
  H  H349  1  0.63900000  0.38340000  0.67310000  1.0
  H  H350  1  0.62650000  0.41370000  0.66060000  1.0
  H  H351  1  0.62100000  0.33660000  0.65380000  1.0
  H  H352  1  0.60420000  0.39350000  0.73860000  1.0
  H  H353  1  0.62500000  0.37220000  0.71990000  1.0
  H  H354  1  0.54490000  0.34490000  0.74450000  1.0
  H  H355  1  0.55620000  0.37660000  0.75470000  1.0
  H  H356  1  0.60680000  0.32400000  0.70560000  1.0
  H  H357  1  0.57490000  0.31410000  0.71660000  1.0
  H  H358  1  0.58890000  0.06400000  0.12360000  1.0
  H  H359  1  0.53560000  0.06040000  0.15240000  1.0
  H  H360  1  0.50460000  0.96700000  0.22050000  1.0
  H  H361  1  0.54000000  0.92060000  0.23490000  1.0
  H  H362  1  0.52660000  0.93480000  0.16110000  1.0
  H  H363  1  0.55960000  0.94320000  0.15250000  1.0
  H  H364  1  0.55120000  0.98980000  0.16390000  1.0
  H  H365  1  0.51780000  0.98170000  0.17090000  1.0
  H  H366  1  0.63900000  0.88340000  0.17310000  1.0
  H  H367  1  0.62650000  0.91370000  0.16060000  1.0
  H  H368  1  0.62100000  0.83660000  0.15380000  1.0
  H  H369  1  0.60420000  0.89350000  0.23860000  1.0
  H  H370  1  0.62500000  0.87220000  0.21990000  1.0
  H  H371  1  0.54490000  0.84490000  0.24450000  1.0
  H  H372  1  0.55620000  0.87660000  0.25470000  1.0
  H  H373  1  0.60680000  0.82400000  0.20560000  1.0
  H  H374  1  0.57490000  0.81410000  0.21660000  1.0
  H  H375  1  0.08890000  0.56400000  0.12360000  1.0
  H  H376  1  0.03560000  0.56040000  0.15240000  1.0
  H  H377  1  0.00460000  0.46700000  0.22050000  1.0
  H  H378  1  0.04000000  0.42060000  0.23490000  1.0
  H  H379  1  0.02660000  0.43480000  0.16110000  1.0
  H  H380  1  0.05960000  0.44320000  0.15250000  1.0
  H  H381  1  0.05120000  0.48980000  0.16390000  1.0
  H  H382  1  0.01780000  0.48170000  0.17090000  1.0
  H  H383  1  0.13900000  0.38340000  0.17310000  1.0
  H  H384  1  0.12650000  0.41370000  0.16060000  1.0
  H  H385  1  0.12100000  0.33660000  0.15380000  1.0
  H  H386  1  0.10420000  0.39350000  0.23860000  1.0
  H  H387  1  0.12500000  0.37220000  0.21990000  1.0
  H  H388  1  0.04490000  0.34490000  0.24450000  1.0
  H  H389  1  0.05620000  0.37660000  0.25470000  1.0
  H  H390  1  0.10680000  0.32400000  0.20560000  1.0
  H  H391  1  0.07490000  0.31410000  0.21660000  1.0
  H  H392  1  0.08890000  0.06400000  0.62360000  1.0
  H  H393  1  0.03560000  0.06040000  0.65240000  1.0
  H  H394  1  0.00460000  0.96700000  0.72050000  1.0
  H  H395  1  0.04000000  0.92060000  0.73490000  1.0
  H  H396  1  0.02660000  0.93480000  0.66110000  1.0
  H  H397  1  0.05960000  0.94320000  0.65250000  1.0
  H  H398  1  0.05120000  0.98980000  0.66390000  1.0
  H  H399  1  0.01780000  0.98170000  0.67090000  1.0
  H  H400  1  0.13900000  0.88340000  0.67310000  1.0
  H  H401  1  0.12650000  0.91370000  0.66060000  1.0
  H  H402  1  0.12100000  0.83660000  0.65380000  1.0
  H  H403  1  0.10420000  0.89350000  0.73860000  1.0
  H  H404  1  0.12500000  0.87220000  0.71990000  1.0
  H  H405  1  0.04490000  0.84490000  0.74450000  1.0
  H  H406  1  0.05620000  0.87660000  0.75470000  1.0
  H  H407  1  0.10680000  0.82400000  0.70560000  1.0
  H  H408  1  0.07490000  0.81410000  0.71660000  1.0
  H  H409  1  0.66110000  0.06400000  0.12640000  1.0
  H  H410  1  0.71440000  0.06040000  0.09760000  1.0
  H  H411  1  0.74540000  0.96700000  0.02950000  1.0
  H  H412  1  0.71000000  0.92060000  0.01510000  1.0
  H  H413  1  0.72340000  0.93480000  0.08890000  1.0
  H  H414  1  0.69040000  0.94320000  0.09750000  1.0
  H  H415  1  0.69880000  0.98980000  0.08610000  1.0
  H  H416  1  0.73220000  0.98170000  0.07910000  1.0
  H  H417  1  0.61100000  0.88340000  0.07690000  1.0
  H  H418  1  0.62350000  0.91370000  0.08940000  1.0
  H  H419  1  0.62900000  0.83660000  0.09620000  1.0
  H  H420  1  0.64580000  0.89350000  0.01140000  1.0
  H  H421  1  0.62500000  0.87220000  0.03010000  1.0
  H  H422  1  0.70510000  0.84490000  0.00550000  1.0
  H  H423  1  0.69380000  0.87660000  0.99530000  1.0
  H  H424  1  0.64320000  0.82400000  0.04440000  1.0
  H  H425  1  0.67510000  0.81410000  0.03340000  1.0
  H  H426  1  0.66110000  0.56400000  0.62640000  1.0
  H  H427  1  0.71440000  0.56040000  0.59760000  1.0
  H  H428  1  0.74540000  0.46700000  0.52950000  1.0
  H  H429  1  0.71000000  0.42060000  0.51510000  1.0
  H  H430  1  0.72340000  0.43480000  0.58890000  1.0
  H  H431  1  0.69040000  0.44320000  0.59750000  1.0
  H  H432  1  0.69880000  0.48980000  0.58610000  1.0
  H  H433  1  0.73220000  0.48170000  0.57910000  1.0
  H  H434  1  0.61100000  0.38340000  0.57690000  1.0
  H  H435  1  0.62350000  0.41370000  0.58940000  1.0
  H  H436  1  0.62900000  0.33660000  0.59620000  1.0
  H  H437  1  0.64580000  0.39350000  0.51140000  1.0
  H  H438  1  0.62500000  0.37220000  0.53010000  1.0
  H  H439  1  0.70510000  0.34490000  0.50550000  1.0
  H  H440  1  0.69380000  0.37660000  0.49530000  1.0
  H  H441  1  0.64320000  0.32400000  0.54440000  1.0
  H  H442  1  0.67510000  0.31410000  0.53340000  1.0
  H  H443  1  0.16110000  0.06400000  0.62640000  1.0
  H  H444  1  0.21440000  0.06040000  0.59760000  1.0
  H  H445  1  0.24540000  0.96700000  0.52950000  1.0
  H  H446  1  0.21000000  0.92060000  0.51510000  1.0
  H  H447  1  0.22340000  0.93480000  0.58890000  1.0
  H  H448  1  0.19040000  0.94320000  0.59750000  1.0
  H  H449  1  0.19880000  0.98980000  0.58610000  1.0
  H  H450  1  0.23220000  0.98170000  0.57910000  1.0
  H  H451  1  0.11100000  0.88340000  0.57690000  1.0
  H  H452  1  0.12350000  0.91370000  0.58940000  1.0
  H  H453  1  0.12900000  0.83660000  0.59620000  1.0
  H  H454  1  0.14580000  0.89350000  0.51140000  1.0
  H  H455  1  0.12500000  0.87220000  0.53010000  1.0
  H  H456  1  0.20510000  0.84490000  0.50550000  1.0
  H  H457  1  0.19380000  0.87660000  0.49530000  1.0
  H  H458  1  0.14320000  0.82400000  0.54440000  1.0
  H  H459  1  0.17510000  0.81410000  0.53340000  1.0
  H  H460  1  0.16110000  0.56400000  0.12640000  1.0
  H  H461  1  0.21440000  0.56040000  0.09760000  1.0
  H  H462  1  0.24540000  0.46700000  0.02950000  1.0
  H  H463  1  0.21000000  0.42060000  0.01510000  1.0
  H  H464  1  0.22340000  0.43480000  0.08890000  1.0
  H  H465  1  0.19040000  0.44320000  0.09750000  1.0
  H  H466  1  0.19880000  0.48980000  0.08610000  1.0
  H  H467  1  0.23220000  0.48170000  0.07910000  1.0
  H  H468  1  0.11100000  0.38340000  0.07690000  1.0
  H  H469  1  0.12350000  0.41370000  0.08940000  1.0
  H  H470  1  0.12900000  0.33660000  0.09620000  1.0
  H  H471  1  0.14580000  0.39350000  0.01140000  1.0
  H  H472  1  0.12500000  0.37220000  0.03010000  1.0
  H  H473  1  0.20510000  0.34490000  0.00550000  1.0
  H  H474  1  0.19380000  0.37660000  0.99530000  1.0
  H  H475  1  0.14320000  0.32400000  0.04440000  1.0
  H  H476  1  0.17510000  0.31410000  0.03340000  1.0
  H  H477  1  0.16110000  0.68600000  0.12360000  1.0
  H  H478  1  0.21440000  0.68960000  0.15240000  1.0
  H  H479  1  0.24540000  0.78300000  0.22050000  1.0
  H  H480  1  0.21000000  0.82940000  0.23490000  1.0
  H  H481  1  0.22340000  0.81520000  0.16110000  1.0
  H  H482  1  0.19040000  0.80680000  0.15250000  1.0
  H  H483  1  0.19880000  0.76020000  0.16390000  1.0
  H  H484  1  0.23220000  0.76830000  0.17090000  1.0
  H  H485  1  0.11100000  0.86660000  0.17310000  1.0
  H  H486  1  0.12350000  0.83630000  0.16060000  1.0
  H  H487  1  0.12900000  0.91340000  0.15380000  1.0
  H  H488  1  0.14580000  0.85650000  0.23860000  1.0
  H  H489  1  0.12500000  0.87780000  0.21990000  1.0
  H  H490  1  0.20510000  0.90510000  0.24450000  1.0
  H  H491  1  0.19380000  0.87340000  0.25470000  1.0
  H  H492  1  0.14320000  0.92600000  0.20560000  1.0
  H  H493  1  0.17510000  0.93590000  0.21660000  1.0
  H  H494  1  0.16110000  0.18600000  0.62360000  1.0
  H  H495  1  0.21440000  0.18960000  0.65240000  1.0
  H  H496  1  0.24540000  0.28300000  0.72050000  1.0
  H  H497  1  0.21000000  0.32940000  0.73490000  1.0
  H  H498  1  0.22340000  0.31520000  0.66110000  1.0
  H  H499  1  0.19040000  0.30680000  0.65250000  1.0
  H  H500  1  0.19880000  0.26020000  0.66390000  1.0
  H  H501  1  0.23220000  0.26830000  0.67090000  1.0
  H  H502  1  0.11100000  0.36660000  0.67310000  1.0
  H  H503  1  0.12350000  0.33630000  0.66060000  1.0
  H  H504  1  0.12900000  0.41340000  0.65380000  1.0
  H  H505  1  0.14580000  0.35650000  0.73860000  1.0
  H  H506  1  0.12500000  0.37780000  0.71990000  1.0
  H  H507  1  0.20510000  0.40510000  0.74450000  1.0
  H  H508  1  0.19380000  0.37340000  0.75470000  1.0
  H  H509  1  0.14320000  0.42600000  0.70560000  1.0
  H  H510  1  0.17510000  0.43590000  0.71660000  1.0
  H  H511  1  0.66110000  0.68600000  0.62360000  1.0
  H  H512  1  0.71440000  0.68960000  0.65240000  1.0
  H  H513  1  0.74540000  0.78300000  0.72050000  1.0
  H  H514  1  0.71000000  0.82940000  0.73490000  1.0
  H  H515  1  0.72340000  0.81520000  0.66110000  1.0
  H  H516  1  0.69040000  0.80680000  0.65250000  1.0
  H  H517  1  0.69880000  0.76020000  0.66390000  1.0
  H  H518  1  0.73220000  0.76830000  0.67090000  1.0
  H  H519  1  0.61100000  0.86660000  0.67310000  1.0
  H  H520  1  0.62350000  0.83630000  0.66060000  1.0
  H  H521  1  0.62900000  0.91340000  0.65380000  1.0
  H  H522  1  0.64580000  0.85650000  0.73860000  1.0
  H  H523  1  0.62500000  0.87780000  0.71990000  1.0
  H  H524  1  0.70510000  0.90510000  0.74450000  1.0
  H  H525  1  0.69380000  0.87340000  0.75470000  1.0
  H  H526  1  0.64320000  0.92600000  0.70560000  1.0
  H  H527  1  0.67510000  0.93590000  0.71660000  1.0
  H  H528  1  0.66110000  0.18600000  0.12360000  1.0
  H  H529  1  0.71440000  0.18960000  0.15240000  1.0
  H  H530  1  0.74540000  0.28300000  0.22050000  1.0
  H  H531  1  0.71000000  0.32940000  0.23490000  1.0
  H  H532  1  0.72340000  0.31520000  0.16110000  1.0
  H  H533  1  0.69040000  0.30680000  0.15250000  1.0
  H  H534  1  0.69880000  0.26020000  0.16390000  1.0
  H  H535  1  0.73220000  0.26830000  0.17090000  1.0
  H  H536  1  0.61100000  0.36660000  0.17310000  1.0
  H  H537  1  0.62350000  0.33630000  0.16060000  1.0
  H  H538  1  0.62900000  0.41340000  0.15380000  1.0
  H  H539  1  0.64580000  0.35650000  0.23860000  1.0
  H  H540  1  0.62500000  0.37780000  0.21990000  1.0
  H  H541  1  0.70510000  0.40510000  0.24450000  1.0
  H  H542  1  0.69380000  0.37340000  0.25470000  1.0
  H  H543  1  0.64320000  0.42600000  0.20560000  1.0
  H  H544  1  0.67510000  0.43590000  0.21660000  1.0
  H  H545  1  0.62640000  0.08890000  0.18600000  1.0
  H  H546  1  0.59760000  0.03560000  0.18960000  1.0
  H  H547  1  0.52950000  0.00460000  0.28300000  1.0
  H  H548  1  0.51510000  0.04000000  0.32940000  1.0
  H  H549  1  0.58890000  0.02660000  0.31520000  1.0
  H  H550  1  0.59750000  0.05960000  0.30680000  1.0
  H  H551  1  0.58610000  0.05120000  0.26020000  1.0
  H  H552  1  0.57910000  0.01780000  0.26830000  1.0
  H  H553  1  0.57690000  0.13900000  0.36660000  1.0
  H  H554  1  0.58940000  0.12650000  0.33630000  1.0
  H  H555  1  0.59620000  0.12100000  0.41340000  1.0
  H  H556  1  0.51140000  0.10420000  0.35650000  1.0
  H  H557  1  0.53010000  0.12500000  0.37780000  1.0
  H  H558  1  0.50550000  0.04490000  0.40510000  1.0
  H  H559  1  0.49530000  0.05620000  0.37340000  1.0
  H  H560  1  0.54440000  0.10680000  0.42600000  1.0
  H  H561  1  0.53340000  0.07490000  0.43590000  1.0
  H  H562  1  0.62640000  0.58890000  0.68600000  1.0
  H  H563  1  0.59760000  0.53560000  0.68960000  1.0
  H  H564  1  0.52950000  0.50460000  0.78300000  1.0
  H  H565  1  0.51510000  0.54000000  0.82940000  1.0
  H  H566  1  0.58890000  0.52660000  0.81520000  1.0
  H  H567  1  0.59750000  0.55960000  0.80680000  1.0
  H  H568  1  0.58610000  0.55120000  0.76020000  1.0
  H  H569  1  0.57910000  0.51780000  0.76830000  1.0
  H  H570  1  0.57690000  0.63900000  0.86660000  1.0
  H  H571  1  0.58940000  0.62650000  0.83630000  1.0
  H  H572  1  0.59620000  0.62100000  0.91340000  1.0
  H  H573  1  0.51140000  0.60420000  0.85650000  1.0
  H  H574  1  0.53010000  0.62500000  0.87780000  1.0
  H  H575  1  0.50550000  0.54490000  0.90510000  1.0
  H  H576  1  0.49530000  0.55620000  0.87340000  1.0
  H  H577  1  0.54440000  0.60680000  0.92600000  1.0
  H  H578  1  0.53340000  0.57490000  0.93590000  1.0
  H  H579  1  0.12640000  0.08890000  0.68600000  1.0
  H  H580  1  0.09760000  0.03560000  0.68960000  1.0
  H  H581  1  0.02950000  0.00460000  0.78300000  1.0
  H  H582  1  0.01510000  0.04000000  0.82940000  1.0
  H  H583  1  0.08890000  0.02660000  0.81520000  1.0
  H  H584  1  0.09750000  0.05960000  0.80680000  1.0
  H  H585  1  0.08610000  0.05120000  0.76020000  1.0
  H  H586  1  0.07910000  0.01780000  0.76830000  1.0
  H  H587  1  0.07690000  0.13900000  0.86660000  1.0
  H  H588  1  0.08940000  0.12650000  0.83630000  1.0
  H  H589  1  0.09620000  0.12100000  0.91340000  1.0
  H  H590  1  0.01140000  0.10420000  0.85650000  1.0
  H  H591  1  0.03010000  0.12500000  0.87780000  1.0
  H  H592  1  0.00550000  0.04490000  0.90510000  1.0
  H  H593  1  0.99530000  0.05620000  0.87340000  1.0
  H  H594  1  0.04440000  0.10680000  0.92600000  1.0
  H  H595  1  0.03340000  0.07490000  0.93590000  1.0
  H  H596  1  0.12640000  0.58890000  0.18600000  1.0
  H  H597  1  0.09760000  0.53560000  0.18960000  1.0
  H  H598  1  0.02950000  0.50460000  0.28300000  1.0
  H  H599  1  0.01510000  0.54000000  0.32940000  1.0
  H  H600  1  0.08890000  0.52660000  0.31520000  1.0
  H  H601  1  0.09750000  0.55960000  0.30680000  1.0
  H  H602  1  0.08610000  0.55120000  0.26020000  1.0
  H  H603  1  0.07910000  0.51780000  0.26830000  1.0
  H  H604  1  0.07690000  0.63900000  0.36660000  1.0
  H  H605  1  0.08940000  0.62650000  0.33630000  1.0
  H  H606  1  0.09620000  0.62100000  0.41340000  1.0
  H  H607  1  0.01140000  0.60420000  0.35650000  1.0
  H  H608  1  0.03010000  0.62500000  0.37780000  1.0
  H  H609  1  0.00550000  0.54490000  0.40510000  1.0
  H  H610  1  0.99530000  0.55620000  0.37340000  1.0
  H  H611  1  0.04440000  0.60680000  0.42600000  1.0
  H  H612  1  0.03340000  0.57490000  0.43590000  1.0
  H  H613  1  0.62360000  0.58890000  0.56400000  1.0
  H  H614  1  0.65240000  0.53560000  0.56040000  1.0
  H  H615  1  0.72050000  0.50460000  0.46700000  1.0
  H  H616  1  0.73490000  0.54000000  0.42060000  1.0
  H  H617  1  0.66110000  0.52660000  0.43480000  1.0
  H  H618  1  0.65250000  0.55960000  0.44320000  1.0
  H  H619  1  0.66390000  0.55120000  0.48980000  1.0
  H  H620  1  0.67090000  0.51780000  0.48170000  1.0
  H  H621  1  0.67310000  0.63900000  0.38340000  1.0
  H  H622  1  0.66060000  0.62650000  0.41370000  1.0
  H  H623  1  0.65380000  0.62100000  0.33660000  1.0
  H  H624  1  0.73860000  0.60420000  0.39350000  1.0
  H  H625  1  0.71990000  0.62500000  0.37220000  1.0
  H  H626  1  0.74450000  0.54490000  0.34490000  1.0
  H  H627  1  0.75470000  0.55620000  0.37660000  1.0
  H  H628  1  0.70560000  0.60680000  0.32400000  1.0
  H  H629  1  0.71660000  0.57490000  0.31410000  1.0
  H  H630  1  0.62360000  0.08890000  0.06400000  1.0
  H  H631  1  0.65240000  0.03560000  0.06040000  1.0
  H  H632  1  0.72050000  0.00460000  0.96700000  1.0
  H  H633  1  0.73490000  0.04000000  0.92060000  1.0
  H  H634  1  0.66110000  0.02660000  0.93480000  1.0
  H  H635  1  0.65250000  0.05960000  0.94320000  1.0
  H  H636  1  0.66390000  0.05120000  0.98980000  1.0
  H  H637  1  0.67090000  0.01780000  0.98170000  1.0
  H  H638  1  0.67310000  0.13900000  0.88340000  1.0
  H  H639  1  0.66060000  0.12650000  0.91370000  1.0
  H  H640  1  0.65380000  0.12100000  0.83660000  1.0
  H  H641  1  0.73860000  0.10420000  0.89350000  1.0
  H  H642  1  0.71990000  0.12500000  0.87220000  1.0
  H  H643  1  0.74450000  0.04490000  0.84490000  1.0
  H  H644  1  0.75470000  0.05620000  0.87660000  1.0
  H  H645  1  0.70560000  0.10680000  0.82400000  1.0
  H  H646  1  0.71660000  0.07490000  0.81410000  1.0
  H  H647  1  0.12360000  0.58890000  0.06400000  1.0
  H  H648  1  0.15240000  0.53560000  0.06040000  1.0
  H  H649  1  0.22050000  0.50460000  0.96700000  1.0
  H  H650  1  0.23490000  0.54000000  0.92060000  1.0
  H  H651  1  0.16110000  0.52660000  0.93480000  1.0
  H  H652  1  0.15250000  0.55960000  0.94320000  1.0
  H  H653  1  0.16390000  0.55120000  0.98980000  1.0
  H  H654  1  0.17090000  0.51780000  0.98170000  1.0
  H  H655  1  0.17310000  0.63900000  0.88340000  1.0
  H  H656  1  0.16060000  0.62650000  0.91370000  1.0
  H  H657  1  0.15380000  0.62100000  0.83660000  1.0
  H  H658  1  0.23860000  0.60420000  0.89350000  1.0
  H  H659  1  0.21990000  0.62500000  0.87220000  1.0
  H  H660  1  0.24450000  0.54490000  0.84490000  1.0
  H  H661  1  0.25470000  0.55620000  0.87660000  1.0
  H  H662  1  0.20560000  0.60680000  0.82400000  1.0
  H  H663  1  0.21660000  0.57490000  0.81410000  1.0
  H  H664  1  0.12360000  0.08890000  0.56400000  1.0
  H  H665  1  0.15240000  0.03560000  0.56040000  1.0
  H  H666  1  0.22050000  0.00460000  0.46700000  1.0
  H  H667  1  0.23490000  0.04000000  0.42060000  1.0
  H  H668  1  0.16110000  0.02660000  0.43480000  1.0
  H  H669  1  0.15250000  0.05960000  0.44320000  1.0
  H  H670  1  0.16390000  0.05120000  0.48980000  1.0
  H  H671  1  0.17090000  0.01780000  0.48170000  1.0
  H  H672  1  0.17310000  0.13900000  0.38340000  1.0
  H  H673  1  0.16060000  0.12650000  0.41370000  1.0
  H  H674  1  0.15380000  0.12100000  0.33660000  1.0
  H  H675  1  0.23860000  0.10420000  0.39350000  1.0
  H  H676  1  0.21990000  0.12500000  0.37220000  1.0
  H  H677  1  0.24450000  0.04490000  0.34490000  1.0
  H  H678  1  0.25470000  0.05620000  0.37660000  1.0
  H  H679  1  0.20560000  0.10680000  0.32400000  1.0
  H  H680  1  0.21660000  0.07490000  0.31410000  1.0
  H  H681  1  0.12640000  0.66110000  0.06400000  1.0
  H  H682  1  0.09760000  0.71440000  0.06040000  1.0
  H  H683  1  0.02950000  0.74540000  0.96700000  1.0
  H  H684  1  0.01510000  0.71000000  0.92060000  1.0
  H  H685  1  0.08890000  0.72340000  0.93480000  1.0
  H  H686  1  0.09750000  0.69040000  0.94320000  1.0
  H  H687  1  0.08610000  0.69880000  0.98980000  1.0
  H  H688  1  0.07910000  0.73220000  0.98170000  1.0
  H  H689  1  0.07690000  0.61100000  0.88340000  1.0
  H  H690  1  0.08940000  0.62350000  0.91370000  1.0
  H  H691  1  0.09620000  0.62900000  0.83660000  1.0
  H  H692  1  0.01140000  0.64580000  0.89350000  1.0
  H  H693  1  0.03010000  0.62500000  0.87220000  1.0
  H  H694  1  0.00550000  0.70510000  0.84490000  1.0
  H  H695  1  0.99530000  0.69380000  0.87660000  1.0
  H  H696  1  0.04440000  0.64320000  0.82400000  1.0
  H  H697  1  0.03340000  0.67510000  0.81410000  1.0
  H  H698  1  0.12640000  0.16110000  0.56400000  1.0
  H  H699  1  0.09760000  0.21440000  0.56040000  1.0
  H  H700  1  0.02950000  0.24540000  0.46700000  1.0
  H  H701  1  0.01510000  0.21000000  0.42060000  1.0
  H  H702  1  0.08890000  0.22340000  0.43480000  1.0
  H  H703  1  0.09750000  0.19040000  0.44320000  1.0
  H  H704  1  0.08610000  0.19880000  0.48980000  1.0
  H  H705  1  0.07910000  0.23220000  0.48170000  1.0
  H  H706  1  0.07690000  0.11100000  0.38340000  1.0
  H  H707  1  0.08940000  0.12350000  0.41370000  1.0
  H  H708  1  0.09620000  0.12900000  0.33660000  1.0
  H  H709  1  0.01140000  0.14580000  0.39350000  1.0
  H  H710  1  0.03010000  0.12500000  0.37220000  1.0
  H  H711  1  0.00550000  0.20510000  0.34490000  1.0
  H  H712  1  0.99530000  0.19380000  0.37660000  1.0
  H  H713  1  0.04440000  0.14320000  0.32400000  1.0
  H  H714  1  0.03340000  0.17510000  0.31410000  1.0
  H  H715  1  0.62640000  0.66110000  0.56400000  1.0
  H  H716  1  0.59760000  0.71440000  0.56040000  1.0
  H  H717  1  0.52950000  0.74540000  0.46700000  1.0
  H  H718  1  0.51510000  0.71000000  0.42060000  1.0
  H  H719  1  0.58890000  0.72340000  0.43480000  1.0
  H  H720  1  0.59750000  0.69040000  0.44320000  1.0
  H  H721  1  0.58610000  0.69880000  0.48980000  1.0
  H  H722  1  0.57910000  0.73220000  0.48170000  1.0
  H  H723  1  0.57690000  0.61100000  0.38340000  1.0
  H  H724  1  0.58940000  0.62350000  0.41370000  1.0
  H  H725  1  0.59620000  0.62900000  0.33660000  1.0
  H  H726  1  0.51140000  0.64580000  0.39350000  1.0
  H  H727  1  0.53010000  0.62500000  0.37220000  1.0
  H  H728  1  0.50550000  0.70510000  0.34490000  1.0
  H  H729  1  0.49530000  0.69380000  0.37660000  1.0
  H  H730  1  0.54440000  0.64320000  0.32400000  1.0
  H  H731  1  0.53340000  0.67510000  0.31410000  1.0
  H  H732  1  0.62640000  0.16110000  0.06400000  1.0
  H  H733  1  0.59760000  0.21440000  0.06040000  1.0
  H  H734  1  0.52950000  0.24540000  0.96700000  1.0
  H  H735  1  0.51510000  0.21000000  0.92060000  1.0
  H  H736  1  0.58890000  0.22340000  0.93480000  1.0
  H  H737  1  0.59750000  0.19040000  0.94320000  1.0
  H  H738  1  0.58610000  0.19880000  0.98980000  1.0
  H  H739  1  0.57910000  0.23220000  0.98170000  1.0
  H  H740  1  0.57690000  0.11100000  0.88340000  1.0
  H  H741  1  0.58940000  0.12350000  0.91370000  1.0
  H  H742  1  0.59620000  0.12900000  0.83660000  1.0
  H  H743  1  0.51140000  0.14580000  0.89350000  1.0
  H  H744  1  0.53010000  0.12500000  0.87220000  1.0
  H  H745  1  0.50550000  0.20510000  0.84490000  1.0
  H  H746  1  0.49530000  0.19380000  0.87660000  1.0
  H  H747  1  0.54440000  0.14320000  0.82400000  1.0
  H  H748  1  0.53340000  0.17510000  0.81410000  1.0
  H  H749  1  0.12360000  0.16110000  0.68600000  1.0
  H  H750  1  0.15240000  0.21440000  0.68960000  1.0
  H  H751  1  0.22050000  0.24540000  0.78300000  1.0
  H  H752  1  0.23490000  0.21000000  0.82940000  1.0
  H  H753  1  0.16110000  0.22340000  0.81520000  1.0
  H  H754  1  0.15250000  0.19040000  0.80680000  1.0
  H  H755  1  0.16390000  0.19880000  0.76020000  1.0
  H  H756  1  0.17090000  0.23220000  0.76830000  1.0
  H  H757  1  0.17310000  0.11100000  0.86660000  1.0
  H  H758  1  0.16060000  0.12350000  0.83630000  1.0
  H  H759  1  0.15380000  0.12900000  0.91340000  1.0
  H  H760  1  0.23860000  0.14580000  0.85650000  1.0
  H  H761  1  0.21990000  0.12500000  0.87780000  1.0
  H  H762  1  0.24450000  0.20510000  0.90510000  1.0
  H  H763  1  0.25470000  0.19380000  0.87340000  1.0
  H  H764  1  0.20560000  0.14320000  0.92600000  1.0
  H  H765  1  0.21660000  0.17510000  0.93590000  1.0
  H  H766  1  0.12360000  0.66110000  0.18600000  1.0
  H  H767  1  0.15240000  0.71440000  0.18960000  1.0
  H  H768  1  0.22050000  0.74540000  0.28300000  1.0
  H  H769  1  0.23490000  0.71000000  0.32940000  1.0
  H  H770  1  0.16110000  0.72340000  0.31520000  1.0
  H  H771  1  0.15250000  0.69040000  0.30680000  1.0
  H  H772  1  0.16390000  0.69880000  0.26020000  1.0
  H  H773  1  0.17090000  0.73220000  0.26830000  1.0
  H  H774  1  0.17310000  0.61100000  0.36660000  1.0
  H  H775  1  0.16060000  0.62350000  0.33630000  1.0
  H  H776  1  0.15380000  0.62900000  0.41340000  1.0
  H  H777  1  0.23860000  0.64580000  0.35650000  1.0
  H  H778  1  0.21990000  0.62500000  0.37780000  1.0
  H  H779  1  0.24450000  0.70510000  0.40510000  1.0
  H  H780  1  0.25470000  0.69380000  0.37340000  1.0
  H  H781  1  0.20560000  0.64320000  0.42600000  1.0
  H  H782  1  0.21660000  0.67510000  0.43590000  1.0
  H  H783  1  0.62360000  0.16110000  0.18600000  1.0
  H  H784  1  0.65240000  0.21440000  0.18960000  1.0
  H  H785  1  0.72050000  0.24540000  0.28300000  1.0
  H  H786  1  0.73490000  0.21000000  0.32940000  1.0
  H  H787  1  0.66110000  0.22340000  0.31520000  1.0
  H  H788  1  0.65250000  0.19040000  0.30680000  1.0
  H  H789  1  0.66390000  0.19880000  0.26020000  1.0
  H  H790  1  0.67090000  0.23220000  0.26830000  1.0
  H  H791  1  0.67310000  0.11100000  0.36660000  1.0
  H  H792  1  0.66060000  0.12350000  0.33630000  1.0
  H  H793  1  0.65380000  0.12900000  0.41340000  1.0
  H  H794  1  0.73860000  0.14580000  0.35650000  1.0
  H  H795  1  0.71990000  0.12500000  0.37780000  1.0
  H  H796  1  0.74450000  0.20510000  0.40510000  1.0
  H  H797  1  0.75470000  0.19380000  0.37340000  1.0
  H  H798  1  0.70560000  0.14320000  0.42600000  1.0
  H  H799  1  0.71660000  0.17510000  0.43590000  1.0
  H  H800  1  0.62360000  0.66110000  0.68600000  1.0
  H  H801  1  0.65240000  0.71440000  0.68960000  1.0
  H  H802  1  0.72050000  0.74540000  0.78300000  1.0
  H  H803  1  0.73490000  0.71000000  0.82940000  1.0
  H  H804  1  0.66110000  0.72340000  0.81520000  1.0
  H  H805  1  0.65250000  0.69040000  0.80680000  1.0
  H  H806  1  0.66390000  0.69880000  0.76020000  1.0
  H  H807  1  0.67090000  0.73220000  0.76830000  1.0
  H  H808  1  0.67310000  0.61100000  0.86660000  1.0
  H  H809  1  0.66060000  0.62350000  0.83630000  1.0
  H  H810  1  0.65380000  0.62900000  0.91340000  1.0
  H  H811  1  0.73860000  0.64580000  0.85650000  1.0
  H  H812  1  0.71990000  0.62500000  0.87780000  1.0
  H  H813  1  0.74450000  0.70510000  0.90510000  1.0
  H  H814  1  0.75470000  0.69380000  0.87340000  1.0
  H  H815  1  0.70560000  0.64320000  0.92600000  1.0
  H  H816  1  0.71660000  0.67510000  0.93590000  1.0
  H  H817  1  0.37640000  0.43600000  0.41110000  1.0
  H  H818  1  0.34760000  0.43960000  0.46440000  1.0
  H  H819  1  0.27950000  0.53300000  0.49540000  1.0
  H  H820  1  0.26510000  0.57940000  0.46000000  1.0
  H  H821  1  0.33890000  0.56520000  0.47340000  1.0
  H  H822  1  0.34750000  0.55680000  0.44040000  1.0
  H  H823  1  0.33610000  0.51020000  0.44880000  1.0
  H  H824  1  0.32910000  0.51830000  0.48220000  1.0
  H  H825  1  0.32690000  0.61660000  0.36100000  1.0
  H  H826  1  0.33940000  0.58630000  0.37350000  1.0
  H  H827  1  0.34620000  0.66340000  0.37900000  1.0
  H  H828  1  0.26140000  0.60650000  0.39580000  1.0
  H  H829  1  0.28010000  0.62780000  0.37500000  1.0
  H  H830  1  0.25550000  0.65510000  0.45510000  1.0
  H  H831  1  0.24530000  0.62340000  0.44380000  1.0
  H  H832  1  0.29440000  0.67600000  0.39320000  1.0
  H  H833  1  0.28340000  0.68590000  0.42510000  1.0
  H  H834  1  0.37640000  0.93600000  0.91110000  1.0
  H  H835  1  0.34760000  0.93960000  0.96440000  1.0
  H  H836  1  0.27950000  0.03300000  0.99540000  1.0
  H  H837  1  0.26510000  0.07940000  0.96000000  1.0
  H  H838  1  0.33890000  0.06520000  0.97340000  1.0
  H  H839  1  0.34750000  0.05680000  0.94040000  1.0
  H  H840  1  0.33610000  0.01020000  0.94880000  1.0
  H  H841  1  0.32910000  0.01830000  0.98220000  1.0
  H  H842  1  0.32690000  0.11660000  0.86100000  1.0
  H  H843  1  0.33940000  0.08630000  0.87350000  1.0
  H  H844  1  0.34620000  0.16340000  0.87900000  1.0
  H  H845  1  0.26140000  0.10650000  0.89580000  1.0
  H  H846  1  0.28010000  0.12780000  0.87500000  1.0
  H  H847  1  0.25550000  0.15510000  0.95510000  1.0
  H  H848  1  0.24530000  0.12340000  0.94380000  1.0
  H  H849  1  0.29440000  0.17600000  0.89320000  1.0
  H  H850  1  0.28340000  0.18590000  0.92510000  1.0
  H  H851  1  0.87640000  0.43600000  0.91110000  1.0
  H  H852  1  0.84760000  0.43960000  0.96440000  1.0
  H  H853  1  0.77950000  0.53300000  0.99540000  1.0
  H  H854  1  0.76510000  0.57940000  0.96000000  1.0
  H  H855  1  0.83890000  0.56520000  0.97340000  1.0
  H  H856  1  0.84750000  0.55680000  0.94040000  1.0
  H  H857  1  0.83610000  0.51020000  0.94880000  1.0
  H  H858  1  0.82910000  0.51830000  0.98220000  1.0
  H  H859  1  0.82690000  0.61660000  0.86100000  1.0
  H  H860  1  0.83940000  0.58630000  0.87350000  1.0
  H  H861  1  0.84620000  0.66340000  0.87900000  1.0
  H  H862  1  0.76140000  0.60650000  0.89580000  1.0
  H  H863  1  0.78010000  0.62780000  0.87500000  1.0
  H  H864  1  0.75550000  0.65510000  0.95510000  1.0
  H  H865  1  0.74530000  0.62340000  0.94380000  1.0
  H  H866  1  0.79440000  0.67600000  0.89320000  1.0
  H  H867  1  0.78340000  0.68590000  0.92510000  1.0
  H  H868  1  0.87640000  0.93600000  0.41110000  1.0
  H  H869  1  0.84760000  0.93960000  0.46440000  1.0
  H  H870  1  0.77950000  0.03300000  0.49540000  1.0
  H  H871  1  0.76510000  0.07940000  0.46000000  1.0
  H  H872  1  0.83890000  0.06520000  0.47340000  1.0
  H  H873  1  0.84750000  0.05680000  0.44040000  1.0
  H  H874  1  0.83610000  0.01020000  0.44880000  1.0
  H  H875  1  0.82910000  0.01830000  0.48220000  1.0
  H  H876  1  0.82690000  0.11660000  0.36100000  1.0
  H  H877  1  0.83940000  0.08630000  0.37350000  1.0
  H  H878  1  0.84620000  0.16340000  0.37900000  1.0
  H  H879  1  0.76140000  0.10650000  0.39580000  1.0
  H  H880  1  0.78010000  0.12780000  0.37500000  1.0
  H  H881  1  0.75550000  0.15510000  0.45510000  1.0
  H  H882  1  0.74530000  0.12340000  0.44380000  1.0
  H  H883  1  0.79440000  0.17600000  0.39320000  1.0
  H  H884  1  0.78340000  0.18590000  0.42510000  1.0
  H  H885  1  0.37360000  0.81400000  0.91110000  1.0
  H  H886  1  0.40240000  0.81040000  0.96440000  1.0
  H  H887  1  0.47050000  0.71700000  0.99540000  1.0
  H  H888  1  0.48490000  0.67060000  0.96000000  1.0
  H  H889  1  0.41110000  0.68480000  0.97340000  1.0
  H  H890  1  0.40250000  0.69320000  0.94040000  1.0
  H  H891  1  0.41390000  0.73980000  0.94880000  1.0
  H  H892  1  0.42090000  0.73170000  0.98220000  1.0
  H  H893  1  0.42310000  0.63340000  0.86100000  1.0
  H  H894  1  0.41060000  0.66370000  0.87350000  1.0
  H  H895  1  0.40380000  0.58660000  0.87900000  1.0
  H  H896  1  0.48860000  0.64350000  0.89580000  1.0
  H  H897  1  0.46990000  0.62220000  0.87500000  1.0
  H  H898  1  0.49450000  0.59490000  0.95510000  1.0
  H  H899  1  0.50470000  0.62660000  0.94380000  1.0
  H  H900  1  0.45560000  0.57400000  0.89320000  1.0
  H  H901  1  0.46660000  0.56410000  0.92510000  1.0
  H  H902  1  0.37360000  0.31400000  0.41110000  1.0
  H  H903  1  0.40240000  0.31040000  0.46440000  1.0
  H  H904  1  0.47050000  0.21700000  0.49540000  1.0
  H  H905  1  0.48490000  0.17060000  0.46000000  1.0
  H  H906  1  0.41110000  0.18480000  0.47340000  1.0
  H  H907  1  0.40250000  0.19320000  0.44040000  1.0
  H  H908  1  0.41390000  0.23980000  0.44880000  1.0
  H  H909  1  0.42090000  0.23170000  0.48220000  1.0
  H  H910  1  0.42310000  0.13340000  0.36100000  1.0
  H  H911  1  0.41060000  0.16370000  0.37350000  1.0
  H  H912  1  0.40380000  0.08660000  0.37900000  1.0
  H  H913  1  0.48860000  0.14350000  0.39580000  1.0
  H  H914  1  0.46990000  0.12220000  0.37500000  1.0
  H  H915  1  0.49450000  0.09490000  0.45510000  1.0
  H  H916  1  0.50470000  0.12660000  0.44380000  1.0
  H  H917  1  0.45560000  0.07400000  0.39320000  1.0
  H  H918  1  0.46660000  0.06410000  0.42510000  1.0
  H  H919  1  0.87360000  0.81400000  0.41110000  1.0
  H  H920  1  0.90240000  0.81040000  0.46440000  1.0
  H  H921  1  0.97050000  0.71700000  0.49540000  1.0
  H  H922  1  0.98490000  0.67060000  0.46000000  1.0
  H  H923  1  0.91110000  0.68480000  0.47340000  1.0
  H  H924  1  0.90250000  0.69320000  0.44040000  1.0
  H  H925  1  0.91390000  0.73980000  0.44880000  1.0
  H  H926  1  0.92090000  0.73170000  0.48220000  1.0
  H  H927  1  0.92310000  0.63340000  0.36100000  1.0
  H  H928  1  0.91060000  0.66370000  0.37350000  1.0
  H  H929  1  0.90380000  0.58660000  0.37900000  1.0
  H  H930  1  0.98860000  0.64350000  0.39580000  1.0
  H  H931  1  0.96990000  0.62220000  0.37500000  1.0
  H  H932  1  0.99450000  0.59490000  0.45510000  1.0
  H  H933  1  0.00470000  0.62660000  0.44380000  1.0
  H  H934  1  0.95560000  0.57400000  0.39320000  1.0
  H  H935  1  0.96660000  0.56410000  0.42510000  1.0
  H  H936  1  0.87360000  0.31400000  0.91110000  1.0
  H  H937  1  0.90240000  0.31040000  0.96440000  1.0
  H  H938  1  0.97050000  0.21700000  0.99540000  1.0
  H  H939  1  0.98490000  0.17060000  0.96000000  1.0
  H  H940  1  0.91110000  0.18480000  0.97340000  1.0
  H  H941  1  0.90250000  0.19320000  0.94040000  1.0
  H  H942  1  0.91390000  0.23980000  0.94880000  1.0
  H  H943  1  0.92090000  0.23170000  0.98220000  1.0
  H  H944  1  0.92310000  0.13340000  0.86100000  1.0
  H  H945  1  0.91060000  0.16370000  0.87350000  1.0
  H  H946  1  0.90380000  0.08660000  0.87900000  1.0
  H  H947  1  0.98860000  0.14350000  0.89580000  1.0
  H  H948  1  0.96990000  0.12220000  0.87500000  1.0
  H  H949  1  0.99450000  0.09490000  0.95510000  1.0
  H  H950  1  0.00470000  0.12660000  0.94380000  1.0
  H  H951  1  0.95560000  0.07400000  0.89320000  1.0
  H  H952  1  0.96660000  0.06410000  0.92510000  1.0
  H  H953  1  0.87640000  0.31400000  0.83890000  1.0
  H  H954  1  0.84760000  0.31040000  0.78560000  1.0
  H  H955  1  0.77950000  0.21700000  0.75460000  1.0
  H  H956  1  0.76510000  0.17060000  0.79000000  1.0
  H  H957  1  0.83890000  0.18480000  0.77660000  1.0
  H  H958  1  0.84750000  0.19320000  0.80960000  1.0
  H  H959  1  0.83610000  0.23980000  0.80120000  1.0
  H  H960  1  0.82910000  0.23170000  0.76780000  1.0
  H  H961  1  0.82690000  0.13340000  0.88900000  1.0
  H  H962  1  0.83940000  0.16370000  0.87650000  1.0
  H  H963  1  0.84620000  0.08660000  0.87100000  1.0
  H  H964  1  0.76140000  0.14350000  0.85420000  1.0
  H  H965  1  0.78010000  0.12220000  0.87500000  1.0
  H  H966  1  0.75550000  0.09490000  0.79490000  1.0
  H  H967  1  0.74530000  0.12660000  0.80620000  1.0
  H  H968  1  0.79440000  0.07400000  0.85680000  1.0
  H  H969  1  0.78340000  0.06410000  0.82490000  1.0
  H  H970  1  0.87640000  0.81400000  0.33890000  1.0
  H  H971  1  0.84760000  0.81040000  0.28560000  1.0
  H  H972  1  0.77950000  0.71700000  0.25460000  1.0
  H  H973  1  0.76510000  0.67060000  0.29000000  1.0
  H  H974  1  0.83890000  0.68480000  0.27660000  1.0
  H  H975  1  0.84750000  0.69320000  0.30960000  1.0
  H  H976  1  0.83610000  0.73980000  0.30120000  1.0
  H  H977  1  0.82910000  0.73170000  0.26780000  1.0
  H  H978  1  0.82690000  0.63340000  0.38900000  1.0
  H  H979  1  0.83940000  0.66370000  0.37650000  1.0
  H  H980  1  0.84620000  0.58660000  0.37100000  1.0
  H  H981  1  0.76140000  0.64350000  0.35420000  1.0
  H  H982  1  0.78010000  0.62220000  0.37500000  1.0
  H  H983  1  0.75550000  0.59490000  0.29490000  1.0
  H  H984  1  0.74530000  0.62660000  0.30620000  1.0
  H  H985  1  0.79440000  0.57400000  0.35680000  1.0
  H  H986  1  0.78340000  0.56410000  0.32490000  1.0
  H  H987  1  0.37640000  0.31400000  0.33890000  1.0
  H  H988  1  0.34760000  0.31040000  0.28560000  1.0
  H  H989  1  0.27950000  0.21700000  0.25460000  1.0
  H  H990  1  0.26510000  0.17060000  0.29000000  1.0
  H  H991  1  0.33890000  0.18480000  0.27660000  1.0
  H  H992  1  0.34750000  0.19320000  0.30960000  1.0
  H  H993  1  0.33610000  0.23980000  0.30120000  1.0
  H  H994  1  0.32910000  0.23170000  0.26780000  1.0
  H  H995  1  0.32690000  0.13340000  0.38900000  1.0
  H  H996  1  0.33940000  0.16370000  0.37650000  1.0
  H  H997  1  0.34620000  0.08660000  0.37100000  1.0
  H  H998  1  0.26140000  0.14350000  0.35420000  1.0
  H  H999  1  0.28010000  0.12220000  0.37500000  1.0
  H  H1000  1  0.25550000  0.09490000  0.29490000  1.0
  H  H1001  1  0.24530000  0.12660000  0.30620000  1.0
  H  H1002  1  0.29440000  0.07400000  0.35680000  1.0
  H  H1003  1  0.28340000  0.06410000  0.32490000  1.0
  H  H1004  1  0.37640000  0.81400000  0.83890000  1.0
  H  H1005  1  0.34760000  0.81040000  0.78560000  1.0
  H  H1006  1  0.27950000  0.71700000  0.75460000  1.0
  H  H1007  1  0.26510000  0.67060000  0.79000000  1.0
  H  H1008  1  0.33890000  0.68480000  0.77660000  1.0
  H  H1009  1  0.34750000  0.69320000  0.80960000  1.0
  H  H1010  1  0.33610000  0.73980000  0.80120000  1.0
  H  H1011  1  0.32910000  0.73170000  0.76780000  1.0
  H  H1012  1  0.32690000  0.63340000  0.88900000  1.0
  H  H1013  1  0.33940000  0.66370000  0.87650000  1.0
  H  H1014  1  0.34620000  0.58660000  0.87100000  1.0
  H  H1015  1  0.26140000  0.64350000  0.85420000  1.0
  H  H1016  1  0.28010000  0.62220000  0.87500000  1.0
  H  H1017  1  0.25550000  0.59490000  0.79490000  1.0
  H  H1018  1  0.24530000  0.62660000  0.80620000  1.0
  H  H1019  1  0.29440000  0.57400000  0.85680000  1.0
  H  H1020  1  0.28340000  0.56410000  0.82490000  1.0
  H  H1021  1  0.87360000  0.93600000  0.33890000  1.0
  H  H1022  1  0.90240000  0.93960000  0.28560000  1.0
  H  H1023  1  0.97050000  0.03300000  0.25460000  1.0
  H  H1024  1  0.98490000  0.07940000  0.29000000  1.0
  H  H1025  1  0.91110000  0.06520000  0.27660000  1.0
  H  H1026  1  0.90250000  0.05680000  0.30960000  1.0
  H  H1027  1  0.91390000  0.01020000  0.30120000  1.0
  H  H1028  1  0.92090000  0.01830000  0.26780000  1.0
  H  H1029  1  0.92310000  0.11660000  0.38900000  1.0
  H  H1030  1  0.91060000  0.08630000  0.37650000  1.0
  H  H1031  1  0.90380000  0.16340000  0.37100000  1.0
  H  H1032  1  0.98860000  0.10650000  0.35420000  1.0
  H  H1033  1  0.96990000  0.12780000  0.37500000  1.0
  H  H1034  1  0.99450000  0.15510000  0.29490000  1.0
  H  H1035  1  0.00470000  0.12340000  0.30620000  1.0
  H  H1036  1  0.95560000  0.17600000  0.35680000  1.0
  H  H1037  1  0.96660000  0.18590000  0.32490000  1.0
  H  H1038  1  0.87360000  0.43600000  0.83890000  1.0
  H  H1039  1  0.90240000  0.43960000  0.78560000  1.0
  H  H1040  1  0.97050000  0.53300000  0.75460000  1.0
  H  H1041  1  0.98490000  0.57940000  0.79000000  1.0
  H  H1042  1  0.91110000  0.56520000  0.77660000  1.0
  H  H1043  1  0.90250000  0.55680000  0.80960000  1.0
  H  H1044  1  0.91390000  0.51020000  0.80120000  1.0
  H  H1045  1  0.92090000  0.51830000  0.76780000  1.0
  H  H1046  1  0.92310000  0.61660000  0.88900000  1.0
  H  H1047  1  0.91060000  0.58630000  0.87650000  1.0
  H  H1048  1  0.90380000  0.66340000  0.87100000  1.0
  H  H1049  1  0.98860000  0.60650000  0.85420000  1.0
  H  H1050  1  0.96990000  0.62780000  0.87500000  1.0
  H  H1051  1  0.99450000  0.65510000  0.79490000  1.0
  H  H1052  1  0.00470000  0.62340000  0.80620000  1.0
  H  H1053  1  0.95560000  0.67600000  0.85680000  1.0
  H  H1054  1  0.96660000  0.68590000  0.82490000  1.0
  H  H1055  1  0.37360000  0.93600000  0.83890000  1.0
  H  H1056  1  0.40240000  0.93960000  0.78560000  1.0
  H  H1057  1  0.47050000  0.03300000  0.75460000  1.0
  H  H1058  1  0.48490000  0.07940000  0.79000000  1.0
  H  H1059  1  0.41110000  0.06520000  0.77660000  1.0
  H  H1060  1  0.40250000  0.05680000  0.80960000  1.0
  H  H1061  1  0.41390000  0.01020000  0.80120000  1.0
  H  H1062  1  0.42090000  0.01830000  0.76780000  1.0
  H  H1063  1  0.42310000  0.11660000  0.88900000  1.0
  H  H1064  1  0.41060000  0.08630000  0.87650000  1.0
  H  H1065  1  0.40380000  0.16340000  0.87100000  1.0
  H  H1066  1  0.48860000  0.10650000  0.85420000  1.0
  H  H1067  1  0.46990000  0.12780000  0.87500000  1.0
  H  H1068  1  0.49450000  0.15510000  0.79490000  1.0
  H  H1069  1  0.50470000  0.12340000  0.80620000  1.0
  H  H1070  1  0.45560000  0.17600000  0.85680000  1.0
  H  H1071  1  0.46660000  0.18590000  0.82490000  1.0
  H  H1072  1  0.37360000  0.43600000  0.33890000  1.0
  H  H1073  1  0.40240000  0.43960000  0.28560000  1.0
  H  H1074  1  0.47050000  0.53300000  0.25460000  1.0
  H  H1075  1  0.48490000  0.57940000  0.29000000  1.0
  H  H1076  1  0.41110000  0.56520000  0.27660000  1.0
  H  H1077  1  0.40250000  0.55680000  0.30960000  1.0
  H  H1078  1  0.41390000  0.51020000  0.30120000  1.0
  H  H1079  1  0.42090000  0.51830000  0.26780000  1.0
  H  H1080  1  0.42310000  0.61660000  0.38900000  1.0
  H  H1081  1  0.41060000  0.58630000  0.37650000  1.0
  H  H1082  1  0.40380000  0.66340000  0.37100000  1.0
  H  H1083  1  0.48860000  0.60650000  0.35420000  1.0
  H  H1084  1  0.46990000  0.62780000  0.37500000  1.0
  H  H1085  1  0.49450000  0.65510000  0.29490000  1.0
  H  H1086  1  0.50470000  0.62340000  0.30620000  1.0
  H  H1087  1  0.45560000  0.67600000  0.35680000  1.0
  H  H1088  1  0.46660000  0.68590000  0.32490000  1.0
  H  H1089  1  0.93600000  0.33890000  0.87360000  1.0
  H  H1090  1  0.93960000  0.28560000  0.90240000  1.0
  H  H1091  1  0.03300000  0.25460000  0.97050000  1.0
  H  H1092  1  0.07940000  0.29000000  0.98490000  1.0
  H  H1093  1  0.06520000  0.27660000  0.91110000  1.0
  H  H1094  1  0.05680000  0.30960000  0.90250000  1.0
  H  H1095  1  0.01020000  0.30120000  0.91390000  1.0
  H  H1096  1  0.01830000  0.26780000  0.92090000  1.0
  H  H1097  1  0.11660000  0.38900000  0.92310000  1.0
  H  H1098  1  0.08630000  0.37650000  0.91060000  1.0
  H  H1099  1  0.16340000  0.37100000  0.90380000  1.0
  H  H1100  1  0.10650000  0.35420000  0.98860000  1.0
  H  H1101  1  0.12780000  0.37500000  0.96990000  1.0
  H  H1102  1  0.15510000  0.29490000  0.99450000  1.0
  H  H1103  1  0.12340000  0.30620000  0.00470000  1.0
  H  H1104  1  0.17600000  0.35680000  0.95560000  1.0
  H  H1105  1  0.18590000  0.32490000  0.96660000  1.0
  H  H1106  1  0.93600000  0.83890000  0.37360000  1.0
  H  H1107  1  0.93960000  0.78560000  0.40240000  1.0
  H  H1108  1  0.03300000  0.75460000  0.47050000  1.0
  H  H1109  1  0.07940000  0.79000000  0.48490000  1.0
  H  H1110  1  0.06520000  0.77660000  0.41110000  1.0
  H  H1111  1  0.05680000  0.80960000  0.40250000  1.0
  H  H1112  1  0.01020000  0.80120000  0.41390000  1.0
  H  H1113  1  0.01830000  0.76780000  0.42090000  1.0
  H  H1114  1  0.11660000  0.88900000  0.42310000  1.0
  H  H1115  1  0.08630000  0.87650000  0.41060000  1.0
  H  H1116  1  0.16340000  0.87100000  0.40380000  1.0
  H  H1117  1  0.10650000  0.85420000  0.48860000  1.0
  H  H1118  1  0.12780000  0.87500000  0.46990000  1.0
  H  H1119  1  0.15510000  0.79490000  0.49450000  1.0
  H  H1120  1  0.12340000  0.80620000  0.50470000  1.0
  H  H1121  1  0.17600000  0.85680000  0.45560000  1.0
  H  H1122  1  0.18590000  0.82490000  0.46660000  1.0
  H  H1123  1  0.43600000  0.33890000  0.37360000  1.0
  H  H1124  1  0.43960000  0.28560000  0.40240000  1.0
  H  H1125  1  0.53300000  0.25460000  0.47050000  1.0
  H  H1126  1  0.57940000  0.29000000  0.48490000  1.0
  H  H1127  1  0.56520000  0.27660000  0.41110000  1.0
  H  H1128  1  0.55680000  0.30960000  0.40250000  1.0
  H  H1129  1  0.51020000  0.30120000  0.41390000  1.0
  H  H1130  1  0.51830000  0.26780000  0.42090000  1.0
  H  H1131  1  0.61660000  0.38900000  0.42310000  1.0
  H  H1132  1  0.58630000  0.37650000  0.41060000  1.0
  H  H1133  1  0.66340000  0.37100000  0.40380000  1.0
  H  H1134  1  0.60650000  0.35420000  0.48860000  1.0
  H  H1135  1  0.62780000  0.37500000  0.46990000  1.0
  H  H1136  1  0.65510000  0.29490000  0.49450000  1.0
  H  H1137  1  0.62340000  0.30620000  0.50470000  1.0
  H  H1138  1  0.67600000  0.35680000  0.45560000  1.0
  H  H1139  1  0.68590000  0.32490000  0.46660000  1.0
  H  H1140  1  0.43600000  0.83890000  0.87360000  1.0
  H  H1141  1  0.43960000  0.78560000  0.90240000  1.0
  H  H1142  1  0.53300000  0.75460000  0.97050000  1.0
  H  H1143  1  0.57940000  0.79000000  0.98490000  1.0
  H  H1144  1  0.56520000  0.77660000  0.91110000  1.0
  H  H1145  1  0.55680000  0.80960000  0.90250000  1.0
  H  H1146  1  0.51020000  0.80120000  0.91390000  1.0
  H  H1147  1  0.51830000  0.76780000  0.92090000  1.0
  H  H1148  1  0.61660000  0.88900000  0.92310000  1.0
  H  H1149  1  0.58630000  0.87650000  0.91060000  1.0
  H  H1150  1  0.66340000  0.87100000  0.90380000  1.0
  H  H1151  1  0.60650000  0.85420000  0.98860000  1.0
  H  H1152  1  0.62780000  0.87500000  0.96990000  1.0
  H  H1153  1  0.65510000  0.79490000  0.99450000  1.0
  H  H1154  1  0.62340000  0.80620000  0.00470000  1.0
  H  H1155  1  0.67600000  0.85680000  0.95560000  1.0
  H  H1156  1  0.68590000  0.82490000  0.96660000  1.0
  H  H1157  1  0.31400000  0.83890000  0.87640000  1.0
  H  H1158  1  0.31040000  0.78560000  0.84760000  1.0
  H  H1159  1  0.21700000  0.75460000  0.77950000  1.0
  H  H1160  1  0.17060000  0.79000000  0.76510000  1.0
  H  H1161  1  0.18480000  0.77660000  0.83890000  1.0
  H  H1162  1  0.19320000  0.80960000  0.84750000  1.0
  H  H1163  1  0.23980000  0.80120000  0.83610000  1.0
  H  H1164  1  0.23170000  0.76780000  0.82910000  1.0
  H  H1165  1  0.13340000  0.88900000  0.82690000  1.0
  H  H1166  1  0.16370000  0.87650000  0.83940000  1.0
  H  H1167  1  0.08660000  0.87100000  0.84620000  1.0
  H  H1168  1  0.14350000  0.85420000  0.76140000  1.0
  H  H1169  1  0.12220000  0.87500000  0.78010000  1.0
  H  H1170  1  0.09490000  0.79490000  0.75550000  1.0
  H  H1171  1  0.12660000  0.80620000  0.74530000  1.0
  H  H1172  1  0.07400000  0.85680000  0.79440000  1.0
  H  H1173  1  0.06410000  0.82490000  0.78340000  1.0
  H  H1174  1  0.31400000  0.33890000  0.37640000  1.0
  H  H1175  1  0.31040000  0.28560000  0.34760000  1.0
  H  H1176  1  0.21700000  0.25460000  0.27950000  1.0
  H  H1177  1  0.17060000  0.29000000  0.26510000  1.0
  H  H1178  1  0.18480000  0.27660000  0.33890000  1.0
  H  H1179  1  0.19320000  0.30960000  0.34750000  1.0
  H  H1180  1  0.23980000  0.30120000  0.33610000  1.0
  H  H1181  1  0.23170000  0.26780000  0.32910000  1.0
  H  H1182  1  0.13340000  0.38900000  0.32690000  1.0
  H  H1183  1  0.16370000  0.37650000  0.33940000  1.0
  H  H1184  1  0.08660000  0.37100000  0.34620000  1.0
  H  H1185  1  0.14350000  0.35420000  0.26140000  1.0
  H  H1186  1  0.12220000  0.37500000  0.28010000  1.0
  H  H1187  1  0.09490000  0.29490000  0.25550000  1.0
  H  H1188  1  0.12660000  0.30620000  0.24530000  1.0
  H  H1189  1  0.07400000  0.35680000  0.29440000  1.0
  H  H1190  1  0.06410000  0.32490000  0.28340000  1.0
  H  H1191  1  0.81400000  0.83890000  0.37640000  1.0
  H  H1192  1  0.81040000  0.78560000  0.34760000  1.0
  H  H1193  1  0.71700000  0.75460000  0.27950000  1.0
  H  H1194  1  0.67060000  0.79000000  0.26510000  1.0
  H  H1195  1  0.68480000  0.77660000  0.33890000  1.0
  H  H1196  1  0.69320000  0.80960000  0.34750000  1.0
  H  H1197  1  0.73980000  0.80120000  0.33610000  1.0
  H  H1198  1  0.73170000  0.76780000  0.32910000  1.0
  H  H1199  1  0.63340000  0.88900000  0.32690000  1.0
  H  H1200  1  0.66370000  0.87650000  0.33940000  1.0
  H  H1201  1  0.58660000  0.87100000  0.34620000  1.0
  H  H1202  1  0.64350000  0.85420000  0.26140000  1.0
  H  H1203  1  0.62220000  0.87500000  0.28010000  1.0
  H  H1204  1  0.59490000  0.79490000  0.25550000  1.0
  H  H1205  1  0.62660000  0.80620000  0.24530000  1.0
  H  H1206  1  0.57400000  0.85680000  0.29440000  1.0
  H  H1207  1  0.56410000  0.82490000  0.28340000  1.0
  H  H1208  1  0.81400000  0.33890000  0.87640000  1.0
  H  H1209  1  0.81040000  0.28560000  0.84760000  1.0
  H  H1210  1  0.71700000  0.25460000  0.77950000  1.0
  H  H1211  1  0.67060000  0.29000000  0.76510000  1.0
  H  H1212  1  0.68480000  0.27660000  0.83890000  1.0
  H  H1213  1  0.69320000  0.30960000  0.84750000  1.0
  H  H1214  1  0.73980000  0.30120000  0.83610000  1.0
  H  H1215  1  0.73170000  0.26780000  0.82910000  1.0
  H  H1216  1  0.63340000  0.38900000  0.82690000  1.0
  H  H1217  1  0.66370000  0.37650000  0.83940000  1.0
  H  H1218  1  0.58660000  0.37100000  0.84620000  1.0
  H  H1219  1  0.64350000  0.35420000  0.76140000  1.0
  H  H1220  1  0.62220000  0.37500000  0.78010000  1.0
  H  H1221  1  0.59490000  0.29490000  0.75550000  1.0
  H  H1222  1  0.62660000  0.30620000  0.74530000  1.0
  H  H1223  1  0.57400000  0.35680000  0.79440000  1.0
  H  H1224  1  0.56410000  0.32490000  0.78340000  1.0
  H  H1225  1  0.81400000  0.91110000  0.37360000  1.0
  H  H1226  1  0.81040000  0.96440000  0.40240000  1.0
  H  H1227  1  0.71700000  0.99540000  0.47050000  1.0
  H  H1228  1  0.67060000  0.96000000  0.48490000  1.0
  H  H1229  1  0.68480000  0.97340000  0.41110000  1.0
  H  H1230  1  0.69320000  0.94040000  0.40250000  1.0
  H  H1231  1  0.73980000  0.94880000  0.41390000  1.0
  H  H1232  1  0.73170000  0.98220000  0.42090000  1.0
  H  H1233  1  0.63340000  0.86100000  0.42310000  1.0
  H  H1234  1  0.66370000  0.87350000  0.41060000  1.0
  H  H1235  1  0.58660000  0.87900000  0.40380000  1.0
  H  H1236  1  0.64350000  0.89580000  0.48860000  1.0
  H  H1237  1  0.62220000  0.87500000  0.46990000  1.0
  H  H1238  1  0.59490000  0.95510000  0.49450000  1.0
  H  H1239  1  0.62660000  0.94380000  0.50470000  1.0
  H  H1240  1  0.57400000  0.89320000  0.45560000  1.0
  H  H1241  1  0.56410000  0.92510000  0.46660000  1.0
  H  H1242  1  0.81400000  0.41110000  0.87360000  1.0
  H  H1243  1  0.81040000  0.46440000  0.90240000  1.0
  H  H1244  1  0.71700000  0.49540000  0.97050000  1.0
  H  H1245  1  0.67060000  0.46000000  0.98490000  1.0
  H  H1246  1  0.68480000  0.47340000  0.91110000  1.0
  H  H1247  1  0.69320000  0.44040000  0.90250000  1.0
  H  H1248  1  0.73980000  0.44880000  0.91390000  1.0
  H  H1249  1  0.73170000  0.48220000  0.92090000  1.0
  H  H1250  1  0.63340000  0.36100000  0.92310000  1.0
  H  H1251  1  0.66370000  0.37350000  0.91060000  1.0
  H  H1252  1  0.58660000  0.37900000  0.90380000  1.0
  H  H1253  1  0.64350000  0.39580000  0.98860000  1.0
  H  H1254  1  0.62220000  0.37500000  0.96990000  1.0
  H  H1255  1  0.59490000  0.45510000  0.99450000  1.0
  H  H1256  1  0.62660000  0.44380000  0.00470000  1.0
  H  H1257  1  0.57400000  0.39320000  0.95560000  1.0
  H  H1258  1  0.56410000  0.42510000  0.96660000  1.0
  H  H1259  1  0.31400000  0.91110000  0.87360000  1.0
  H  H1260  1  0.31040000  0.96440000  0.90240000  1.0
  H  H1261  1  0.21700000  0.99540000  0.97050000  1.0
  H  H1262  1  0.17060000  0.96000000  0.98490000  1.0
  H  H1263  1  0.18480000  0.97340000  0.91110000  1.0
  H  H1264  1  0.19320000  0.94040000  0.90250000  1.0
  H  H1265  1  0.23980000  0.94880000  0.91390000  1.0
  H  H1266  1  0.23170000  0.98220000  0.92090000  1.0
  H  H1267  1  0.13340000  0.86100000  0.92310000  1.0
  H  H1268  1  0.16370000  0.87350000  0.91060000  1.0
  H  H1269  1  0.08660000  0.87900000  0.90380000  1.0
  H  H1270  1  0.14350000  0.89580000  0.98860000  1.0
  H  H1271  1  0.12220000  0.87500000  0.96990000  1.0
  H  H1272  1  0.09490000  0.95510000  0.99450000  1.0
  H  H1273  1  0.12660000  0.94380000  0.00470000  1.0
  H  H1274  1  0.07400000  0.89320000  0.95560000  1.0
  H  H1275  1  0.06410000  0.92510000  0.96660000  1.0
  H  H1276  1  0.31400000  0.41110000  0.37360000  1.0
  H  H1277  1  0.31040000  0.46440000  0.40240000  1.0
  H  H1278  1  0.21700000  0.49540000  0.47050000  1.0
  H  H1279  1  0.17060000  0.46000000  0.48490000  1.0
  H  H1280  1  0.18480000  0.47340000  0.41110000  1.0
  H  H1281  1  0.19320000  0.44040000  0.40250000  1.0
  H  H1282  1  0.23980000  0.44880000  0.41390000  1.0
  H  H1283  1  0.23170000  0.48220000  0.42090000  1.0
  H  H1284  1  0.13340000  0.36100000  0.42310000  1.0
  H  H1285  1  0.16370000  0.37350000  0.41060000  1.0
  H  H1286  1  0.08660000  0.37900000  0.40380000  1.0
  H  H1287  1  0.14350000  0.39580000  0.48860000  1.0
  H  H1288  1  0.12220000  0.37500000  0.46990000  1.0
  H  H1289  1  0.09490000  0.45510000  0.49450000  1.0
  H  H1290  1  0.12660000  0.44380000  0.50470000  1.0
  H  H1291  1  0.07400000  0.39320000  0.45560000  1.0
  H  H1292  1  0.06410000  0.42510000  0.46660000  1.0
  H  H1293  1  0.43600000  0.41110000  0.37640000  1.0
  H  H1294  1  0.43960000  0.46440000  0.34760000  1.0
  H  H1295  1  0.53300000  0.49540000  0.27950000  1.0
  H  H1296  1  0.57940000  0.46000000  0.26510000  1.0
  H  H1297  1  0.56520000  0.47340000  0.33890000  1.0
  H  H1298  1  0.55680000  0.44040000  0.34750000  1.0
  H  H1299  1  0.51020000  0.44880000  0.33610000  1.0
  H  H1300  1  0.51830000  0.48220000  0.32910000  1.0
  H  H1301  1  0.61660000  0.36100000  0.32690000  1.0
  H  H1302  1  0.58630000  0.37350000  0.33940000  1.0
  H  H1303  1  0.66340000  0.37900000  0.34620000  1.0
  H  H1304  1  0.60650000  0.39580000  0.26140000  1.0
  H  H1305  1  0.62780000  0.37500000  0.28010000  1.0
  H  H1306  1  0.65510000  0.45510000  0.25550000  1.0
  H  H1307  1  0.62340000  0.44380000  0.24530000  1.0
  H  H1308  1  0.67600000  0.39320000  0.29440000  1.0
  H  H1309  1  0.68590000  0.42510000  0.28340000  1.0
  H  H1310  1  0.43600000  0.91110000  0.87640000  1.0
  H  H1311  1  0.43960000  0.96440000  0.84760000  1.0
  H  H1312  1  0.53300000  0.99540000  0.77950000  1.0
  H  H1313  1  0.57940000  0.96000000  0.76510000  1.0
  H  H1314  1  0.56520000  0.97340000  0.83890000  1.0
  H  H1315  1  0.55680000  0.94040000  0.84750000  1.0
  H  H1316  1  0.51020000  0.94880000  0.83610000  1.0
  H  H1317  1  0.51830000  0.98220000  0.82910000  1.0
  H  H1318  1  0.61660000  0.86100000  0.82690000  1.0
  H  H1319  1  0.58630000  0.87350000  0.83940000  1.0
  H  H1320  1  0.66340000  0.87900000  0.84620000  1.0
  H  H1321  1  0.60650000  0.89580000  0.76140000  1.0
  H  H1322  1  0.62780000  0.87500000  0.78010000  1.0
  H  H1323  1  0.65510000  0.95510000  0.75550000  1.0
  H  H1324  1  0.62340000  0.94380000  0.74530000  1.0
  H  H1325  1  0.67600000  0.89320000  0.79440000  1.0
  H  H1326  1  0.68590000  0.92510000  0.78340000  1.0
  H  H1327  1  0.93600000  0.41110000  0.87640000  1.0
  H  H1328  1  0.93960000  0.46440000  0.84760000  1.0
  H  H1329  1  0.03300000  0.49540000  0.77950000  1.0
  H  H1330  1  0.07940000  0.46000000  0.76510000  1.0
  H  H1331  1  0.06520000  0.47340000  0.83890000  1.0
  H  H1332  1  0.05680000  0.44040000  0.84750000  1.0
  H  H1333  1  0.01020000  0.44880000  0.83610000  1.0
  H  H1334  1  0.01830000  0.48220000  0.82910000  1.0
  H  H1335  1  0.11660000  0.36100000  0.82690000  1.0
  H  H1336  1  0.08630000  0.37350000  0.83940000  1.0
  H  H1337  1  0.16340000  0.37900000  0.84620000  1.0
  H  H1338  1  0.10650000  0.39580000  0.76140000  1.0
  H  H1339  1  0.12780000  0.37500000  0.78010000  1.0
  H  H1340  1  0.15510000  0.45510000  0.75550000  1.0
  H  H1341  1  0.12340000  0.44380000  0.74530000  1.0
  H  H1342  1  0.17600000  0.39320000  0.79440000  1.0
  H  H1343  1  0.18590000  0.42510000  0.78340000  1.0
  H  H1344  1  0.93600000  0.91110000  0.37640000  1.0
  H  H1345  1  0.93960000  0.96440000  0.34760000  1.0
  H  H1346  1  0.03300000  0.99540000  0.27950000  1.0
  H  H1347  1  0.07940000  0.96000000  0.26510000  1.0
  H  H1348  1  0.06520000  0.97340000  0.33890000  1.0
  H  H1349  1  0.05680000  0.94040000  0.34750000  1.0
  H  H1350  1  0.01020000  0.94880000  0.33610000  1.0
  H  H1351  1  0.01830000  0.98220000  0.32910000  1.0
  H  H1352  1  0.11660000  0.86100000  0.32690000  1.0
  H  H1353  1  0.08630000  0.87350000  0.33940000  1.0
  H  H1354  1  0.16340000  0.87900000  0.34620000  1.0
  H  H1355  1  0.10650000  0.89580000  0.26140000  1.0
  H  H1356  1  0.12780000  0.87500000  0.28010000  1.0
  H  H1357  1  0.15510000  0.95510000  0.25550000  1.0
  H  H1358  1  0.12340000  0.94380000  0.24530000  1.0
  H  H1359  1  0.17600000  0.89320000  0.29440000  1.0
  H  H1360  1  0.18590000  0.92510000  0.28340000  1.0
  H  H1361  1  0.83890000  0.87640000  0.31400000  1.0
  H  H1362  1  0.78560000  0.84760000  0.31040000  1.0
  H  H1363  1  0.75460000  0.77950000  0.21700000  1.0
  H  H1364  1  0.79000000  0.76510000  0.17060000  1.0
  H  H1365  1  0.77660000  0.83890000  0.18480000  1.0
  H  H1366  1  0.80960000  0.84750000  0.19320000  1.0
  H  H1367  1  0.80120000  0.83610000  0.23980000  1.0
  H  H1368  1  0.76780000  0.82910000  0.23170000  1.0
  H  H1369  1  0.88900000  0.82690000  0.13340000  1.0
  H  H1370  1  0.87650000  0.83940000  0.16370000  1.0
  H  H1371  1  0.87100000  0.84620000  0.08660000  1.0
  H  H1372  1  0.85420000  0.76140000  0.14350000  1.0
  H  H1373  1  0.87500000  0.78010000  0.12220000  1.0
  H  H1374  1  0.79490000  0.75550000  0.09490000  1.0
  H  H1375  1  0.80620000  0.74530000  0.12660000  1.0
  H  H1376  1  0.85680000  0.79440000  0.07400000  1.0
  H  H1377  1  0.82490000  0.78340000  0.06410000  1.0
  H  H1378  1  0.83890000  0.37640000  0.81400000  1.0
  H  H1379  1  0.78560000  0.34760000  0.81040000  1.0
  H  H1380  1  0.75460000  0.27950000  0.71700000  1.0
  H  H1381  1  0.79000000  0.26510000  0.67060000  1.0
  H  H1382  1  0.77660000  0.33890000  0.68480000  1.0
  H  H1383  1  0.80960000  0.34750000  0.69320000  1.0
  H  H1384  1  0.80120000  0.33610000  0.73980000  1.0
  H  H1385  1  0.76780000  0.32910000  0.73170000  1.0
  H  H1386  1  0.88900000  0.32690000  0.63340000  1.0
  H  H1387  1  0.87650000  0.33940000  0.66370000  1.0
  H  H1388  1  0.87100000  0.34620000  0.58660000  1.0
  H  H1389  1  0.85420000  0.26140000  0.64350000  1.0
  H  H1390  1  0.87500000  0.28010000  0.62220000  1.0
  H  H1391  1  0.79490000  0.25550000  0.59490000  1.0
  H  H1392  1  0.80620000  0.24530000  0.62660000  1.0
  H  H1393  1  0.85680000  0.29440000  0.57400000  1.0
  H  H1394  1  0.82490000  0.28340000  0.56410000  1.0
  H  H1395  1  0.33890000  0.87640000  0.81400000  1.0
  H  H1396  1  0.28560000  0.84760000  0.81040000  1.0
  H  H1397  1  0.25460000  0.77950000  0.71700000  1.0
  H  H1398  1  0.29000000  0.76510000  0.67060000  1.0
  H  H1399  1  0.27660000  0.83890000  0.68480000  1.0
  H  H1400  1  0.30960000  0.84750000  0.69320000  1.0
  H  H1401  1  0.30120000  0.83610000  0.73980000  1.0
  H  H1402  1  0.26780000  0.82910000  0.73170000  1.0
  H  H1403  1  0.38900000  0.82690000  0.63340000  1.0
  H  H1404  1  0.37650000  0.83940000  0.66370000  1.0
  H  H1405  1  0.37100000  0.84620000  0.58660000  1.0
  H  H1406  1  0.35420000  0.76140000  0.64350000  1.0
  H  H1407  1  0.37500000  0.78010000  0.62220000  1.0
  H  H1408  1  0.29490000  0.75550000  0.59490000  1.0
  H  H1409  1  0.30620000  0.74530000  0.62660000  1.0
  H  H1410  1  0.35680000  0.79440000  0.57400000  1.0
  H  H1411  1  0.32490000  0.78340000  0.56410000  1.0
  H  H1412  1  0.33890000  0.37640000  0.31400000  1.0
  H  H1413  1  0.28560000  0.34760000  0.31040000  1.0
  H  H1414  1  0.25460000  0.27950000  0.21700000  1.0
  H  H1415  1  0.29000000  0.26510000  0.17060000  1.0
  H  H1416  1  0.27660000  0.33890000  0.18480000  1.0
  H  H1417  1  0.30960000  0.34750000  0.19320000  1.0
  H  H1418  1  0.30120000  0.33610000  0.23980000  1.0
  H  H1419  1  0.26780000  0.32910000  0.23170000  1.0
  H  H1420  1  0.38900000  0.32690000  0.13340000  1.0
  H  H1421  1  0.37650000  0.33940000  0.16370000  1.0
  H  H1422  1  0.37100000  0.34620000  0.08660000  1.0
  H  H1423  1  0.35420000  0.26140000  0.14350000  1.0
  H  H1424  1  0.37500000  0.28010000  0.12220000  1.0
  H  H1425  1  0.29490000  0.25550000  0.09490000  1.0
  H  H1426  1  0.30620000  0.24530000  0.12660000  1.0
  H  H1427  1  0.35680000  0.29440000  0.07400000  1.0
  H  H1428  1  0.32490000  0.28340000  0.06410000  1.0
  H  H1429  1  0.33890000  0.87360000  0.93600000  1.0
  H  H1430  1  0.28560000  0.90240000  0.93960000  1.0
  H  H1431  1  0.25460000  0.97050000  0.03300000  1.0
  H  H1432  1  0.29000000  0.98490000  0.07940000  1.0
  H  H1433  1  0.27660000  0.91110000  0.06520000  1.0
  H  H1434  1  0.30960000  0.90250000  0.05680000  1.0
  H  H1435  1  0.30120000  0.91390000  0.01020000  1.0
  H  H1436  1  0.26780000  0.92090000  0.01830000  1.0
  H  H1437  1  0.38900000  0.92310000  0.11660000  1.0
  H  H1438  1  0.37650000  0.91060000  0.08630000  1.0
  H  H1439  1  0.37100000  0.90380000  0.16340000  1.0
  H  H1440  1  0.35420000  0.98860000  0.10650000  1.0
  H  H1441  1  0.37500000  0.96990000  0.12780000  1.0
  H  H1442  1  0.29490000  0.99450000  0.15510000  1.0
  H  H1443  1  0.30620000  0.00470000  0.12340000  1.0
  H  H1444  1  0.35680000  0.95560000  0.17600000  1.0
  H  H1445  1  0.32490000  0.96660000  0.18590000  1.0
  H  H1446  1  0.33890000  0.37360000  0.43600000  1.0
  H  H1447  1  0.28560000  0.40240000  0.43960000  1.0
  H  H1448  1  0.25460000  0.47050000  0.53300000  1.0
  H  H1449  1  0.29000000  0.48490000  0.57940000  1.0
  H  H1450  1  0.27660000  0.41110000  0.56520000  1.0
  H  H1451  1  0.30960000  0.40250000  0.55680000  1.0
  H  H1452  1  0.30120000  0.41390000  0.51020000  1.0
  H  H1453  1  0.26780000  0.42090000  0.51830000  1.0
  H  H1454  1  0.38900000  0.42310000  0.61660000  1.0
  H  H1455  1  0.37650000  0.41060000  0.58630000  1.0
  H  H1456  1  0.37100000  0.40380000  0.66340000  1.0
  H  H1457  1  0.35420000  0.48860000  0.60650000  1.0
  H  H1458  1  0.37500000  0.46990000  0.62780000  1.0
  H  H1459  1  0.29490000  0.49450000  0.65510000  1.0
  H  H1460  1  0.30620000  0.50470000  0.62340000  1.0
  H  H1461  1  0.35680000  0.45560000  0.67600000  1.0
  H  H1462  1  0.32490000  0.46660000  0.68590000  1.0
  H  H1463  1  0.83890000  0.87360000  0.43600000  1.0
  H  H1464  1  0.78560000  0.90240000  0.43960000  1.0
  H  H1465  1  0.75460000  0.97050000  0.53300000  1.0
  H  H1466  1  0.79000000  0.98490000  0.57940000  1.0
  H  H1467  1  0.77660000  0.91110000  0.56520000  1.0
  H  H1468  1  0.80960000  0.90250000  0.55680000  1.0
  H  H1469  1  0.80120000  0.91390000  0.51020000  1.0
  H  H1470  1  0.76780000  0.92090000  0.51830000  1.0
  H  H1471  1  0.88900000  0.92310000  0.61660000  1.0
  H  H1472  1  0.87650000  0.91060000  0.58630000  1.0
  H  H1473  1  0.87100000  0.90380000  0.66340000  1.0
  H  H1474  1  0.85420000  0.98860000  0.60650000  1.0
  H  H1475  1  0.87500000  0.96990000  0.62780000  1.0
  H  H1476  1  0.79490000  0.99450000  0.65510000  1.0
  H  H1477  1  0.80620000  0.00470000  0.62340000  1.0
  H  H1478  1  0.85680000  0.95560000  0.67600000  1.0
  H  H1479  1  0.82490000  0.96660000  0.68590000  1.0
  H  H1480  1  0.83890000  0.37360000  0.93600000  1.0
  H  H1481  1  0.78560000  0.40240000  0.93960000  1.0
  H  H1482  1  0.75460000  0.47050000  0.03300000  1.0
  H  H1483  1  0.79000000  0.48490000  0.07940000  1.0
  H  H1484  1  0.77660000  0.41110000  0.06520000  1.0
  H  H1485  1  0.80960000  0.40250000  0.05680000  1.0
  H  H1486  1  0.80120000  0.41390000  0.01020000  1.0
  H  H1487  1  0.76780000  0.42090000  0.01830000  1.0
  H  H1488  1  0.88900000  0.42310000  0.11660000  1.0
  H  H1489  1  0.87650000  0.41060000  0.08630000  1.0
  H  H1490  1  0.87100000  0.40380000  0.16340000  1.0
  H  H1491  1  0.85420000  0.48860000  0.10650000  1.0
  H  H1492  1  0.87500000  0.46990000  0.12780000  1.0
  H  H1493  1  0.79490000  0.49450000  0.15510000  1.0
  H  H1494  1  0.80620000  0.50470000  0.12340000  1.0
  H  H1495  1  0.85680000  0.45560000  0.17600000  1.0
  H  H1496  1  0.82490000  0.46660000  0.18590000  1.0
  H  H1497  1  0.41110000  0.37640000  0.43600000  1.0
  H  H1498  1  0.46440000  0.34760000  0.43960000  1.0
  H  H1499  1  0.49540000  0.27950000  0.53300000  1.0
  H  H1500  1  0.46000000  0.26510000  0.57940000  1.0
  H  H1501  1  0.47340000  0.33890000  0.56520000  1.0
  H  H1502  1  0.44040000  0.34750000  0.55680000  1.0
  H  H1503  1  0.44880000  0.33610000  0.51020000  1.0
  H  H1504  1  0.48220000  0.32910000  0.51830000  1.0
  H  H1505  1  0.36100000  0.32690000  0.61660000  1.0
  H  H1506  1  0.37350000  0.33940000  0.58630000  1.0
  H  H1507  1  0.37900000  0.34620000  0.66340000  1.0
  H  H1508  1  0.39580000  0.26140000  0.60650000  1.0
  H  H1509  1  0.37500000  0.28010000  0.62780000  1.0
  H  H1510  1  0.45510000  0.25550000  0.65510000  1.0
  H  H1511  1  0.44380000  0.24530000  0.62340000  1.0
  H  H1512  1  0.39320000  0.29440000  0.67600000  1.0
  H  H1513  1  0.42510000  0.28340000  0.68590000  1.0
  H  H1514  1  0.41110000  0.87640000  0.93600000  1.0
  H  H1515  1  0.46440000  0.84760000  0.93960000  1.0
  H  H1516  1  0.49540000  0.77950000  0.03300000  1.0
  H  H1517  1  0.46000000  0.76510000  0.07940000  1.0
  H  H1518  1  0.47340000  0.83890000  0.06520000  1.0
  H  H1519  1  0.44040000  0.84750000  0.05680000  1.0
  H  H1520  1  0.44880000  0.83610000  0.01020000  1.0
  H  H1521  1  0.48220000  0.82910000  0.01830000  1.0
  H  H1522  1  0.36100000  0.82690000  0.11660000  1.0
  H  H1523  1  0.37350000  0.83940000  0.08630000  1.0
  H  H1524  1  0.37900000  0.84620000  0.16340000  1.0
  H  H1525  1  0.39580000  0.76140000  0.10650000  1.0
  H  H1526  1  0.37500000  0.78010000  0.12780000  1.0
  H  H1527  1  0.45510000  0.75550000  0.15510000  1.0
  H  H1528  1  0.44380000  0.74530000  0.12340000  1.0
  H  H1529  1  0.39320000  0.79440000  0.17600000  1.0
  H  H1530  1  0.42510000  0.78340000  0.18590000  1.0
  H  H1531  1  0.91110000  0.37640000  0.93600000  1.0
  H  H1532  1  0.96440000  0.34760000  0.93960000  1.0
  H  H1533  1  0.99540000  0.27950000  0.03300000  1.0
  H  H1534  1  0.96000000  0.26510000  0.07940000  1.0
  H  H1535  1  0.97340000  0.33890000  0.06520000  1.0
  H  H1536  1  0.94040000  0.34750000  0.05680000  1.0
  H  H1537  1  0.94880000  0.33610000  0.01020000  1.0
  H  H1538  1  0.98220000  0.32910000  0.01830000  1.0
  H  H1539  1  0.86100000  0.32690000  0.11660000  1.0
  H  H1540  1  0.87350000  0.33940000  0.08630000  1.0
  H  H1541  1  0.87900000  0.34620000  0.16340000  1.0
  H  H1542  1  0.89580000  0.26140000  0.10650000  1.0
  H  H1543  1  0.87500000  0.28010000  0.12780000  1.0
  H  H1544  1  0.95510000  0.25550000  0.15510000  1.0
  H  H1545  1  0.94380000  0.24530000  0.12340000  1.0
  H  H1546  1  0.89320000  0.29440000  0.17600000  1.0
  H  H1547  1  0.92510000  0.28340000  0.18590000  1.0
  H  H1548  1  0.91110000  0.87640000  0.43600000  1.0
  H  H1549  1  0.96440000  0.84760000  0.43960000  1.0
  H  H1550  1  0.99540000  0.77950000  0.53300000  1.0
  H  H1551  1  0.96000000  0.76510000  0.57940000  1.0
  H  H1552  1  0.97340000  0.83890000  0.56520000  1.0
  H  H1553  1  0.94040000  0.84750000  0.55680000  1.0
  H  H1554  1  0.94880000  0.83610000  0.51020000  1.0
  H  H1555  1  0.98220000  0.82910000  0.51830000  1.0
  H  H1556  1  0.86100000  0.82690000  0.61660000  1.0
  H  H1557  1  0.87350000  0.83940000  0.58630000  1.0
  H  H1558  1  0.87900000  0.84620000  0.66340000  1.0
  H  H1559  1  0.89580000  0.76140000  0.60650000  1.0
  H  H1560  1  0.87500000  0.78010000  0.62780000  1.0
  H  H1561  1  0.95510000  0.75550000  0.65510000  1.0
  H  H1562  1  0.94380000  0.74530000  0.62340000  1.0
  H  H1563  1  0.89320000  0.79440000  0.67600000  1.0
  H  H1564  1  0.92510000  0.78340000  0.68590000  1.0
  H  H1565  1  0.91110000  0.37360000  0.81400000  1.0
  H  H1566  1  0.96440000  0.40240000  0.81040000  1.0
  H  H1567  1  0.99540000  0.47050000  0.71700000  1.0
  H  H1568  1  0.96000000  0.48490000  0.67060000  1.0
  H  H1569  1  0.97340000  0.41110000  0.68480000  1.0
  H  H1570  1  0.94040000  0.40250000  0.69320000  1.0
  H  H1571  1  0.94880000  0.41390000  0.73980000  1.0
  H  H1572  1  0.98220000  0.42090000  0.73170000  1.0
  H  H1573  1  0.86100000  0.42310000  0.63340000  1.0
  H  H1574  1  0.87350000  0.41060000  0.66370000  1.0
  H  H1575  1  0.87900000  0.40380000  0.58660000  1.0
  H  H1576  1  0.89580000  0.48860000  0.64350000  1.0
  H  H1577  1  0.87500000  0.46990000  0.62220000  1.0
  H  H1578  1  0.95510000  0.49450000  0.59490000  1.0
  H  H1579  1  0.94380000  0.50470000  0.62660000  1.0
  H  H1580  1  0.89320000  0.45560000  0.57400000  1.0
  H  H1581  1  0.92510000  0.46660000  0.56410000  1.0
  H  H1582  1  0.91110000  0.87360000  0.31400000  1.0
  H  H1583  1  0.96440000  0.90240000  0.31040000  1.0
  H  H1584  1  0.99540000  0.97050000  0.21700000  1.0
  H  H1585  1  0.96000000  0.98490000  0.17060000  1.0
  H  H1586  1  0.97340000  0.91110000  0.18480000  1.0
  H  H1587  1  0.94040000  0.90250000  0.19320000  1.0
  H  H1588  1  0.94880000  0.91390000  0.23980000  1.0
  H  H1589  1  0.98220000  0.92090000  0.23170000  1.0
  H  H1590  1  0.86100000  0.92310000  0.13340000  1.0
  H  H1591  1  0.87350000  0.91060000  0.16370000  1.0
  H  H1592  1  0.87900000  0.90380000  0.08660000  1.0
  H  H1593  1  0.89580000  0.98860000  0.14350000  1.0
  H  H1594  1  0.87500000  0.96990000  0.12220000  1.0
  H  H1595  1  0.95510000  0.99450000  0.09490000  1.0
  H  H1596  1  0.94380000  0.00470000  0.12660000  1.0
  H  H1597  1  0.89320000  0.95560000  0.07400000  1.0
  H  H1598  1  0.92510000  0.96660000  0.06410000  1.0
  H  H1599  1  0.41110000  0.37360000  0.31400000  1.0
  H  H1600  1  0.46440000  0.40240000  0.31040000  1.0
  H  H1601  1  0.49540000  0.47050000  0.21700000  1.0
  H  H1602  1  0.46000000  0.48490000  0.17060000  1.0
  H  H1603  1  0.47340000  0.41110000  0.18480000  1.0
  H  H1604  1  0.44040000  0.40250000  0.19320000  1.0
  H  H1605  1  0.44880000  0.41390000  0.23980000  1.0
  H  H1606  1  0.48220000  0.42090000  0.23170000  1.0
  H  H1607  1  0.36100000  0.42310000  0.13340000  1.0
  H  H1608  1  0.37350000  0.41060000  0.16370000  1.0
  H  H1609  1  0.37900000  0.40380000  0.08660000  1.0
  H  H1610  1  0.39580000  0.48860000  0.14350000  1.0
  H  H1611  1  0.37500000  0.46990000  0.12220000  1.0
  H  H1612  1  0.45510000  0.49450000  0.09490000  1.0
  H  H1613  1  0.44380000  0.50470000  0.12660000  1.0
  H  H1614  1  0.39320000  0.45560000  0.07400000  1.0
  H  H1615  1  0.42510000  0.46660000  0.06410000  1.0
  H  H1616  1  0.41110000  0.87360000  0.81400000  1.0
  H  H1617  1  0.46440000  0.90240000  0.81040000  1.0
  H  H1618  1  0.49540000  0.97050000  0.71700000  1.0
  H  H1619  1  0.46000000  0.98490000  0.67060000  1.0
  H  H1620  1  0.47340000  0.91110000  0.68480000  1.0
  H  H1621  1  0.44040000  0.90250000  0.69320000  1.0
  H  H1622  1  0.44880000  0.91390000  0.73980000  1.0
  H  H1623  1  0.48220000  0.92090000  0.73170000  1.0
  H  H1624  1  0.36100000  0.92310000  0.63340000  1.0
  H  H1625  1  0.37350000  0.91060000  0.66370000  1.0
  H  H1626  1  0.37900000  0.90380000  0.58660000  1.0
  H  H1627  1  0.39580000  0.98860000  0.64350000  1.0
  H  H1628  1  0.37500000  0.96990000  0.62220000  1.0
  H  H1629  1  0.45510000  0.99450000  0.59490000  1.0
  H  H1630  1  0.44380000  0.00470000  0.62660000  1.0
  H  H1631  1  0.39320000  0.95560000  0.57400000  1.0
  H  H1632  1  0.42510000  0.96660000  0.56410000  1.0
  H  H1633  1  0.81400000  0.37360000  0.91110000  1.0
  H  H1634  1  0.81040000  0.40240000  0.96440000  1.0
  H  H1635  1  0.71700000  0.47050000  0.99540000  1.0
  H  H1636  1  0.67060000  0.48490000  0.96000000  1.0
  H  H1637  1  0.68480000  0.41110000  0.97340000  1.0
  H  H1638  1  0.69320000  0.40250000  0.94040000  1.0
  H  H1639  1  0.73980000  0.41390000  0.94880000  1.0
  H  H1640  1  0.73170000  0.42090000  0.98220000  1.0
  H  H1641  1  0.63340000  0.42310000  0.86100000  1.0
  H  H1642  1  0.66370000  0.41060000  0.87350000  1.0
  H  H1643  1  0.58660000  0.40380000  0.87900000  1.0
  H  H1644  1  0.64350000  0.48860000  0.89580000  1.0
  H  H1645  1  0.62220000  0.46990000  0.87500000  1.0
  H  H1646  1  0.59490000  0.49450000  0.95510000  1.0
  H  H1647  1  0.62660000  0.50470000  0.94380000  1.0
  H  H1648  1  0.57400000  0.45560000  0.89320000  1.0
  H  H1649  1  0.56410000  0.46660000  0.92510000  1.0
  H  H1650  1  0.81400000  0.87360000  0.41110000  1.0
  H  H1651  1  0.81040000  0.90240000  0.46440000  1.0
  H  H1652  1  0.71700000  0.97050000  0.49540000  1.0
  H  H1653  1  0.67060000  0.98490000  0.46000000  1.0
  H  H1654  1  0.68480000  0.91110000  0.47340000  1.0
  H  H1655  1  0.69320000  0.90250000  0.44040000  1.0
  H  H1656  1  0.73980000  0.91390000  0.44880000  1.0
  H  H1657  1  0.73170000  0.92090000  0.48220000  1.0
  H  H1658  1  0.63340000  0.92310000  0.36100000  1.0
  H  H1659  1  0.66370000  0.91060000  0.37350000  1.0
  H  H1660  1  0.58660000  0.90380000  0.37900000  1.0
  H  H1661  1  0.64350000  0.98860000  0.39580000  1.0
  H  H1662  1  0.62220000  0.96990000  0.37500000  1.0
  H  H1663  1  0.59490000  0.99450000  0.45510000  1.0
  H  H1664  1  0.62660000  0.00470000  0.44380000  1.0
  H  H1665  1  0.57400000  0.95560000  0.39320000  1.0
  H  H1666  1  0.56410000  0.96660000  0.42510000  1.0
  H  H1667  1  0.31400000  0.37360000  0.41110000  1.0
  H  H1668  1  0.31040000  0.40240000  0.46440000  1.0
  H  H1669  1  0.21700000  0.47050000  0.49540000  1.0
  H  H1670  1  0.17060000  0.48490000  0.46000000  1.0
  H  H1671  1  0.18480000  0.41110000  0.47340000  1.0
  H  H1672  1  0.19320000  0.40250000  0.44040000  1.0
  H  H1673  1  0.23980000  0.41390000  0.44880000  1.0
  H  H1674  1  0.23170000  0.42090000  0.48220000  1.0
  H  H1675  1  0.13340000  0.42310000  0.36100000  1.0
  H  H1676  1  0.16370000  0.41060000  0.37350000  1.0
  H  H1677  1  0.08660000  0.40380000  0.37900000  1.0
  H  H1678  1  0.14350000  0.48860000  0.39580000  1.0
  H  H1679  1  0.12220000  0.46990000  0.37500000  1.0
  H  H1680  1  0.09490000  0.49450000  0.45510000  1.0
  H  H1681  1  0.12660000  0.50470000  0.44380000  1.0
  H  H1682  1  0.07400000  0.45560000  0.39320000  1.0
  H  H1683  1  0.06410000  0.46660000  0.42510000  1.0
  H  H1684  1  0.31400000  0.87360000  0.91110000  1.0
  H  H1685  1  0.31040000  0.90240000  0.96440000  1.0
  H  H1686  1  0.21700000  0.97050000  0.99540000  1.0
  H  H1687  1  0.17060000  0.98490000  0.96000000  1.0
  H  H1688  1  0.18480000  0.91110000  0.97340000  1.0
  H  H1689  1  0.19320000  0.90250000  0.94040000  1.0
  H  H1690  1  0.23980000  0.91390000  0.94880000  1.0
  H  H1691  1  0.23170000  0.92090000  0.98220000  1.0
  H  H1692  1  0.13340000  0.92310000  0.86100000  1.0
  H  H1693  1  0.16370000  0.91060000  0.87350000  1.0
  H  H1694  1  0.08660000  0.90380000  0.87900000  1.0
  H  H1695  1  0.14350000  0.98860000  0.89580000  1.0
  H  H1696  1  0.12220000  0.96990000  0.87500000  1.0
  H  H1697  1  0.09490000  0.99450000  0.95510000  1.0
  H  H1698  1  0.12660000  0.00470000  0.94380000  1.0
  H  H1699  1  0.07400000  0.95560000  0.89320000  1.0
  H  H1700  1  0.06410000  0.96660000  0.92510000  1.0
  H  H1701  1  0.43600000  0.37640000  0.41110000  1.0
  H  H1702  1  0.43960000  0.34760000  0.46440000  1.0
  H  H1703  1  0.53300000  0.27950000  0.49540000  1.0
  H  H1704  1  0.57940000  0.26510000  0.46000000  1.0
  H  H1705  1  0.56520000  0.33890000  0.47340000  1.0
  H  H1706  1  0.55680000  0.34750000  0.44040000  1.0
  H  H1707  1  0.51020000  0.33610000  0.44880000  1.0
  H  H1708  1  0.51830000  0.32910000  0.48220000  1.0
  H  H1709  1  0.61660000  0.32690000  0.36100000  1.0
  H  H1710  1  0.58630000  0.33940000  0.37350000  1.0
  H  H1711  1  0.66340000  0.34620000  0.37900000  1.0
  H  H1712  1  0.60650000  0.26140000  0.39580000  1.0
  H  H1713  1  0.62780000  0.28010000  0.37500000  1.0
  H  H1714  1  0.65510000  0.25550000  0.45510000  1.0
  H  H1715  1  0.62340000  0.24530000  0.44380000  1.0
  H  H1716  1  0.67600000  0.29440000  0.39320000  1.0
  H  H1717  1  0.68590000  0.28340000  0.42510000  1.0
  H  H1718  1  0.43600000  0.87640000  0.91110000  1.0
  H  H1719  1  0.43960000  0.84760000  0.96440000  1.0
  H  H1720  1  0.53300000  0.77950000  0.99540000  1.0
  H  H1721  1  0.57940000  0.76510000  0.96000000  1.0
  H  H1722  1  0.56520000  0.83890000  0.97340000  1.0
  H  H1723  1  0.55680000  0.84750000  0.94040000  1.0
  H  H1724  1  0.51020000  0.83610000  0.94880000  1.0
  H  H1725  1  0.51830000  0.82910000  0.98220000  1.0
  H  H1726  1  0.61660000  0.82690000  0.86100000  1.0
  H  H1727  1  0.58630000  0.83940000  0.87350000  1.0
  H  H1728  1  0.66340000  0.84620000  0.87900000  1.0
  H  H1729  1  0.60650000  0.76140000  0.89580000  1.0
  H  H1730  1  0.62780000  0.78010000  0.87500000  1.0
  H  H1731  1  0.65510000  0.75550000  0.95510000  1.0
  H  H1732  1  0.62340000  0.74530000  0.94380000  1.0
  H  H1733  1  0.67600000  0.79440000  0.89320000  1.0
  H  H1734  1  0.68590000  0.78340000  0.92510000  1.0
  H  H1735  1  0.93600000  0.37640000  0.91110000  1.0
  H  H1736  1  0.93960000  0.34760000  0.96440000  1.0
  H  H1737  1  0.03300000  0.27950000  0.99540000  1.0
  H  H1738  1  0.07940000  0.26510000  0.96000000  1.0
  H  H1739  1  0.06520000  0.33890000  0.97340000  1.0
  H  H1740  1  0.05680000  0.34750000  0.94040000  1.0
  H  H1741  1  0.01020000  0.33610000  0.94880000  1.0
  H  H1742  1  0.01830000  0.32910000  0.98220000  1.0
  H  H1743  1  0.11660000  0.32690000  0.86100000  1.0
  H  H1744  1  0.08630000  0.33940000  0.87350000  1.0
  H  H1745  1  0.16340000  0.34620000  0.87900000  1.0
  H  H1746  1  0.10650000  0.26140000  0.89580000  1.0
  H  H1747  1  0.12780000  0.28010000  0.87500000  1.0
  H  H1748  1  0.15510000  0.25550000  0.95510000  1.0
  H  H1749  1  0.12340000  0.24530000  0.94380000  1.0
  H  H1750  1  0.17600000  0.29440000  0.89320000  1.0
  H  H1751  1  0.18590000  0.28340000  0.92510000  1.0
  H  H1752  1  0.93600000  0.87640000  0.41110000  1.0
  H  H1753  1  0.93960000  0.84760000  0.46440000  1.0
  H  H1754  1  0.03300000  0.77950000  0.49540000  1.0
  H  H1755  1  0.07940000  0.76510000  0.46000000  1.0
  H  H1756  1  0.06520000  0.83890000  0.47340000  1.0
  H  H1757  1  0.05680000  0.84750000  0.44040000  1.0
  H  H1758  1  0.01020000  0.83610000  0.44880000  1.0
  H  H1759  1  0.01830000  0.82910000  0.48220000  1.0
  H  H1760  1  0.11660000  0.82690000  0.36100000  1.0
  H  H1761  1  0.08630000  0.83940000  0.37350000  1.0
  H  H1762  1  0.16340000  0.84620000  0.37900000  1.0
  H  H1763  1  0.10650000  0.76140000  0.39580000  1.0
  H  H1764  1  0.12780000  0.78010000  0.37500000  1.0
  H  H1765  1  0.15510000  0.75550000  0.45510000  1.0
  H  H1766  1  0.12340000  0.74530000  0.44380000  1.0
  H  H1767  1  0.17600000  0.79440000  0.39320000  1.0
  H  H1768  1  0.18590000  0.78340000  0.42510000  1.0
  H  H1769  1  0.93600000  0.87360000  0.33890000  1.0
  H  H1770  1  0.93960000  0.90240000  0.28560000  1.0
  H  H1771  1  0.03300000  0.97050000  0.25460000  1.0
  H  H1772  1  0.07940000  0.98490000  0.29000000  1.0
  H  H1773  1  0.06520000  0.91110000  0.27660000  1.0
  H  H1774  1  0.05680000  0.90250000  0.30960000  1.0
  H  H1775  1  0.01020000  0.91390000  0.30120000  1.0
  H  H1776  1  0.01830000  0.92090000  0.26780000  1.0
  H  H1777  1  0.11660000  0.92310000  0.38900000  1.0
  H  H1778  1  0.08630000  0.91060000  0.37650000  1.0
  H  H1779  1  0.16340000  0.90380000  0.37100000  1.0
  H  H1780  1  0.10650000  0.98860000  0.35420000  1.0
  H  H1781  1  0.12780000  0.96990000  0.37500000  1.0
  H  H1782  1  0.15510000  0.99450000  0.29490000  1.0
  H  H1783  1  0.12340000  0.00470000  0.30620000  1.0
  H  H1784  1  0.17600000  0.95560000  0.35680000  1.0
  H  H1785  1  0.18590000  0.96660000  0.32490000  1.0
  H  H1786  1  0.93600000  0.37360000  0.83890000  1.0
  H  H1787  1  0.93960000  0.40240000  0.78560000  1.0
  H  H1788  1  0.03300000  0.47050000  0.75460000  1.0
  H  H1789  1  0.07940000  0.48490000  0.79000000  1.0
  H  H1790  1  0.06520000  0.41110000  0.77660000  1.0
  H  H1791  1  0.05680000  0.40250000  0.80960000  1.0
  H  H1792  1  0.01020000  0.41390000  0.80120000  1.0
  H  H1793  1  0.01830000  0.42090000  0.76780000  1.0
  H  H1794  1  0.11660000  0.42310000  0.88900000  1.0
  H  H1795  1  0.08630000  0.41060000  0.87650000  1.0
  H  H1796  1  0.16340000  0.40380000  0.87100000  1.0
  H  H1797  1  0.10650000  0.48860000  0.85420000  1.0
  H  H1798  1  0.12780000  0.46990000  0.87500000  1.0
  H  H1799  1  0.15510000  0.49450000  0.79490000  1.0
  H  H1800  1  0.12340000  0.50470000  0.80620000  1.0
  H  H1801  1  0.17600000  0.45560000  0.85680000  1.0
  H  H1802  1  0.18590000  0.46660000  0.82490000  1.0
  H  H1803  1  0.43600000  0.87360000  0.83890000  1.0
  H  H1804  1  0.43960000  0.90240000  0.78560000  1.0
  H  H1805  1  0.53300000  0.97050000  0.75460000  1.0
  H  H1806  1  0.57940000  0.98490000  0.79000000  1.0
  H  H1807  1  0.56520000  0.91110000  0.77660000  1.0
  H  H1808  1  0.55680000  0.90250000  0.80960000  1.0
  H  H1809  1  0.51020000  0.91390000  0.80120000  1.0
  H  H1810  1  0.51830000  0.92090000  0.76780000  1.0
  H  H1811  1  0.61660000  0.92310000  0.88900000  1.0
  H  H1812  1  0.58630000  0.91060000  0.87650000  1.0
  H  H1813  1  0.66340000  0.90380000  0.87100000  1.0
  H  H1814  1  0.60650000  0.98860000  0.85420000  1.0
  H  H1815  1  0.62780000  0.96990000  0.87500000  1.0
  H  H1816  1  0.65510000  0.99450000  0.79490000  1.0
  H  H1817  1  0.62340000  0.00470000  0.80620000  1.0
  H  H1818  1  0.67600000  0.95560000  0.85680000  1.0
  H  H1819  1  0.68590000  0.96660000  0.82490000  1.0
  H  H1820  1  0.43600000  0.37360000  0.33890000  1.0
  H  H1821  1  0.43960000  0.40240000  0.28560000  1.0
  H  H1822  1  0.53300000  0.47050000  0.25460000  1.0
  H  H1823  1  0.57940000  0.48490000  0.29000000  1.0
  H  H1824  1  0.56520000  0.41110000  0.27660000  1.0
  H  H1825  1  0.55680000  0.40250000  0.30960000  1.0
  H  H1826  1  0.51020000  0.41390000  0.30120000  1.0
  H  H1827  1  0.51830000  0.42090000  0.26780000  1.0
  H  H1828  1  0.61660000  0.42310000  0.38900000  1.0
  H  H1829  1  0.58630000  0.41060000  0.37650000  1.0
  H  H1830  1  0.66340000  0.40380000  0.37100000  1.0
  H  H1831  1  0.60650000  0.48860000  0.35420000  1.0
  H  H1832  1  0.62780000  0.46990000  0.37500000  1.0
  H  H1833  1  0.65510000  0.49450000  0.29490000  1.0
  H  H1834  1  0.62340000  0.50470000  0.30620000  1.0
  H  H1835  1  0.67600000  0.45560000  0.35680000  1.0
  H  H1836  1  0.68590000  0.46660000  0.32490000  1.0
  H  H1837  1  0.31400000  0.87640000  0.83890000  1.0
  H  H1838  1  0.31040000  0.84760000  0.78560000  1.0
  H  H1839  1  0.21700000  0.77950000  0.75460000  1.0
  H  H1840  1  0.17060000  0.76510000  0.79000000  1.0
  H  H1841  1  0.18480000  0.83890000  0.77660000  1.0
  H  H1842  1  0.19320000  0.84750000  0.80960000  1.0
  H  H1843  1  0.23980000  0.83610000  0.80120000  1.0
  H  H1844  1  0.23170000  0.82910000  0.76780000  1.0
  H  H1845  1  0.13340000  0.82690000  0.88900000  1.0
  H  H1846  1  0.16370000  0.83940000  0.87650000  1.0
  H  H1847  1  0.08660000  0.84620000  0.87100000  1.0
  H  H1848  1  0.14350000  0.76140000  0.85420000  1.0
  H  H1849  1  0.12220000  0.78010000  0.87500000  1.0
  H  H1850  1  0.09490000  0.75550000  0.79490000  1.0
  H  H1851  1  0.12660000  0.74530000  0.80620000  1.0
  H  H1852  1  0.07400000  0.79440000  0.85680000  1.0
  H  H1853  1  0.06410000  0.78340000  0.82490000  1.0
  H  H1854  1  0.31400000  0.37640000  0.33890000  1.0
  H  H1855  1  0.31040000  0.34760000  0.28560000  1.0
  H  H1856  1  0.21700000  0.27950000  0.25460000  1.0
  H  H1857  1  0.17060000  0.26510000  0.29000000  1.0
  H  H1858  1  0.18480000  0.33890000  0.27660000  1.0
  H  H1859  1  0.19320000  0.34750000  0.30960000  1.0
  H  H1860  1  0.23980000  0.33610000  0.30120000  1.0
  H  H1861  1  0.23170000  0.32910000  0.26780000  1.0
  H  H1862  1  0.13340000  0.32690000  0.38900000  1.0
  H  H1863  1  0.16370000  0.33940000  0.37650000  1.0
  H  H1864  1  0.08660000  0.34620000  0.37100000  1.0
  H  H1865  1  0.14350000  0.26140000  0.35420000  1.0
  H  H1866  1  0.12220000  0.28010000  0.37500000  1.0
  H  H1867  1  0.09490000  0.25550000  0.29490000  1.0
  H  H1868  1  0.12660000  0.24530000  0.30620000  1.0
  H  H1869  1  0.07400000  0.29440000  0.35680000  1.0
  H  H1870  1  0.06410000  0.28340000  0.32490000  1.0
  H  H1871  1  0.81400000  0.87640000  0.33890000  1.0
  H  H1872  1  0.81040000  0.84760000  0.28560000  1.0
  H  H1873  1  0.71700000  0.77950000  0.25460000  1.0
  H  H1874  1  0.67060000  0.76510000  0.29000000  1.0
  H  H1875  1  0.68480000  0.83890000  0.27660000  1.0
  H  H1876  1  0.69320000  0.84750000  0.30960000  1.0
  H  H1877  1  0.73980000  0.83610000  0.30120000  1.0
  H  H1878  1  0.73170000  0.82910000  0.26780000  1.0
  H  H1879  1  0.63340000  0.82690000  0.38900000  1.0
  H  H1880  1  0.66370000  0.83940000  0.37650000  1.0
  H  H1881  1  0.58660000  0.84620000  0.37100000  1.0
  H  H1882  1  0.64350000  0.76140000  0.35420000  1.0
  H  H1883  1  0.62220000  0.78010000  0.37500000  1.0
  H  H1884  1  0.59490000  0.75550000  0.29490000  1.0
  H  H1885  1  0.62660000  0.74530000  0.30620000  1.0
  H  H1886  1  0.57400000  0.79440000  0.35680000  1.0
  H  H1887  1  0.56410000  0.78340000  0.32490000  1.0
  H  H1888  1  0.81400000  0.37640000  0.83890000  1.0
  H  H1889  1  0.81040000  0.34760000  0.78560000  1.0
  H  H1890  1  0.71700000  0.27950000  0.75460000  1.0
  H  H1891  1  0.67060000  0.26510000  0.79000000  1.0
  H  H1892  1  0.68480000  0.33890000  0.77660000  1.0
  H  H1893  1  0.69320000  0.34750000  0.80960000  1.0
  H  H1894  1  0.73980000  0.33610000  0.80120000  1.0
  H  H1895  1  0.73170000  0.32910000  0.76780000  1.0
  H  H1896  1  0.63340000  0.32690000  0.88900000  1.0
  H  H1897  1  0.66370000  0.33940000  0.87650000  1.0
  H  H1898  1  0.58660000  0.34620000  0.87100000  1.0
  H  H1899  1  0.64350000  0.26140000  0.85420000  1.0
  H  H1900  1  0.62220000  0.28010000  0.87500000  1.0
  H  H1901  1  0.59490000  0.25550000  0.79490000  1.0
  H  H1902  1  0.62660000  0.24530000  0.80620000  1.0
  H  H1903  1  0.57400000  0.29440000  0.85680000  1.0
  H  H1904  1  0.56410000  0.28340000  0.82490000  1.0
  H  H1905  1  0.91110000  0.81400000  0.37360000  1.0
  H  H1906  1  0.96440000  0.81040000  0.40240000  1.0
  H  H1907  1  0.99540000  0.71700000  0.47050000  1.0
  H  H1908  1  0.96000000  0.67060000  0.48490000  1.0
  H  H1909  1  0.97340000  0.68480000  0.41110000  1.0
  H  H1910  1  0.94040000  0.69320000  0.40250000  1.0
  H  H1911  1  0.94880000  0.73980000  0.41390000  1.0
  H  H1912  1  0.98220000  0.73170000  0.42090000  1.0
  H  H1913  1  0.86100000  0.63340000  0.42310000  1.0
  H  H1914  1  0.87350000  0.66370000  0.41060000  1.0
  H  H1915  1  0.87900000  0.58660000  0.40380000  1.0
  H  H1916  1  0.89580000  0.64350000  0.48860000  1.0
  H  H1917  1  0.87500000  0.62220000  0.46990000  1.0
  H  H1918  1  0.95510000  0.59490000  0.49450000  1.0
  H  H1919  1  0.94380000  0.62660000  0.50470000  1.0
  H  H1920  1  0.89320000  0.57400000  0.45560000  1.0
  H  H1921  1  0.92510000  0.56410000  0.46660000  1.0
  H  H1922  1  0.91110000  0.31400000  0.87360000  1.0
  H  H1923  1  0.96440000  0.31040000  0.90240000  1.0
  H  H1924  1  0.99540000  0.21700000  0.97050000  1.0
  H  H1925  1  0.96000000  0.17060000  0.98490000  1.0
  H  H1926  1  0.97340000  0.18480000  0.91110000  1.0
  H  H1927  1  0.94040000  0.19320000  0.90250000  1.0
  H  H1928  1  0.94880000  0.23980000  0.91390000  1.0
  H  H1929  1  0.98220000  0.23170000  0.92090000  1.0
  H  H1930  1  0.86100000  0.13340000  0.92310000  1.0
  H  H1931  1  0.87350000  0.16370000  0.91060000  1.0
  H  H1932  1  0.87900000  0.08660000  0.90380000  1.0
  H  H1933  1  0.89580000  0.14350000  0.98860000  1.0
  H  H1934  1  0.87500000  0.12220000  0.96990000  1.0
  H  H1935  1  0.95510000  0.09490000  0.99450000  1.0
  H  H1936  1  0.94380000  0.12660000  0.00470000  1.0
  H  H1937  1  0.89320000  0.07400000  0.95560000  1.0
  H  H1938  1  0.92510000  0.06410000  0.96660000  1.0
  H  H1939  1  0.41110000  0.81400000  0.87360000  1.0
  H  H1940  1  0.46440000  0.81040000  0.90240000  1.0
  H  H1941  1  0.49540000  0.71700000  0.97050000  1.0
  H  H1942  1  0.46000000  0.67060000  0.98490000  1.0
  H  H1943  1  0.47340000  0.68480000  0.91110000  1.0
  H  H1944  1  0.44040000  0.69320000  0.90250000  1.0
  H  H1945  1  0.44880000  0.73980000  0.91390000  1.0
  H  H1946  1  0.48220000  0.73170000  0.92090000  1.0
  H  H1947  1  0.36100000  0.63340000  0.92310000  1.0
  H  H1948  1  0.37350000  0.66370000  0.91060000  1.0
  H  H1949  1  0.37900000  0.58660000  0.90380000  1.0
  H  H1950  1  0.39580000  0.64350000  0.98860000  1.0
  H  H1951  1  0.37500000  0.62220000  0.96990000  1.0
  H  H1952  1  0.45510000  0.59490000  0.99450000  1.0
  H  H1953  1  0.44380000  0.62660000  0.00470000  1.0
  H  H1954  1  0.39320000  0.57400000  0.95560000  1.0
  H  H1955  1  0.42510000  0.56410000  0.96660000  1.0
  H  H1956  1  0.41110000  0.31400000  0.37360000  1.0
  H  H1957  1  0.46440000  0.31040000  0.40240000  1.0
  H  H1958  1  0.49540000  0.21700000  0.47050000  1.0
  H  H1959  1  0.46000000  0.17060000  0.48490000  1.0
  H  H1960  1  0.47340000  0.18480000  0.41110000  1.0
  H  H1961  1  0.44040000  0.19320000  0.40250000  1.0
  H  H1962  1  0.44880000  0.23980000  0.41390000  1.0
  H  H1963  1  0.48220000  0.23170000  0.42090000  1.0
  H  H1964  1  0.36100000  0.13340000  0.42310000  1.0
  H  H1965  1  0.37350000  0.16370000  0.41060000  1.0
  H  H1966  1  0.37900000  0.08660000  0.40380000  1.0
  H  H1967  1  0.39580000  0.14350000  0.48860000  1.0
  H  H1968  1  0.37500000  0.12220000  0.46990000  1.0
  H  H1969  1  0.45510000  0.09490000  0.49450000  1.0
  H  H1970  1  0.44380000  0.12660000  0.50470000  1.0
  H  H1971  1  0.39320000  0.07400000  0.45560000  1.0
  H  H1972  1  0.42510000  0.06410000  0.46660000  1.0
  H  H1973  1  0.41110000  0.43600000  0.37640000  1.0
  H  H1974  1  0.46440000  0.43960000  0.34760000  1.0
  H  H1975  1  0.49540000  0.53300000  0.27950000  1.0
  H  H1976  1  0.46000000  0.57940000  0.26510000  1.0
  H  H1977  1  0.47340000  0.56520000  0.33890000  1.0
  H  H1978  1  0.44040000  0.55680000  0.34750000  1.0
  H  H1979  1  0.44880000  0.51020000  0.33610000  1.0
  H  H1980  1  0.48220000  0.51830000  0.32910000  1.0
  H  H1981  1  0.36100000  0.61660000  0.32690000  1.0
  H  H1982  1  0.37350000  0.58630000  0.33940000  1.0
  H  H1983  1  0.37900000  0.66340000  0.34620000  1.0
  H  H1984  1  0.39580000  0.60650000  0.26140000  1.0
  H  H1985  1  0.37500000  0.62780000  0.28010000  1.0
  H  H1986  1  0.45510000  0.65510000  0.25550000  1.0
  H  H1987  1  0.44380000  0.62340000  0.24530000  1.0
  H  H1988  1  0.39320000  0.67600000  0.29440000  1.0
  H  H1989  1  0.42510000  0.68590000  0.28340000  1.0
  H  H1990  1  0.41110000  0.93600000  0.87640000  1.0
  H  H1991  1  0.46440000  0.93960000  0.84760000  1.0
  H  H1992  1  0.49540000  0.03300000  0.77950000  1.0
  H  H1993  1  0.46000000  0.07940000  0.76510000  1.0
  H  H1994  1  0.47340000  0.06520000  0.83890000  1.0
  H  H1995  1  0.44040000  0.05680000  0.84750000  1.0
  H  H1996  1  0.44880000  0.01020000  0.83610000  1.0
  H  H1997  1  0.48220000  0.01830000  0.82910000  1.0
  H  H1998  1  0.36100000  0.11660000  0.82690000  1.0
  H  H1999  1  0.37350000  0.08630000  0.83940000  1.0
  H  H2000  1  0.37900000  0.16340000  0.84620000  1.0
  H  H2001  1  0.39580000  0.10650000  0.76140000  1.0
  H  H2002  1  0.37500000  0.12780000  0.78010000  1.0
  H  H2003  1  0.45510000  0.15510000  0.75550000  1.0
  H  H2004  1  0.44380000  0.12340000  0.74530000  1.0
  H  H2005  1  0.39320000  0.17600000  0.79440000  1.0
  H  H2006  1  0.42510000  0.18590000  0.78340000  1.0
  H  H2007  1  0.91110000  0.43600000  0.87640000  1.0
  H  H2008  1  0.96440000  0.43960000  0.84760000  1.0
  H  H2009  1  0.99540000  0.53300000  0.77950000  1.0
  H  H2010  1  0.96000000  0.57940000  0.76510000  1.0
  H  H2011  1  0.97340000  0.56520000  0.83890000  1.0
  H  H2012  1  0.94040000  0.55680000  0.84750000  1.0
  H  H2013  1  0.94880000  0.51020000  0.83610000  1.0
  H  H2014  1  0.98220000  0.51830000  0.82910000  1.0
  H  H2015  1  0.86100000  0.61660000  0.82690000  1.0
  H  H2016  1  0.87350000  0.58630000  0.83940000  1.0
  H  H2017  1  0.87900000  0.66340000  0.84620000  1.0
  H  H2018  1  0.89580000  0.60650000  0.76140000  1.0
  H  H2019  1  0.87500000  0.62780000  0.78010000  1.0
  H  H2020  1  0.95510000  0.65510000  0.75550000  1.0
  H  H2021  1  0.94380000  0.62340000  0.74530000  1.0
  H  H2022  1  0.89320000  0.67600000  0.79440000  1.0
  H  H2023  1  0.92510000  0.68590000  0.78340000  1.0
  H  H2024  1  0.91110000  0.93600000  0.37640000  1.0
  H  H2025  1  0.96440000  0.93960000  0.34760000  1.0
  H  H2026  1  0.99540000  0.03300000  0.27950000  1.0
  H  H2027  1  0.96000000  0.07940000  0.26510000  1.0
  H  H2028  1  0.97340000  0.06520000  0.33890000  1.0
  H  H2029  1  0.94040000  0.05680000  0.34750000  1.0
  H  H2030  1  0.94880000  0.01020000  0.33610000  1.0
  H  H2031  1  0.98220000  0.01830000  0.32910000  1.0
  H  H2032  1  0.86100000  0.11660000  0.32690000  1.0
  H  H2033  1  0.87350000  0.08630000  0.33940000  1.0
  H  H2034  1  0.87900000  0.16340000  0.34620000  1.0
  H  H2035  1  0.89580000  0.10650000  0.26140000  1.0
  H  H2036  1  0.87500000  0.12780000  0.28010000  1.0
  H  H2037  1  0.95510000  0.15510000  0.25550000  1.0
  H  H2038  1  0.94380000  0.12340000  0.24530000  1.0
  H  H2039  1  0.89320000  0.17600000  0.29440000  1.0
  H  H2040  1  0.92510000  0.18590000  0.28340000  1.0
  H  H2041  1  0.33890000  0.93600000  0.87360000  1.0
  H  H2042  1  0.28560000  0.93960000  0.90240000  1.0
  H  H2043  1  0.25460000  0.03300000  0.97050000  1.0
  H  H2044  1  0.29000000  0.07940000  0.98490000  1.0
  H  H2045  1  0.27660000  0.06520000  0.91110000  1.0
  H  H2046  1  0.30960000  0.05680000  0.90250000  1.0
  H  H2047  1  0.30120000  0.01020000  0.91390000  1.0
  H  H2048  1  0.26780000  0.01830000  0.92090000  1.0
  H  H2049  1  0.38900000  0.11660000  0.92310000  1.0
  H  H2050  1  0.37650000  0.08630000  0.91060000  1.0
  H  H2051  1  0.37100000  0.16340000  0.90380000  1.0
  H  H2052  1  0.35420000  0.10650000  0.98860000  1.0
  H  H2053  1  0.37500000  0.12780000  0.96990000  1.0
  H  H2054  1  0.29490000  0.15510000  0.99450000  1.0
  H  H2055  1  0.30620000  0.12340000  0.00470000  1.0
  H  H2056  1  0.35680000  0.17600000  0.95560000  1.0
  H  H2057  1  0.32490000  0.18590000  0.96660000  1.0
  H  H2058  1  0.33890000  0.43600000  0.37360000  1.0
  H  H2059  1  0.28560000  0.43960000  0.40240000  1.0
  H  H2060  1  0.25460000  0.53300000  0.47050000  1.0
  H  H2061  1  0.29000000  0.57940000  0.48490000  1.0
  H  H2062  1  0.27660000  0.56520000  0.41110000  1.0
  H  H2063  1  0.30960000  0.55680000  0.40250000  1.0
  H  H2064  1  0.30120000  0.51020000  0.41390000  1.0
  H  H2065  1  0.26780000  0.51830000  0.42090000  1.0
  H  H2066  1  0.38900000  0.61660000  0.42310000  1.0
  H  H2067  1  0.37650000  0.58630000  0.41060000  1.0
  H  H2068  1  0.37100000  0.66340000  0.40380000  1.0
  H  H2069  1  0.35420000  0.60650000  0.48860000  1.0
  H  H2070  1  0.37500000  0.62780000  0.46990000  1.0
  H  H2071  1  0.29490000  0.65510000  0.49450000  1.0
  H  H2072  1  0.30620000  0.62340000  0.50470000  1.0
  H  H2073  1  0.35680000  0.67600000  0.45560000  1.0
  H  H2074  1  0.32490000  0.68590000  0.46660000  1.0
  H  H2075  1  0.83890000  0.93600000  0.37360000  1.0
  H  H2076  1  0.78560000  0.93960000  0.40240000  1.0
  H  H2077  1  0.75460000  0.03300000  0.47050000  1.0
  H  H2078  1  0.79000000  0.07940000  0.48490000  1.0
  H  H2079  1  0.77660000  0.06520000  0.41110000  1.0
  H  H2080  1  0.80960000  0.05680000  0.40250000  1.0
  H  H2081  1  0.80120000  0.01020000  0.41390000  1.0
  H  H2082  1  0.76780000  0.01830000  0.42090000  1.0
  H  H2083  1  0.88900000  0.11660000  0.42310000  1.0
  H  H2084  1  0.87650000  0.08630000  0.41060000  1.0
  H  H2085  1  0.87100000  0.16340000  0.40380000  1.0
  H  H2086  1  0.85420000  0.10650000  0.48860000  1.0
  H  H2087  1  0.87500000  0.12780000  0.46990000  1.0
  H  H2088  1  0.79490000  0.15510000  0.49450000  1.0
  H  H2089  1  0.80620000  0.12340000  0.50470000  1.0
  H  H2090  1  0.85680000  0.17600000  0.45560000  1.0
  H  H2091  1  0.82490000  0.18590000  0.46660000  1.0
  H  H2092  1  0.83890000  0.43600000  0.87360000  1.0
  H  H2093  1  0.78560000  0.43960000  0.90240000  1.0
  H  H2094  1  0.75460000  0.53300000  0.97050000  1.0
  H  H2095  1  0.79000000  0.57940000  0.98490000  1.0
  H  H2096  1  0.77660000  0.56520000  0.91110000  1.0
  H  H2097  1  0.80960000  0.55680000  0.90250000  1.0
  H  H2098  1  0.80120000  0.51020000  0.91390000  1.0
  H  H2099  1  0.76780000  0.51830000  0.92090000  1.0
  H  H2100  1  0.88900000  0.61660000  0.92310000  1.0
  H  H2101  1  0.87650000  0.58630000  0.91060000  1.0
  H  H2102  1  0.87100000  0.66340000  0.90380000  1.0
  H  H2103  1  0.85420000  0.60650000  0.98860000  1.0
  H  H2104  1  0.87500000  0.62780000  0.96990000  1.0
  H  H2105  1  0.79490000  0.65510000  0.99450000  1.0
  H  H2106  1  0.80620000  0.62340000  0.00470000  1.0
  H  H2107  1  0.85680000  0.67600000  0.95560000  1.0
  H  H2108  1  0.82490000  0.68590000  0.96660000  1.0
  H  H2109  1  0.83890000  0.31400000  0.87640000  1.0
  H  H2110  1  0.78560000  0.31040000  0.84760000  1.0
  H  H2111  1  0.75460000  0.21700000  0.77950000  1.0
  H  H2112  1  0.79000000  0.17060000  0.76510000  1.0
  H  H2113  1  0.77660000  0.18480000  0.83890000  1.0
  H  H2114  1  0.80960000  0.19320000  0.84750000  1.0
  H  H2115  1  0.80120000  0.23980000  0.83610000  1.0
  H  H2116  1  0.76780000  0.23170000  0.82910000  1.0
  H  H2117  1  0.88900000  0.13340000  0.82690000  1.0
  H  H2118  1  0.87650000  0.16370000  0.83940000  1.0
  H  H2119  1  0.87100000  0.08660000  0.84620000  1.0
  H  H2120  1  0.85420000  0.14350000  0.76140000  1.0
  H  H2121  1  0.87500000  0.12220000  0.78010000  1.0
  H  H2122  1  0.79490000  0.09490000  0.75550000  1.0
  H  H2123  1  0.80620000  0.12660000  0.74530000  1.0
  H  H2124  1  0.85680000  0.07400000  0.79440000  1.0
  H  H2125  1  0.82490000  0.06410000  0.78340000  1.0
  H  H2126  1  0.83890000  0.81400000  0.37640000  1.0
  H  H2127  1  0.78560000  0.81040000  0.34760000  1.0
  H  H2128  1  0.75460000  0.71700000  0.27950000  1.0
  H  H2129  1  0.79000000  0.67060000  0.26510000  1.0
  H  H2130  1  0.77660000  0.68480000  0.33890000  1.0
  H  H2131  1  0.80960000  0.69320000  0.34750000  1.0
  H  H2132  1  0.80120000  0.73980000  0.33610000  1.0
  H  H2133  1  0.76780000  0.73170000  0.32910000  1.0
  H  H2134  1  0.88900000  0.63340000  0.32690000  1.0
  H  H2135  1  0.87650000  0.66370000  0.33940000  1.0
  H  H2136  1  0.87100000  0.58660000  0.34620000  1.0
  H  H2137  1  0.85420000  0.64350000  0.26140000  1.0
  H  H2138  1  0.87500000  0.62220000  0.28010000  1.0
  H  H2139  1  0.79490000  0.59490000  0.25550000  1.0
  H  H2140  1  0.80620000  0.62660000  0.24530000  1.0
  H  H2141  1  0.85680000  0.57400000  0.29440000  1.0
  H  H2142  1  0.82490000  0.56410000  0.28340000  1.0
  H  H2143  1  0.33890000  0.31400000  0.37640000  1.0
  H  H2144  1  0.28560000  0.31040000  0.34760000  1.0
  H  H2145  1  0.25460000  0.21700000  0.27950000  1.0
  H  H2146  1  0.29000000  0.17060000  0.26510000  1.0
  H  H2147  1  0.27660000  0.18480000  0.33890000  1.0
  H  H2148  1  0.30960000  0.19320000  0.34750000  1.0
  H  H2149  1  0.30120000  0.23980000  0.33610000  1.0
  H  H2150  1  0.26780000  0.23170000  0.32910000  1.0
  H  H2151  1  0.38900000  0.13340000  0.32690000  1.0
  H  H2152  1  0.37650000  0.16370000  0.33940000  1.0
  H  H2153  1  0.37100000  0.08660000  0.34620000  1.0
  H  H2154  1  0.35420000  0.14350000  0.26140000  1.0
  H  H2155  1  0.37500000  0.12220000  0.28010000  1.0
  H  H2156  1  0.29490000  0.09490000  0.25550000  1.0
  H  H2157  1  0.30620000  0.12660000  0.24530000  1.0
  H  H2158  1  0.35680000  0.07400000  0.29440000  1.0
  H  H2159  1  0.32490000  0.06410000  0.28340000  1.0
  H  H2160  1  0.33890000  0.81400000  0.87640000  1.0
  H  H2161  1  0.28560000  0.81040000  0.84760000  1.0
  H  H2162  1  0.25460000  0.71700000  0.77950000  1.0
  H  H2163  1  0.29000000  0.67060000  0.76510000  1.0
  H  H2164  1  0.27660000  0.68480000  0.83890000  1.0
  H  H2165  1  0.30960000  0.69320000  0.84750000  1.0
  H  H2166  1  0.30120000  0.73980000  0.83610000  1.0
  H  H2167  1  0.26780000  0.73170000  0.82910000  1.0
  H  H2168  1  0.38900000  0.63340000  0.82690000  1.0
  H  H2169  1  0.37650000  0.66370000  0.83940000  1.0
  H  H2170  1  0.37100000  0.58660000  0.84620000  1.0
  H  H2171  1  0.35420000  0.64350000  0.76140000  1.0
  H  H2172  1  0.37500000  0.62220000  0.78010000  1.0
  H  H2173  1  0.29490000  0.59490000  0.75550000  1.0
  H  H2174  1  0.30620000  0.62660000  0.74530000  1.0
  H  H2175  1  0.35680000  0.57400000  0.79440000  1.0
  H  H2176  1  0.32490000  0.56410000  0.78340000  1.0
  H  H2177  1  0.37360000  0.91110000  0.81400000  1.0
  H  H2178  1  0.40240000  0.96440000  0.81040000  1.0
  H  H2179  1  0.47050000  0.99540000  0.71700000  1.0
  H  H2180  1  0.48490000  0.96000000  0.67060000  1.0
  H  H2181  1  0.41110000  0.97340000  0.68480000  1.0
  H  H2182  1  0.40250000  0.94040000  0.69320000  1.0
  H  H2183  1  0.41390000  0.94880000  0.73980000  1.0
  H  H2184  1  0.42090000  0.98220000  0.73170000  1.0
  H  H2185  1  0.42310000  0.86100000  0.63340000  1.0
  H  H2186  1  0.41060000  0.87350000  0.66370000  1.0
  H  H2187  1  0.40380000  0.87900000  0.58660000  1.0
  H  H2188  1  0.48860000  0.89580000  0.64350000  1.0
  H  H2189  1  0.46990000  0.87500000  0.62220000  1.0
  H  H2190  1  0.49450000  0.95510000  0.59490000  1.0
  H  H2191  1  0.50470000  0.94380000  0.62660000  1.0
  H  H2192  1  0.45560000  0.89320000  0.57400000  1.0
  H  H2193  1  0.46660000  0.92510000  0.56410000  1.0
  H  H2194  1  0.37360000  0.41110000  0.31400000  1.0
  H  H2195  1  0.40240000  0.46440000  0.31040000  1.0
  H  H2196  1  0.47050000  0.49540000  0.21700000  1.0
  H  H2197  1  0.48490000  0.46000000  0.17060000  1.0
  H  H2198  1  0.41110000  0.47340000  0.18480000  1.0
  H  H2199  1  0.40250000  0.44040000  0.19320000  1.0
  H  H2200  1  0.41390000  0.44880000  0.23980000  1.0
  H  H2201  1  0.42090000  0.48220000  0.23170000  1.0
  H  H2202  1  0.42310000  0.36100000  0.13340000  1.0
  H  H2203  1  0.41060000  0.37350000  0.16370000  1.0
  H  H2204  1  0.40380000  0.37900000  0.08660000  1.0
  H  H2205  1  0.48860000  0.39580000  0.14350000  1.0
  H  H2206  1  0.46990000  0.37500000  0.12220000  1.0
  H  H2207  1  0.49450000  0.45510000  0.09490000  1.0
  H  H2208  1  0.50470000  0.44380000  0.12660000  1.0
  H  H2209  1  0.45560000  0.39320000  0.07400000  1.0
  H  H2210  1  0.46660000  0.42510000  0.06410000  1.0
  H  H2211  1  0.87360000  0.91110000  0.31400000  1.0
  H  H2212  1  0.90240000  0.96440000  0.31040000  1.0
  H  H2213  1  0.97050000  0.99540000  0.21700000  1.0
  H  H2214  1  0.98490000  0.96000000  0.17060000  1.0
  H  H2215  1  0.91110000  0.97340000  0.18480000  1.0
  H  H2216  1  0.90250000  0.94040000  0.19320000  1.0
  H  H2217  1  0.91390000  0.94880000  0.23980000  1.0
  H  H2218  1  0.92090000  0.98220000  0.23170000  1.0
  H  H2219  1  0.92310000  0.86100000  0.13340000  1.0
  H  H2220  1  0.91060000  0.87350000  0.16370000  1.0
  H  H2221  1  0.90380000  0.87900000  0.08660000  1.0
  H  H2222  1  0.98860000  0.89580000  0.14350000  1.0
  H  H2223  1  0.96990000  0.87500000  0.12220000  1.0
  H  H2224  1  0.99450000  0.95510000  0.09490000  1.0
  H  H2225  1  0.00470000  0.94380000  0.12660000  1.0
  H  H2226  1  0.95560000  0.89320000  0.07400000  1.0
  H  H2227  1  0.96660000  0.92510000  0.06410000  1.0
  H  H2228  1  0.87360000  0.41110000  0.81400000  1.0
  H  H2229  1  0.90240000  0.46440000  0.81040000  1.0
  H  H2230  1  0.97050000  0.49540000  0.71700000  1.0
  H  H2231  1  0.98490000  0.46000000  0.67060000  1.0
  H  H2232  1  0.91110000  0.47340000  0.68480000  1.0
  H  H2233  1  0.90250000  0.44040000  0.69320000  1.0
  H  H2234  1  0.91390000  0.44880000  0.73980000  1.0
  H  H2235  1  0.92090000  0.48220000  0.73170000  1.0
  H  H2236  1  0.92310000  0.36100000  0.63340000  1.0
  H  H2237  1  0.91060000  0.37350000  0.66370000  1.0
  H  H2238  1  0.90380000  0.37900000  0.58660000  1.0
  H  H2239  1  0.98860000  0.39580000  0.64350000  1.0
  H  H2240  1  0.96990000  0.37500000  0.62220000  1.0
  H  H2241  1  0.99450000  0.45510000  0.59490000  1.0
  H  H2242  1  0.00470000  0.44380000  0.62660000  1.0
  H  H2243  1  0.95560000  0.39320000  0.57400000  1.0
  H  H2244  1  0.96660000  0.42510000  0.56410000  1.0
  H  H2245  1  0.37640000  0.41110000  0.43600000  1.0
  H  H2246  1  0.34760000  0.46440000  0.43960000  1.0
  H  H2247  1  0.27950000  0.49540000  0.53300000  1.0
  H  H2248  1  0.26510000  0.46000000  0.57940000  1.0
  H  H2249  1  0.33890000  0.47340000  0.56520000  1.0
  H  H2250  1  0.34750000  0.44040000  0.55680000  1.0
  H  H2251  1  0.33610000  0.44880000  0.51020000  1.0
  H  H2252  1  0.32910000  0.48220000  0.51830000  1.0
  H  H2253  1  0.32690000  0.36100000  0.61660000  1.0
  H  H2254  1  0.33940000  0.37350000  0.58630000  1.0
  H  H2255  1  0.34620000  0.37900000  0.66340000  1.0
  H  H2256  1  0.26140000  0.39580000  0.60650000  1.0
  H  H2257  1  0.28010000  0.37500000  0.62780000  1.0
  H  H2258  1  0.25550000  0.45510000  0.65510000  1.0
  H  H2259  1  0.24530000  0.44380000  0.62340000  1.0
  H  H2260  1  0.29440000  0.39320000  0.67600000  1.0
  H  H2261  1  0.28340000  0.42510000  0.68590000  1.0
  H  H2262  1  0.37640000  0.91110000  0.93600000  1.0
  H  H2263  1  0.34760000  0.96440000  0.93960000  1.0
  H  H2264  1  0.27950000  0.99540000  0.03300000  1.0
  H  H2265  1  0.26510000  0.96000000  0.07940000  1.0
  H  H2266  1  0.33890000  0.97340000  0.06520000  1.0
  H  H2267  1  0.34750000  0.94040000  0.05680000  1.0
  H  H2268  1  0.33610000  0.94880000  0.01020000  1.0
  H  H2269  1  0.32910000  0.98220000  0.01830000  1.0
  H  H2270  1  0.32690000  0.86100000  0.11660000  1.0
  H  H2271  1  0.33940000  0.87350000  0.08630000  1.0
  H  H2272  1  0.34620000  0.87900000  0.16340000  1.0
  H  H2273  1  0.26140000  0.89580000  0.10650000  1.0
  H  H2274  1  0.28010000  0.87500000  0.12780000  1.0
  H  H2275  1  0.25550000  0.95510000  0.15510000  1.0
  H  H2276  1  0.24530000  0.94380000  0.12340000  1.0
  H  H2277  1  0.29440000  0.89320000  0.17600000  1.0
  H  H2278  1  0.28340000  0.92510000  0.18590000  1.0
  H  H2279  1  0.87640000  0.41110000  0.93600000  1.0
  H  H2280  1  0.84760000  0.46440000  0.93960000  1.0
  H  H2281  1  0.77950000  0.49540000  0.03300000  1.0
  H  H2282  1  0.76510000  0.46000000  0.07940000  1.0
  H  H2283  1  0.83890000  0.47340000  0.06520000  1.0
  H  H2284  1  0.84750000  0.44040000  0.05680000  1.0
  H  H2285  1  0.83610000  0.44880000  0.01020000  1.0
  H  H2286  1  0.82910000  0.48220000  0.01830000  1.0
  H  H2287  1  0.82690000  0.36100000  0.11660000  1.0
  H  H2288  1  0.83940000  0.37350000  0.08630000  1.0
  H  H2289  1  0.84620000  0.37900000  0.16340000  1.0
  H  H2290  1  0.76140000  0.39580000  0.10650000  1.0
  H  H2291  1  0.78010000  0.37500000  0.12780000  1.0
  H  H2292  1  0.75550000  0.45510000  0.15510000  1.0
  H  H2293  1  0.74530000  0.44380000  0.12340000  1.0
  H  H2294  1  0.79440000  0.39320000  0.17600000  1.0
  H  H2295  1  0.78340000  0.42510000  0.18590000  1.0
  H  H2296  1  0.87640000  0.91110000  0.43600000  1.0
  H  H2297  1  0.84760000  0.96440000  0.43960000  1.0
  H  H2298  1  0.77950000  0.99540000  0.53300000  1.0
  H  H2299  1  0.76510000  0.96000000  0.57940000  1.0
  H  H2300  1  0.83890000  0.97340000  0.56520000  1.0
  H  H2301  1  0.84750000  0.94040000  0.55680000  1.0
  H  H2302  1  0.83610000  0.94880000  0.51020000  1.0
  H  H2303  1  0.82910000  0.98220000  0.51830000  1.0
  H  H2304  1  0.82690000  0.86100000  0.61660000  1.0
  H  H2305  1  0.83940000  0.87350000  0.58630000  1.0
  H  H2306  1  0.84620000  0.87900000  0.66340000  1.0
  H  H2307  1  0.76140000  0.89580000  0.60650000  1.0
  H  H2308  1  0.78010000  0.87500000  0.62780000  1.0
  H  H2309  1  0.75550000  0.95510000  0.65510000  1.0
  H  H2310  1  0.74530000  0.94380000  0.62340000  1.0
  H  H2311  1  0.79440000  0.89320000  0.67600000  1.0
  H  H2312  1  0.78340000  0.92510000  0.68590000  1.0
  H  H2313  1  0.87360000  0.33890000  0.93600000  1.0
  H  H2314  1  0.90240000  0.28560000  0.93960000  1.0
  H  H2315  1  0.97050000  0.25460000  0.03300000  1.0
  H  H2316  1  0.98490000  0.29000000  0.07940000  1.0
  H  H2317  1  0.91110000  0.27660000  0.06520000  1.0
  H  H2318  1  0.90250000  0.30960000  0.05680000  1.0
  H  H2319  1  0.91390000  0.30120000  0.01020000  1.0
  H  H2320  1  0.92090000  0.26780000  0.01830000  1.0
  H  H2321  1  0.92310000  0.38900000  0.11660000  1.0
  H  H2322  1  0.91060000  0.37650000  0.08630000  1.0
  H  H2323  1  0.90380000  0.37100000  0.16340000  1.0
  H  H2324  1  0.98860000  0.35420000  0.10650000  1.0
  H  H2325  1  0.96990000  0.37500000  0.12780000  1.0
  H  H2326  1  0.99450000  0.29490000  0.15510000  1.0
  H  H2327  1  0.00470000  0.30620000  0.12340000  1.0
  H  H2328  1  0.95560000  0.35680000  0.17600000  1.0
  H  H2329  1  0.96660000  0.32490000  0.18590000  1.0
  H  H2330  1  0.87360000  0.83890000  0.43600000  1.0
  H  H2331  1  0.90240000  0.78560000  0.43960000  1.0
  H  H2332  1  0.97050000  0.75460000  0.53300000  1.0
  H  H2333  1  0.98490000  0.79000000  0.57940000  1.0
  H  H2334  1  0.91110000  0.77660000  0.56520000  1.0
  H  H2335  1  0.90250000  0.80960000  0.55680000  1.0
  H  H2336  1  0.91390000  0.80120000  0.51020000  1.0
  H  H2337  1  0.92090000  0.76780000  0.51830000  1.0
  H  H2338  1  0.92310000  0.88900000  0.61660000  1.0
  H  H2339  1  0.91060000  0.87650000  0.58630000  1.0
  H  H2340  1  0.90380000  0.87100000  0.66340000  1.0
  H  H2341  1  0.98860000  0.85420000  0.60650000  1.0
  H  H2342  1  0.96990000  0.87500000  0.62780000  1.0
  H  H2343  1  0.99450000  0.79490000  0.65510000  1.0
  H  H2344  1  0.00470000  0.80620000  0.62340000  1.0
  H  H2345  1  0.95560000  0.85680000  0.67600000  1.0
  H  H2346  1  0.96660000  0.82490000  0.68590000  1.0
  H  H2347  1  0.37360000  0.33890000  0.43600000  1.0
  H  H2348  1  0.40240000  0.28560000  0.43960000  1.0
  H  H2349  1  0.47050000  0.25460000  0.53300000  1.0
  H  H2350  1  0.48490000  0.29000000  0.57940000  1.0
  H  H2351  1  0.41110000  0.27660000  0.56520000  1.0
  H  H2352  1  0.40250000  0.30960000  0.55680000  1.0
  H  H2353  1  0.41390000  0.30120000  0.51020000  1.0
  H  H2354  1  0.42090000  0.26780000  0.51830000  1.0
  H  H2355  1  0.42310000  0.38900000  0.61660000  1.0
  H  H2356  1  0.41060000  0.37650000  0.58630000  1.0
  H  H2357  1  0.40380000  0.37100000  0.66340000  1.0
  H  H2358  1  0.48860000  0.35420000  0.60650000  1.0
  H  H2359  1  0.46990000  0.37500000  0.62780000  1.0
  H  H2360  1  0.49450000  0.29490000  0.65510000  1.0
  H  H2361  1  0.50470000  0.30620000  0.62340000  1.0
  H  H2362  1  0.45560000  0.35680000  0.67600000  1.0
  H  H2363  1  0.46660000  0.32490000  0.68590000  1.0
  H  H2364  1  0.37360000  0.83890000  0.93600000  1.0
  H  H2365  1  0.40240000  0.78560000  0.93960000  1.0
  H  H2366  1  0.47050000  0.75460000  0.03300000  1.0
  H  H2367  1  0.48490000  0.79000000  0.07940000  1.0
  H  H2368  1  0.41110000  0.77660000  0.06520000  1.0
  H  H2369  1  0.40250000  0.80960000  0.05680000  1.0
  H  H2370  1  0.41390000  0.80120000  0.01020000  1.0
  H  H2371  1  0.42090000  0.76780000  0.01830000  1.0
  H  H2372  1  0.42310000  0.88900000  0.11660000  1.0
  H  H2373  1  0.41060000  0.87650000  0.08630000  1.0
  H  H2374  1  0.40380000  0.87100000  0.16340000  1.0
  H  H2375  1  0.48860000  0.85420000  0.10650000  1.0
  H  H2376  1  0.46990000  0.87500000  0.12780000  1.0
  H  H2377  1  0.49450000  0.79490000  0.15510000  1.0
  H  H2378  1  0.50470000  0.80620000  0.12340000  1.0
  H  H2379  1  0.45560000  0.85680000  0.17600000  1.0
  H  H2380  1  0.46660000  0.82490000  0.18590000  1.0
  H  H2381  1  0.87640000  0.83890000  0.31400000  1.0
  H  H2382  1  0.84760000  0.78560000  0.31040000  1.0
  H  H2383  1  0.77950000  0.75460000  0.21700000  1.0
  H  H2384  1  0.76510000  0.79000000  0.17060000  1.0
  H  H2385  1  0.83890000  0.77660000  0.18480000  1.0
  H  H2386  1  0.84750000  0.80960000  0.19320000  1.0
  H  H2387  1  0.83610000  0.80120000  0.23980000  1.0
  H  H2388  1  0.82910000  0.76780000  0.23170000  1.0
  H  H2389  1  0.82690000  0.88900000  0.13340000  1.0
  H  H2390  1  0.83940000  0.87650000  0.16370000  1.0
  H  H2391  1  0.84620000  0.87100000  0.08660000  1.0
  H  H2392  1  0.76140000  0.85420000  0.14350000  1.0
  H  H2393  1  0.78010000  0.87500000  0.12220000  1.0
  H  H2394  1  0.75550000  0.79490000  0.09490000  1.0
  H  H2395  1  0.74530000  0.80620000  0.12660000  1.0
  H  H2396  1  0.79440000  0.85680000  0.07400000  1.0
  H  H2397  1  0.78340000  0.82490000  0.06410000  1.0
  H  H2398  1  0.87640000  0.33890000  0.81400000  1.0
  H  H2399  1  0.84760000  0.28560000  0.81040000  1.0
  H  H2400  1  0.77950000  0.25460000  0.71700000  1.0
  H  H2401  1  0.76510000  0.29000000  0.67060000  1.0
  H  H2402  1  0.83890000  0.27660000  0.68480000  1.0
  H  H2403  1  0.84750000  0.30960000  0.69320000  1.0
  H  H2404  1  0.83610000  0.30120000  0.73980000  1.0
  H  H2405  1  0.82910000  0.26780000  0.73170000  1.0
  H  H2406  1  0.82690000  0.38900000  0.63340000  1.0
  H  H2407  1  0.83940000  0.37650000  0.66370000  1.0
  H  H2408  1  0.84620000  0.37100000  0.58660000  1.0
  H  H2409  1  0.76140000  0.35420000  0.64350000  1.0
  H  H2410  1  0.78010000  0.37500000  0.62220000  1.0
  H  H2411  1  0.75550000  0.29490000  0.59490000  1.0
  H  H2412  1  0.74530000  0.30620000  0.62660000  1.0
  H  H2413  1  0.79440000  0.35680000  0.57400000  1.0
  H  H2414  1  0.78340000  0.32490000  0.56410000  1.0
  H  H2415  1  0.37640000  0.83890000  0.81400000  1.0
  H  H2416  1  0.34760000  0.78560000  0.81040000  1.0
  H  H2417  1  0.27950000  0.75460000  0.71700000  1.0
  H  H2418  1  0.26510000  0.79000000  0.67060000  1.0
  H  H2419  1  0.33890000  0.77660000  0.68480000  1.0
  H  H2420  1  0.34750000  0.80960000  0.69320000  1.0
  H  H2421  1  0.33610000  0.80120000  0.73980000  1.0
  H  H2422  1  0.32910000  0.76780000  0.73170000  1.0
  H  H2423  1  0.32690000  0.88900000  0.63340000  1.0
  H  H2424  1  0.33940000  0.87650000  0.66370000  1.0
  H  H2425  1  0.34620000  0.87100000  0.58660000  1.0
  H  H2426  1  0.26140000  0.85420000  0.64350000  1.0
  H  H2427  1  0.28010000  0.87500000  0.62220000  1.0
  H  H2428  1  0.25550000  0.79490000  0.59490000  1.0
  H  H2429  1  0.24530000  0.80620000  0.62660000  1.0
  H  H2430  1  0.29440000  0.85680000  0.57400000  1.0
  H  H2431  1  0.28340000  0.82490000  0.56410000  1.0
  H  H2432  1  0.37640000  0.33890000  0.31400000  1.0
  H  H2433  1  0.34760000  0.28560000  0.31040000  1.0
  H  H2434  1  0.27950000  0.25460000  0.21700000  1.0
  H  H2435  1  0.26510000  0.29000000  0.17060000  1.0
  H  H2436  1  0.33890000  0.27660000  0.18480000  1.0
  H  H2437  1  0.34750000  0.30960000  0.19320000  1.0
  H  H2438  1  0.33610000  0.30120000  0.23980000  1.0
  H  H2439  1  0.32910000  0.26780000  0.23170000  1.0
  H  H2440  1  0.32690000  0.38900000  0.13340000  1.0
  H  H2441  1  0.33940000  0.37650000  0.16370000  1.0
  H  H2442  1  0.34620000  0.37100000  0.08660000  1.0
  H  H2443  1  0.26140000  0.35420000  0.14350000  1.0
  H  H2444  1  0.28010000  0.37500000  0.12220000  1.0
  H  H2445  1  0.25550000  0.29490000  0.09490000  1.0
  H  H2446  1  0.24530000  0.30620000  0.12660000  1.0
  H  H2447  1  0.29440000  0.35680000  0.07400000  1.0
  H  H2448  1  0.28340000  0.32490000  0.06410000  1.0
  H  H2449  1  0.62360000  0.56400000  0.58890000  1.0
  H  H2450  1  0.65240000  0.56040000  0.53560000  1.0
  H  H2451  1  0.72050000  0.46700000  0.50460000  1.0
  H  H2452  1  0.73490000  0.42060000  0.54000000  1.0
  H  H2453  1  0.66110000  0.43480000  0.52660000  1.0
  H  H2454  1  0.65250000  0.44320000  0.55960000  1.0
  H  H2455  1  0.66390000  0.48980000  0.55120000  1.0
  H  H2456  1  0.67090000  0.48170000  0.51780000  1.0
  H  H2457  1  0.67310000  0.38340000  0.63900000  1.0
  H  H2458  1  0.66060000  0.41370000  0.62650000  1.0
  H  H2459  1  0.65380000  0.33660000  0.62100000  1.0
  H  H2460  1  0.73860000  0.39350000  0.60420000  1.0
  H  H2461  1  0.71990000  0.37220000  0.62500000  1.0
  H  H2462  1  0.74450000  0.34490000  0.54490000  1.0
  H  H2463  1  0.75470000  0.37660000  0.55620000  1.0
  H  H2464  1  0.70560000  0.32400000  0.60680000  1.0
  H  H2465  1  0.71660000  0.31410000  0.57490000  1.0
  H  H2466  1  0.62360000  0.06400000  0.08890000  1.0
  H  H2467  1  0.65240000  0.06040000  0.03560000  1.0
  H  H2468  1  0.72050000  0.96700000  0.00460000  1.0
  H  H2469  1  0.73490000  0.92060000  0.04000000  1.0
  H  H2470  1  0.66110000  0.93480000  0.02660000  1.0
  H  H2471  1  0.65250000  0.94320000  0.05960000  1.0
  H  H2472  1  0.66390000  0.98980000  0.05120000  1.0
  H  H2473  1  0.67090000  0.98170000  0.01780000  1.0
  H  H2474  1  0.67310000  0.88340000  0.13900000  1.0
  H  H2475  1  0.66060000  0.91370000  0.12650000  1.0
  H  H2476  1  0.65380000  0.83660000  0.12100000  1.0
  H  H2477  1  0.73860000  0.89350000  0.10420000  1.0
  H  H2478  1  0.71990000  0.87220000  0.12500000  1.0
  H  H2479  1  0.74450000  0.84490000  0.04490000  1.0
  H  H2480  1  0.75470000  0.87660000  0.05620000  1.0
  H  H2481  1  0.70560000  0.82400000  0.10680000  1.0
  H  H2482  1  0.71660000  0.81410000  0.07490000  1.0
  H  H2483  1  0.12360000  0.56400000  0.08890000  1.0
  H  H2484  1  0.15240000  0.56040000  0.03560000  1.0
  H  H2485  1  0.22050000  0.46700000  0.00460000  1.0
  H  H2486  1  0.23490000  0.42060000  0.04000000  1.0
  H  H2487  1  0.16110000  0.43480000  0.02660000  1.0
  H  H2488  1  0.15250000  0.44320000  0.05960000  1.0
  H  H2489  1  0.16390000  0.48980000  0.05120000  1.0
  H  H2490  1  0.17090000  0.48170000  0.01780000  1.0
  H  H2491  1  0.17310000  0.38340000  0.13900000  1.0
  H  H2492  1  0.16060000  0.41370000  0.12650000  1.0
  H  H2493  1  0.15380000  0.33660000  0.12100000  1.0
  H  H2494  1  0.23860000  0.39350000  0.10420000  1.0
  H  H2495  1  0.21990000  0.37220000  0.12500000  1.0
  H  H2496  1  0.24450000  0.34490000  0.04490000  1.0
  H  H2497  1  0.25470000  0.37660000  0.05620000  1.0
  H  H2498  1  0.20560000  0.32400000  0.10680000  1.0
  H  H2499  1  0.21660000  0.31410000  0.07490000  1.0
  H  H2500  1  0.12360000  0.06400000  0.58890000  1.0
  H  H2501  1  0.15240000  0.06040000  0.53560000  1.0
  H  H2502  1  0.22050000  0.96700000  0.50460000  1.0
  H  H2503  1  0.23490000  0.92060000  0.54000000  1.0
  H  H2504  1  0.16110000  0.93480000  0.52660000  1.0
  H  H2505  1  0.15250000  0.94320000  0.55960000  1.0
  H  H2506  1  0.16390000  0.98980000  0.55120000  1.0
  H  H2507  1  0.17090000  0.98170000  0.51780000  1.0
  H  H2508  1  0.17310000  0.88340000  0.63900000  1.0
  H  H2509  1  0.16060000  0.91370000  0.62650000  1.0
  H  H2510  1  0.15380000  0.83660000  0.62100000  1.0
  H  H2511  1  0.23860000  0.89350000  0.60420000  1.0
  H  H2512  1  0.21990000  0.87220000  0.62500000  1.0
  H  H2513  1  0.24450000  0.84490000  0.54490000  1.0
  H  H2514  1  0.25470000  0.87660000  0.55620000  1.0
  H  H2515  1  0.20560000  0.82400000  0.60680000  1.0
  H  H2516  1  0.21660000  0.81410000  0.57490000  1.0
  H  H2517  1  0.62640000  0.18600000  0.08890000  1.0
  H  H2518  1  0.59760000  0.18960000  0.03560000  1.0
  H  H2519  1  0.52950000  0.28300000  0.00460000  1.0
  H  H2520  1  0.51510000  0.32940000  0.04000000  1.0
  H  H2521  1  0.58890000  0.31520000  0.02660000  1.0
  H  H2522  1  0.59750000  0.30680000  0.05960000  1.0
  H  H2523  1  0.58610000  0.26020000  0.05120000  1.0
  H  H2524  1  0.57910000  0.26830000  0.01780000  1.0
  H  H2525  1  0.57690000  0.36660000  0.13900000  1.0
  H  H2526  1  0.58940000  0.33630000  0.12650000  1.0
  H  H2527  1  0.59620000  0.41340000  0.12100000  1.0
  H  H2528  1  0.51140000  0.35650000  0.10420000  1.0
  H  H2529  1  0.53010000  0.37780000  0.12500000  1.0
  H  H2530  1  0.50550000  0.40510000  0.04490000  1.0
  H  H2531  1  0.49530000  0.37340000  0.05620000  1.0
  H  H2532  1  0.54440000  0.42600000  0.10680000  1.0
  H  H2533  1  0.53340000  0.43590000  0.07490000  1.0
  H  H2534  1  0.62640000  0.68600000  0.58890000  1.0
  H  H2535  1  0.59760000  0.68960000  0.53560000  1.0
  H  H2536  1  0.52950000  0.78300000  0.50460000  1.0
  H  H2537  1  0.51510000  0.82940000  0.54000000  1.0
  H  H2538  1  0.58890000  0.81520000  0.52660000  1.0
  H  H2539  1  0.59750000  0.80680000  0.55960000  1.0
  H  H2540  1  0.58610000  0.76020000  0.55120000  1.0
  H  H2541  1  0.57910000  0.76830000  0.51780000  1.0
  H  H2542  1  0.57690000  0.86660000  0.63900000  1.0
  H  H2543  1  0.58940000  0.83630000  0.62650000  1.0
  H  H2544  1  0.59620000  0.91340000  0.62100000  1.0
  H  H2545  1  0.51140000  0.85650000  0.60420000  1.0
  H  H2546  1  0.53010000  0.87780000  0.62500000  1.0
  H  H2547  1  0.50550000  0.90510000  0.54490000  1.0
  H  H2548  1  0.49530000  0.87340000  0.55620000  1.0
  H  H2549  1  0.54440000  0.92600000  0.60680000  1.0
  H  H2550  1  0.53340000  0.93590000  0.57490000  1.0
  H  H2551  1  0.12640000  0.18600000  0.58890000  1.0
  H  H2552  1  0.09760000  0.18960000  0.53560000  1.0
  H  H2553  1  0.02950000  0.28300000  0.50460000  1.0
  H  H2554  1  0.01510000  0.32940000  0.54000000  1.0
  H  H2555  1  0.08890000  0.31520000  0.52660000  1.0
  H  H2556  1  0.09750000  0.30680000  0.55960000  1.0
  H  H2557  1  0.08610000  0.26020000  0.55120000  1.0
  H  H2558  1  0.07910000  0.26830000  0.51780000  1.0
  H  H2559  1  0.07690000  0.36660000  0.63900000  1.0
  H  H2560  1  0.08940000  0.33630000  0.62650000  1.0
  H  H2561  1  0.09620000  0.41340000  0.62100000  1.0
  H  H2562  1  0.01140000  0.35650000  0.60420000  1.0
  H  H2563  1  0.03010000  0.37780000  0.62500000  1.0
  H  H2564  1  0.00550000  0.40510000  0.54490000  1.0
  H  H2565  1  0.99530000  0.37340000  0.55620000  1.0
  H  H2566  1  0.04440000  0.42600000  0.60680000  1.0
  H  H2567  1  0.03340000  0.43590000  0.57490000  1.0
  H  H2568  1  0.12640000  0.68600000  0.08890000  1.0
  H  H2569  1  0.09760000  0.68960000  0.03560000  1.0
  H  H2570  1  0.02950000  0.78300000  0.00460000  1.0
  H  H2571  1  0.01510000  0.82940000  0.04000000  1.0
  H  H2572  1  0.08890000  0.81520000  0.02660000  1.0
  H  H2573  1  0.09750000  0.80680000  0.05960000  1.0
  H  H2574  1  0.08610000  0.76020000  0.05120000  1.0
  H  H2575  1  0.07910000  0.76830000  0.01780000  1.0
  H  H2576  1  0.07690000  0.86660000  0.13900000  1.0
  H  H2577  1  0.08940000  0.83630000  0.12650000  1.0
  H  H2578  1  0.09620000  0.91340000  0.12100000  1.0
  H  H2579  1  0.01140000  0.85650000  0.10420000  1.0
  H  H2580  1  0.03010000  0.87780000  0.12500000  1.0
  H  H2581  1  0.00550000  0.90510000  0.04490000  1.0
  H  H2582  1  0.99530000  0.87340000  0.05620000  1.0
  H  H2583  1  0.04440000  0.92600000  0.10680000  1.0
  H  H2584  1  0.03340000  0.93590000  0.07490000  1.0
  H  H2585  1  0.12360000  0.68600000  0.16110000  1.0
  H  H2586  1  0.15240000  0.68960000  0.21440000  1.0
  H  H2587  1  0.22050000  0.78300000  0.24540000  1.0
  H  H2588  1  0.23490000  0.82940000  0.21000000  1.0
  H  H2589  1  0.16110000  0.81520000  0.22340000  1.0
  H  H2590  1  0.15250000  0.80680000  0.19040000  1.0
  H  H2591  1  0.16390000  0.76020000  0.19880000  1.0
  H  H2592  1  0.17090000  0.76830000  0.23220000  1.0
  H  H2593  1  0.17310000  0.86660000  0.11100000  1.0
  H  H2594  1  0.16060000  0.83630000  0.12350000  1.0
  H  H2595  1  0.15380000  0.91340000  0.12900000  1.0
  H  H2596  1  0.23860000  0.85650000  0.14580000  1.0
  H  H2597  1  0.21990000  0.87780000  0.12500000  1.0
  H  H2598  1  0.24450000  0.90510000  0.20510000  1.0
  H  H2599  1  0.25470000  0.87340000  0.19380000  1.0
  H  H2600  1  0.20560000  0.92600000  0.14320000  1.0
  H  H2601  1  0.21660000  0.93590000  0.17510000  1.0
  H  H2602  1  0.12360000  0.18600000  0.66110000  1.0
  H  H2603  1  0.15240000  0.18960000  0.71440000  1.0
  H  H2604  1  0.22050000  0.28300000  0.74540000  1.0
  H  H2605  1  0.23490000  0.32940000  0.71000000  1.0
  H  H2606  1  0.16110000  0.31520000  0.72340000  1.0
  H  H2607  1  0.15250000  0.30680000  0.69040000  1.0
  H  H2608  1  0.16390000  0.26020000  0.69880000  1.0
  H  H2609  1  0.17090000  0.26830000  0.73220000  1.0
  H  H2610  1  0.17310000  0.36660000  0.61100000  1.0
  H  H2611  1  0.16060000  0.33630000  0.62350000  1.0
  H  H2612  1  0.15380000  0.41340000  0.62900000  1.0
  H  H2613  1  0.23860000  0.35650000  0.64580000  1.0
  H  H2614  1  0.21990000  0.37780000  0.62500000  1.0
  H  H2615  1  0.24450000  0.40510000  0.70510000  1.0
  H  H2616  1  0.25470000  0.37340000  0.69380000  1.0
  H  H2617  1  0.20560000  0.42600000  0.64320000  1.0
  H  H2618  1  0.21660000  0.43590000  0.67510000  1.0
  H  H2619  1  0.62360000  0.68600000  0.66110000  1.0
  H  H2620  1  0.65240000  0.68960000  0.71440000  1.0
  H  H2621  1  0.72050000  0.78300000  0.74540000  1.0
  H  H2622  1  0.73490000  0.82940000  0.71000000  1.0
  H  H2623  1  0.66110000  0.81520000  0.72340000  1.0
  H  H2624  1  0.65250000  0.80680000  0.69040000  1.0
  H  H2625  1  0.66390000  0.76020000  0.69880000  1.0
  H  H2626  1  0.67090000  0.76830000  0.73220000  1.0
  H  H2627  1  0.67310000  0.86660000  0.61100000  1.0
  H  H2628  1  0.66060000  0.83630000  0.62350000  1.0
  H  H2629  1  0.65380000  0.91340000  0.62900000  1.0
  H  H2630  1  0.73860000  0.85650000  0.64580000  1.0
  H  H2631  1  0.71990000  0.87780000  0.62500000  1.0
  H  H2632  1  0.74450000  0.90510000  0.70510000  1.0
  H  H2633  1  0.75470000  0.87340000  0.69380000  1.0
  H  H2634  1  0.70560000  0.92600000  0.64320000  1.0
  H  H2635  1  0.71660000  0.93590000  0.67510000  1.0
  H  H2636  1  0.62360000  0.18600000  0.16110000  1.0
  H  H2637  1  0.65240000  0.18960000  0.21440000  1.0
  H  H2638  1  0.72050000  0.28300000  0.24540000  1.0
  H  H2639  1  0.73490000  0.32940000  0.21000000  1.0
  H  H2640  1  0.66110000  0.31520000  0.22340000  1.0
  H  H2641  1  0.65250000  0.30680000  0.19040000  1.0
  H  H2642  1  0.66390000  0.26020000  0.19880000  1.0
  H  H2643  1  0.67090000  0.26830000  0.23220000  1.0
  H  H2644  1  0.67310000  0.36660000  0.11100000  1.0
  H  H2645  1  0.66060000  0.33630000  0.12350000  1.0
  H  H2646  1  0.65380000  0.41340000  0.12900000  1.0
  H  H2647  1  0.73860000  0.35650000  0.14580000  1.0
  H  H2648  1  0.71990000  0.37780000  0.12500000  1.0
  H  H2649  1  0.74450000  0.40510000  0.20510000  1.0
  H  H2650  1  0.75470000  0.37340000  0.19380000  1.0
  H  H2651  1  0.70560000  0.42600000  0.14320000  1.0
  H  H2652  1  0.71660000  0.43590000  0.17510000  1.0
  H  H2653  1  0.12640000  0.06400000  0.66110000  1.0
  H  H2654  1  0.09760000  0.06040000  0.71440000  1.0
  H  H2655  1  0.02950000  0.96700000  0.74540000  1.0
  H  H2656  1  0.01510000  0.92060000  0.71000000  1.0
  H  H2657  1  0.08890000  0.93480000  0.72340000  1.0
  H  H2658  1  0.09750000  0.94320000  0.69040000  1.0
  H  H2659  1  0.08610000  0.98980000  0.69880000  1.0
  H  H2660  1  0.07910000  0.98170000  0.73220000  1.0
  H  H2661  1  0.07690000  0.88340000  0.61100000  1.0
  H  H2662  1  0.08940000  0.91370000  0.62350000  1.0
  H  H2663  1  0.09620000  0.83660000  0.62900000  1.0
  H  H2664  1  0.01140000  0.89350000  0.64580000  1.0
  H  H2665  1  0.03010000  0.87220000  0.62500000  1.0
  H  H2666  1  0.00550000  0.84490000  0.70510000  1.0
  H  H2667  1  0.99530000  0.87660000  0.69380000  1.0
  H  H2668  1  0.04440000  0.82400000  0.64320000  1.0
  H  H2669  1  0.03340000  0.81410000  0.67510000  1.0
  H  H2670  1  0.12640000  0.56400000  0.16110000  1.0
  H  H2671  1  0.09760000  0.56040000  0.21440000  1.0
  H  H2672  1  0.02950000  0.46700000  0.24540000  1.0
  H  H2673  1  0.01510000  0.42060000  0.21000000  1.0
  H  H2674  1  0.08890000  0.43480000  0.22340000  1.0
  H  H2675  1  0.09750000  0.44320000  0.19040000  1.0
  H  H2676  1  0.08610000  0.48980000  0.19880000  1.0
  H  H2677  1  0.07910000  0.48170000  0.23220000  1.0
  H  H2678  1  0.07690000  0.38340000  0.11100000  1.0
  H  H2679  1  0.08940000  0.41370000  0.12350000  1.0
  H  H2680  1  0.09620000  0.33660000  0.12900000  1.0
  H  H2681  1  0.01140000  0.39350000  0.14580000  1.0
  H  H2682  1  0.03010000  0.37220000  0.12500000  1.0
  H  H2683  1  0.00550000  0.34490000  0.20510000  1.0
  H  H2684  1  0.99530000  0.37660000  0.19380000  1.0
  H  H2685  1  0.04440000  0.32400000  0.14320000  1.0
  H  H2686  1  0.03340000  0.31410000  0.17510000  1.0
  H  H2687  1  0.62640000  0.06400000  0.16110000  1.0
  H  H2688  1  0.59760000  0.06040000  0.21440000  1.0
  H  H2689  1  0.52950000  0.96700000  0.24540000  1.0
  H  H2690  1  0.51510000  0.92060000  0.21000000  1.0
  H  H2691  1  0.58890000  0.93480000  0.22340000  1.0
  H  H2692  1  0.59750000  0.94320000  0.19040000  1.0
  H  H2693  1  0.58610000  0.98980000  0.19880000  1.0
  H  H2694  1  0.57910000  0.98170000  0.23220000  1.0
  H  H2695  1  0.57690000  0.88340000  0.11100000  1.0
  H  H2696  1  0.58940000  0.91370000  0.12350000  1.0
  H  H2697  1  0.59620000  0.83660000  0.12900000  1.0
  H  H2698  1  0.51140000  0.89350000  0.14580000  1.0
  H  H2699  1  0.53010000  0.87220000  0.12500000  1.0
  H  H2700  1  0.50550000  0.84490000  0.20510000  1.0
  H  H2701  1  0.49530000  0.87660000  0.19380000  1.0
  H  H2702  1  0.54440000  0.82400000  0.14320000  1.0
  H  H2703  1  0.53340000  0.81410000  0.17510000  1.0
  H  H2704  1  0.62640000  0.56400000  0.66110000  1.0
  H  H2705  1  0.59760000  0.56040000  0.71440000  1.0
  H  H2706  1  0.52950000  0.46700000  0.74540000  1.0
  H  H2707  1  0.51510000  0.42060000  0.71000000  1.0
  H  H2708  1  0.58890000  0.43480000  0.72340000  1.0
  H  H2709  1  0.59750000  0.44320000  0.69040000  1.0
  H  H2710  1  0.58610000  0.48980000  0.69880000  1.0
  H  H2711  1  0.57910000  0.48170000  0.73220000  1.0
  H  H2712  1  0.57690000  0.38340000  0.61100000  1.0
  H  H2713  1  0.58940000  0.41370000  0.62350000  1.0
  H  H2714  1  0.59620000  0.33660000  0.62900000  1.0
  H  H2715  1  0.51140000  0.39350000  0.64580000  1.0
  H  H2716  1  0.53010000  0.37220000  0.62500000  1.0
  H  H2717  1  0.50550000  0.34490000  0.70510000  1.0
  H  H2718  1  0.49530000  0.37660000  0.69380000  1.0
  H  H2719  1  0.54440000  0.32400000  0.64320000  1.0
  H  H2720  1  0.53340000  0.31410000  0.67510000  1.0
  H  H2721  1  0.06400000  0.66110000  0.12640000  1.0
  H  H2722  1  0.06040000  0.71440000  0.09760000  1.0
  H  H2723  1  0.96700000  0.74540000  0.02950000  1.0
  H  H2724  1  0.92060000  0.71000000  0.01510000  1.0
  H  H2725  1  0.93480000  0.72340000  0.08890000  1.0
  H  H2726  1  0.94320000  0.69040000  0.09750000  1.0
  H  H2727  1  0.98980000  0.69880000  0.08610000  1.0
  H  H2728  1  0.98170000  0.73220000  0.07910000  1.0
  H  H2729  1  0.88340000  0.61100000  0.07690000  1.0
  H  H2730  1  0.91370000  0.62350000  0.08940000  1.0
  H  H2731  1  0.83660000  0.62900000  0.09620000  1.0
  H  H2732  1  0.89350000  0.64580000  0.01140000  1.0
  H  H2733  1  0.87220000  0.62500000  0.03010000  1.0
  H  H2734  1  0.84490000  0.70510000  0.00550000  1.0
  H  H2735  1  0.87660000  0.69380000  0.99530000  1.0
  H  H2736  1  0.82400000  0.64320000  0.04440000  1.0
  H  H2737  1  0.81410000  0.67510000  0.03340000  1.0
  H  H2738  1  0.06400000  0.16110000  0.62640000  1.0
  H  H2739  1  0.06040000  0.21440000  0.59760000  1.0
  H  H2740  1  0.96700000  0.24540000  0.52950000  1.0
  H  H2741  1  0.92060000  0.21000000  0.51510000  1.0
  H  H2742  1  0.93480000  0.22340000  0.58890000  1.0
  H  H2743  1  0.94320000  0.19040000  0.59750000  1.0
  H  H2744  1  0.98980000  0.19880000  0.58610000  1.0
  H  H2745  1  0.98170000  0.23220000  0.57910000  1.0
  H  H2746  1  0.88340000  0.11100000  0.57690000  1.0
  H  H2747  1  0.91370000  0.12350000  0.58940000  1.0
  H  H2748  1  0.83660000  0.12900000  0.59620000  1.0
  H  H2749  1  0.89350000  0.14580000  0.51140000  1.0
  H  H2750  1  0.87220000  0.12500000  0.53010000  1.0
  H  H2751  1  0.84490000  0.20510000  0.50550000  1.0
  H  H2752  1  0.87660000  0.19380000  0.49530000  1.0
  H  H2753  1  0.82400000  0.14320000  0.54440000  1.0
  H  H2754  1  0.81410000  0.17510000  0.53340000  1.0
  H  H2755  1  0.56400000  0.66110000  0.62640000  1.0
  H  H2756  1  0.56040000  0.71440000  0.59760000  1.0
  H  H2757  1  0.46700000  0.74540000  0.52950000  1.0
  H  H2758  1  0.42060000  0.71000000  0.51510000  1.0
  H  H2759  1  0.43480000  0.72340000  0.58890000  1.0
  H  H2760  1  0.44320000  0.69040000  0.59750000  1.0
  H  H2761  1  0.48980000  0.69880000  0.58610000  1.0
  H  H2762  1  0.48170000  0.73220000  0.57910000  1.0
  H  H2763  1  0.38340000  0.61100000  0.57690000  1.0
  H  H2764  1  0.41370000  0.62350000  0.58940000  1.0
  H  H2765  1  0.33660000  0.62900000  0.59620000  1.0
  H  H2766  1  0.39350000  0.64580000  0.51140000  1.0
  H  H2767  1  0.37220000  0.62500000  0.53010000  1.0
  H  H2768  1  0.34490000  0.70510000  0.50550000  1.0
  H  H2769  1  0.37660000  0.69380000  0.49530000  1.0
  H  H2770  1  0.32400000  0.64320000  0.54440000  1.0
  H  H2771  1  0.31410000  0.67510000  0.53340000  1.0
  H  H2772  1  0.56400000  0.16110000  0.12640000  1.0
  H  H2773  1  0.56040000  0.21440000  0.09760000  1.0
  H  H2774  1  0.46700000  0.24540000  0.02950000  1.0
  H  H2775  1  0.42060000  0.21000000  0.01510000  1.0
  H  H2776  1  0.43480000  0.22340000  0.08890000  1.0
  H  H2777  1  0.44320000  0.19040000  0.09750000  1.0
  H  H2778  1  0.48980000  0.19880000  0.08610000  1.0
  H  H2779  1  0.48170000  0.23220000  0.07910000  1.0
  H  H2780  1  0.38340000  0.11100000  0.07690000  1.0
  H  H2781  1  0.41370000  0.12350000  0.08940000  1.0
  H  H2782  1  0.33660000  0.12900000  0.09620000  1.0
  H  H2783  1  0.39350000  0.14580000  0.01140000  1.0
  H  H2784  1  0.37220000  0.12500000  0.03010000  1.0
  H  H2785  1  0.34490000  0.20510000  0.00550000  1.0
  H  H2786  1  0.37660000  0.19380000  0.99530000  1.0
  H  H2787  1  0.32400000  0.14320000  0.04440000  1.0
  H  H2788  1  0.31410000  0.17510000  0.03340000  1.0
  H  H2789  1  0.68600000  0.16110000  0.12360000  1.0
  H  H2790  1  0.68960000  0.21440000  0.15240000  1.0
  H  H2791  1  0.78300000  0.24540000  0.22050000  1.0
  H  H2792  1  0.82940000  0.21000000  0.23490000  1.0
  H  H2793  1  0.81520000  0.22340000  0.16110000  1.0
  H  H2794  1  0.80680000  0.19040000  0.15250000  1.0
  H  H2795  1  0.76020000  0.19880000  0.16390000  1.0
  H  H2796  1  0.76830000  0.23220000  0.17090000  1.0
  H  H2797  1  0.86660000  0.11100000  0.17310000  1.0
  H  H2798  1  0.83630000  0.12350000  0.16060000  1.0
  H  H2799  1  0.91340000  0.12900000  0.15380000  1.0
  H  H2800  1  0.85650000  0.14580000  0.23860000  1.0
  H  H2801  1  0.87780000  0.12500000  0.21990000  1.0
  H  H2802  1  0.90510000  0.20510000  0.24450000  1.0
  H  H2803  1  0.87340000  0.19380000  0.25470000  1.0
  H  H2804  1  0.92600000  0.14320000  0.20560000  1.0
  H  H2805  1  0.93590000  0.17510000  0.21660000  1.0
  H  H2806  1  0.68600000  0.66110000  0.62360000  1.0
  H  H2807  1  0.68960000  0.71440000  0.65240000  1.0
  H  H2808  1  0.78300000  0.74540000  0.72050000  1.0
  H  H2809  1  0.82940000  0.71000000  0.73490000  1.0
  H  H2810  1  0.81520000  0.72340000  0.66110000  1.0
  H  H2811  1  0.80680000  0.69040000  0.65250000  1.0
  H  H2812  1  0.76020000  0.69880000  0.66390000  1.0
  H  H2813  1  0.76830000  0.73220000  0.67090000  1.0
  H  H2814  1  0.86660000  0.61100000  0.67310000  1.0
  H  H2815  1  0.83630000  0.62350000  0.66060000  1.0
  H  H2816  1  0.91340000  0.62900000  0.65380000  1.0
  H  H2817  1  0.85650000  0.64580000  0.73860000  1.0
  H  H2818  1  0.87780000  0.62500000  0.71990000  1.0
  H  H2819  1  0.90510000  0.70510000  0.74450000  1.0
  H  H2820  1  0.87340000  0.69380000  0.75470000  1.0
  H  H2821  1  0.92600000  0.64320000  0.70560000  1.0
  H  H2822  1  0.93590000  0.67510000  0.71660000  1.0
  H  H2823  1  0.18600000  0.16110000  0.62360000  1.0
  H  H2824  1  0.18960000  0.21440000  0.65240000  1.0
  H  H2825  1  0.28300000  0.24540000  0.72050000  1.0
  H  H2826  1  0.32940000  0.21000000  0.73490000  1.0
  H  H2827  1  0.31520000  0.22340000  0.66110000  1.0
  H  H2828  1  0.30680000  0.19040000  0.65250000  1.0
  H  H2829  1  0.26020000  0.19880000  0.66390000  1.0
  H  H2830  1  0.26830000  0.23220000  0.67090000  1.0
  H  H2831  1  0.36660000  0.11100000  0.67310000  1.0
  H  H2832  1  0.33630000  0.12350000  0.66060000  1.0
  H  H2833  1  0.41340000  0.12900000  0.65380000  1.0
  H  H2834  1  0.35650000  0.14580000  0.73860000  1.0
  H  H2835  1  0.37780000  0.12500000  0.71990000  1.0
  H  H2836  1  0.40510000  0.20510000  0.74450000  1.0
  H  H2837  1  0.37340000  0.19380000  0.75470000  1.0
  H  H2838  1  0.42600000  0.14320000  0.70560000  1.0
  H  H2839  1  0.43590000  0.17510000  0.71660000  1.0
  H  H2840  1  0.18600000  0.66110000  0.12360000  1.0
  H  H2841  1  0.18960000  0.71440000  0.15240000  1.0
  H  H2842  1  0.28300000  0.74540000  0.22050000  1.0
  H  H2843  1  0.32940000  0.71000000  0.23490000  1.0
  H  H2844  1  0.31520000  0.72340000  0.16110000  1.0
  H  H2845  1  0.30680000  0.69040000  0.15250000  1.0
  H  H2846  1  0.26020000  0.69880000  0.16390000  1.0
  H  H2847  1  0.26830000  0.73220000  0.17090000  1.0
  H  H2848  1  0.36660000  0.61100000  0.17310000  1.0
  H  H2849  1  0.33630000  0.62350000  0.16060000  1.0
  H  H2850  1  0.41340000  0.62900000  0.15380000  1.0
  H  H2851  1  0.35650000  0.64580000  0.23860000  1.0
  H  H2852  1  0.37780000  0.62500000  0.21990000  1.0
  H  H2853  1  0.40510000  0.70510000  0.24450000  1.0
  H  H2854  1  0.37340000  0.69380000  0.25470000  1.0
  H  H2855  1  0.42600000  0.64320000  0.20560000  1.0
  H  H2856  1  0.43590000  0.67510000  0.21660000  1.0
  H  H2857  1  0.18600000  0.08890000  0.62640000  1.0
  H  H2858  1  0.18960000  0.03560000  0.59760000  1.0
  H  H2859  1  0.28300000  0.00460000  0.52950000  1.0
  H  H2860  1  0.32940000  0.04000000  0.51510000  1.0
  H  H2861  1  0.31520000  0.02660000  0.58890000  1.0
  H  H2862  1  0.30680000  0.05960000  0.59750000  1.0
  H  H2863  1  0.26020000  0.05120000  0.58610000  1.0
  H  H2864  1  0.26830000  0.01780000  0.57910000  1.0
  H  H2865  1  0.36660000  0.13900000  0.57690000  1.0
  H  H2866  1  0.33630000  0.12650000  0.58940000  1.0
  H  H2867  1  0.41340000  0.12100000  0.59620000  1.0
  H  H2868  1  0.35650000  0.10420000  0.51140000  1.0
  H  H2869  1  0.37780000  0.12500000  0.53010000  1.0
  H  H2870  1  0.40510000  0.04490000  0.50550000  1.0
  H  H2871  1  0.37340000  0.05620000  0.49530000  1.0
  H  H2872  1  0.42600000  0.10680000  0.54440000  1.0
  H  H2873  1  0.43590000  0.07490000  0.53340000  1.0
  H  H2874  1  0.18600000  0.58890000  0.12640000  1.0
  H  H2875  1  0.18960000  0.53560000  0.09760000  1.0
  H  H2876  1  0.28300000  0.50460000  0.02950000  1.0
  H  H2877  1  0.32940000  0.54000000  0.01510000  1.0
  H  H2878  1  0.31520000  0.52660000  0.08890000  1.0
  H  H2879  1  0.30680000  0.55960000  0.09750000  1.0
  H  H2880  1  0.26020000  0.55120000  0.08610000  1.0
  H  H2881  1  0.26830000  0.51780000  0.07910000  1.0
  H  H2882  1  0.36660000  0.63900000  0.07690000  1.0
  H  H2883  1  0.33630000  0.62650000  0.08940000  1.0
  H  H2884  1  0.41340000  0.62100000  0.09620000  1.0
  H  H2885  1  0.35650000  0.60420000  0.01140000  1.0
  H  H2886  1  0.37780000  0.62500000  0.03010000  1.0
  H  H2887  1  0.40510000  0.54490000  0.00550000  1.0
  H  H2888  1  0.37340000  0.55620000  0.99530000  1.0
  H  H2889  1  0.42600000  0.60680000  0.04440000  1.0
  H  H2890  1  0.43590000  0.57490000  0.03340000  1.0
  H  H2891  1  0.68600000  0.08890000  0.12640000  1.0
  H  H2892  1  0.68960000  0.03560000  0.09760000  1.0
  H  H2893  1  0.78300000  0.00460000  0.02950000  1.0
  H  H2894  1  0.82940000  0.04000000  0.01510000  1.0
  H  H2895  1  0.81520000  0.02660000  0.08890000  1.0
  H  H2896  1  0.80680000  0.05960000  0.09750000  1.0
  H  H2897  1  0.76020000  0.05120000  0.08610000  1.0
  H  H2898  1  0.76830000  0.01780000  0.07910000  1.0
  H  H2899  1  0.86660000  0.13900000  0.07690000  1.0
  H  H2900  1  0.83630000  0.12650000  0.08940000  1.0
  H  H2901  1  0.91340000  0.12100000  0.09620000  1.0
  H  H2902  1  0.85650000  0.10420000  0.01140000  1.0
  H  H2903  1  0.87780000  0.12500000  0.03010000  1.0
  H  H2904  1  0.90510000  0.04490000  0.00550000  1.0
  H  H2905  1  0.87340000  0.05620000  0.99530000  1.0
  H  H2906  1  0.92600000  0.10680000  0.04440000  1.0
  H  H2907  1  0.93590000  0.07490000  0.03340000  1.0
  H  H2908  1  0.68600000  0.58890000  0.62640000  1.0
  H  H2909  1  0.68960000  0.53560000  0.59760000  1.0
  H  H2910  1  0.78300000  0.50460000  0.52950000  1.0
  H  H2911  1  0.82940000  0.54000000  0.51510000  1.0
  H  H2912  1  0.81520000  0.52660000  0.58890000  1.0
  H  H2913  1  0.80680000  0.55960000  0.59750000  1.0
  H  H2914  1  0.76020000  0.55120000  0.58610000  1.0
  H  H2915  1  0.76830000  0.51780000  0.57910000  1.0
  H  H2916  1  0.86660000  0.63900000  0.57690000  1.0
  H  H2917  1  0.83630000  0.62650000  0.58940000  1.0
  H  H2918  1  0.91340000  0.62100000  0.59620000  1.0
  H  H2919  1  0.85650000  0.60420000  0.51140000  1.0
  H  H2920  1  0.87780000  0.62500000  0.53010000  1.0
  H  H2921  1  0.90510000  0.54490000  0.50550000  1.0
  H  H2922  1  0.87340000  0.55620000  0.49530000  1.0
  H  H2923  1  0.92600000  0.60680000  0.54440000  1.0
  H  H2924  1  0.93590000  0.57490000  0.53340000  1.0
  H  H2925  1  0.56400000  0.58890000  0.62360000  1.0
  H  H2926  1  0.56040000  0.53560000  0.65240000  1.0
  H  H2927  1  0.46700000  0.50460000  0.72050000  1.0
  H  H2928  1  0.42060000  0.54000000  0.73490000  1.0
  H  H2929  1  0.43480000  0.52660000  0.66110000  1.0
  H  H2930  1  0.44320000  0.55960000  0.65250000  1.0
  H  H2931  1  0.48980000  0.55120000  0.66390000  1.0
  H  H2932  1  0.48170000  0.51780000  0.67090000  1.0
  H  H2933  1  0.38340000  0.63900000  0.67310000  1.0
  H  H2934  1  0.41370000  0.62650000  0.66060000  1.0
  H  H2935  1  0.33660000  0.62100000  0.65380000  1.0
  H  H2936  1  0.39350000  0.60420000  0.73860000  1.0
  H  H2937  1  0.37220000  0.62500000  0.71990000  1.0
  H  H2938  1  0.34490000  0.54490000  0.74450000  1.0
  H  H2939  1  0.37660000  0.55620000  0.75470000  1.0
  H  H2940  1  0.32400000  0.60680000  0.70560000  1.0
  H  H2941  1  0.31410000  0.57490000  0.71660000  1.0
  H  H2942  1  0.56400000  0.08890000  0.12360000  1.0
  H  H2943  1  0.56040000  0.03560000  0.15240000  1.0
  H  H2944  1  0.46700000  0.00460000  0.22050000  1.0
  H  H2945  1  0.42060000  0.04000000  0.23490000  1.0
  H  H2946  1  0.43480000  0.02660000  0.16110000  1.0
  H  H2947  1  0.44320000  0.05960000  0.15250000  1.0
  H  H2948  1  0.48980000  0.05120000  0.16390000  1.0
  H  H2949  1  0.48170000  0.01780000  0.17090000  1.0
  H  H2950  1  0.38340000  0.13900000  0.17310000  1.0
  H  H2951  1  0.41370000  0.12650000  0.16060000  1.0
  H  H2952  1  0.33660000  0.12100000  0.15380000  1.0
  H  H2953  1  0.39350000  0.10420000  0.23860000  1.0
  H  H2954  1  0.37220000  0.12500000  0.21990000  1.0
  H  H2955  1  0.34490000  0.04490000  0.24450000  1.0
  H  H2956  1  0.37660000  0.05620000  0.25470000  1.0
  H  H2957  1  0.32400000  0.10680000  0.20560000  1.0
  H  H2958  1  0.31410000  0.07490000  0.21660000  1.0
  H  H2959  1  0.06400000  0.58890000  0.12360000  1.0
  H  H2960  1  0.06040000  0.53560000  0.15240000  1.0
  H  H2961  1  0.96700000  0.50460000  0.22050000  1.0
  H  H2962  1  0.92060000  0.54000000  0.23490000  1.0
  H  H2963  1  0.93480000  0.52660000  0.16110000  1.0
  H  H2964  1  0.94320000  0.55960000  0.15250000  1.0
  H  H2965  1  0.98980000  0.55120000  0.16390000  1.0
  H  H2966  1  0.98170000  0.51780000  0.17090000  1.0
  H  H2967  1  0.88340000  0.63900000  0.17310000  1.0
  H  H2968  1  0.91370000  0.62650000  0.16060000  1.0
  H  H2969  1  0.83660000  0.62100000  0.15380000  1.0
  H  H2970  1  0.89350000  0.60420000  0.23860000  1.0
  H  H2971  1  0.87220000  0.62500000  0.21990000  1.0
  H  H2972  1  0.84490000  0.54490000  0.24450000  1.0
  H  H2973  1  0.87660000  0.55620000  0.25470000  1.0
  H  H2974  1  0.82400000  0.60680000  0.20560000  1.0
  H  H2975  1  0.81410000  0.57490000  0.21660000  1.0
  H  H2976  1  0.06400000  0.08890000  0.62360000  1.0
  H  H2977  1  0.06040000  0.03560000  0.65240000  1.0
  H  H2978  1  0.96700000  0.00460000  0.72050000  1.0
  H  H2979  1  0.92060000  0.04000000  0.73490000  1.0
  H  H2980  1  0.93480000  0.02660000  0.66110000  1.0
  H  H2981  1  0.94320000  0.05960000  0.65250000  1.0
  H  H2982  1  0.98980000  0.05120000  0.66390000  1.0
  H  H2983  1  0.98170000  0.01780000  0.67090000  1.0
  H  H2984  1  0.88340000  0.13900000  0.67310000  1.0
  H  H2985  1  0.91370000  0.12650000  0.66060000  1.0
  H  H2986  1  0.83660000  0.12100000  0.65380000  1.0
  H  H2987  1  0.89350000  0.10420000  0.73860000  1.0
  H  H2988  1  0.87220000  0.12500000  0.71990000  1.0
  H  H2989  1  0.84490000  0.04490000  0.74450000  1.0
  H  H2990  1  0.87660000  0.05620000  0.75470000  1.0
  H  H2991  1  0.82400000  0.10680000  0.70560000  1.0
  H  H2992  1  0.81410000  0.07490000  0.71660000  1.0
  H  H2993  1  0.16110000  0.12360000  0.68600000  1.0
  H  H2994  1  0.21440000  0.15240000  0.68960000  1.0
  H  H2995  1  0.24540000  0.22050000  0.78300000  1.0
  H  H2996  1  0.21000000  0.23490000  0.82940000  1.0
  H  H2997  1  0.22340000  0.16110000  0.81520000  1.0
  H  H2998  1  0.19040000  0.15250000  0.80680000  1.0
  H  H2999  1  0.19880000  0.16390000  0.76020000  1.0
  H  H3000  1  0.23220000  0.17090000  0.76830000  1.0
  H  H3001  1  0.11100000  0.17310000  0.86660000  1.0
  H  H3002  1  0.12350000  0.16060000  0.83630000  1.0
  H  H3003  1  0.12900000  0.15380000  0.91340000  1.0
  H  H3004  1  0.14580000  0.23860000  0.85650000  1.0
  H  H3005  1  0.12500000  0.21990000  0.87780000  1.0
  H  H3006  1  0.20510000  0.24450000  0.90510000  1.0
  H  H3007  1  0.19380000  0.25470000  0.87340000  1.0
  H  H3008  1  0.14320000  0.20560000  0.92600000  1.0
  H  H3009  1  0.17510000  0.21660000  0.93590000  1.0
  H  H3010  1  0.16110000  0.62360000  0.18600000  1.0
  H  H3011  1  0.21440000  0.65240000  0.18960000  1.0
  H  H3012  1  0.24540000  0.72050000  0.28300000  1.0
  H  H3013  1  0.21000000  0.73490000  0.32940000  1.0
  H  H3014  1  0.22340000  0.66110000  0.31520000  1.0
  H  H3015  1  0.19040000  0.65250000  0.30680000  1.0
  H  H3016  1  0.19880000  0.66390000  0.26020000  1.0
  H  H3017  1  0.23220000  0.67090000  0.26830000  1.0
  H  H3018  1  0.11100000  0.67310000  0.36660000  1.0
  H  H3019  1  0.12350000  0.66060000  0.33630000  1.0
  H  H3020  1  0.12900000  0.65380000  0.41340000  1.0
  H  H3021  1  0.14580000  0.73860000  0.35650000  1.0
  H  H3022  1  0.12500000  0.71990000  0.37780000  1.0
  H  H3023  1  0.20510000  0.74450000  0.40510000  1.0
  H  H3024  1  0.19380000  0.75470000  0.37340000  1.0
  H  H3025  1  0.14320000  0.70560000  0.42600000  1.0
  H  H3026  1  0.17510000  0.71660000  0.43590000  1.0
  H  H3027  1  0.66110000  0.12360000  0.18600000  1.0
  H  H3028  1  0.71440000  0.15240000  0.18960000  1.0
  H  H3029  1  0.74540000  0.22050000  0.28300000  1.0
  H  H3030  1  0.71000000  0.23490000  0.32940000  1.0
  H  H3031  1  0.72340000  0.16110000  0.31520000  1.0
  H  H3032  1  0.69040000  0.15250000  0.30680000  1.0
  H  H3033  1  0.69880000  0.16390000  0.26020000  1.0
  H  H3034  1  0.73220000  0.17090000  0.26830000  1.0
  H  H3035  1  0.61100000  0.17310000  0.36660000  1.0
  H  H3036  1  0.62350000  0.16060000  0.33630000  1.0
  H  H3037  1  0.62900000  0.15380000  0.41340000  1.0
  H  H3038  1  0.64580000  0.23860000  0.35650000  1.0
  H  H3039  1  0.62500000  0.21990000  0.37780000  1.0
  H  H3040  1  0.70510000  0.24450000  0.40510000  1.0
  H  H3041  1  0.69380000  0.25470000  0.37340000  1.0
  H  H3042  1  0.64320000  0.20560000  0.42600000  1.0
  H  H3043  1  0.67510000  0.21660000  0.43590000  1.0
  H  H3044  1  0.66110000  0.62360000  0.68600000  1.0
  H  H3045  1  0.71440000  0.65240000  0.68960000  1.0
  H  H3046  1  0.74540000  0.72050000  0.78300000  1.0
  H  H3047  1  0.71000000  0.73490000  0.82940000  1.0
  H  H3048  1  0.72340000  0.66110000  0.81520000  1.0
  H  H3049  1  0.69040000  0.65250000  0.80680000  1.0
  H  H3050  1  0.69880000  0.66390000  0.76020000  1.0
  H  H3051  1  0.73220000  0.67090000  0.76830000  1.0
  H  H3052  1  0.61100000  0.67310000  0.86660000  1.0
  H  H3053  1  0.62350000  0.66060000  0.83630000  1.0
  H  H3054  1  0.62900000  0.65380000  0.91340000  1.0
  H  H3055  1  0.64580000  0.73860000  0.85650000  1.0
  H  H3056  1  0.62500000  0.71990000  0.87780000  1.0
  H  H3057  1  0.70510000  0.74450000  0.90510000  1.0
  H  H3058  1  0.69380000  0.75470000  0.87340000  1.0
  H  H3059  1  0.64320000  0.70560000  0.92600000  1.0
  H  H3060  1  0.67510000  0.71660000  0.93590000  1.0
  H  H3061  1  0.66110000  0.12640000  0.06400000  1.0
  H  H3062  1  0.71440000  0.09760000  0.06040000  1.0
  H  H3063  1  0.74540000  0.02950000  0.96700000  1.0
  H  H3064  1  0.71000000  0.01510000  0.92060000  1.0
  H  H3065  1  0.72340000  0.08890000  0.93480000  1.0
  H  H3066  1  0.69040000  0.09750000  0.94320000  1.0
  H  H3067  1  0.69880000  0.08610000  0.98980000  1.0
  H  H3068  1  0.73220000  0.07910000  0.98170000  1.0
  H  H3069  1  0.61100000  0.07690000  0.88340000  1.0
  H  H3070  1  0.62350000  0.08940000  0.91370000  1.0
  H  H3071  1  0.62900000  0.09620000  0.83660000  1.0
  H  H3072  1  0.64580000  0.01140000  0.89350000  1.0
  H  H3073  1  0.62500000  0.03010000  0.87220000  1.0
  H  H3074  1  0.70510000  0.00550000  0.84490000  1.0
  H  H3075  1  0.69380000  0.99530000  0.87660000  1.0
  H  H3076  1  0.64320000  0.04440000  0.82400000  1.0
  H  H3077  1  0.67510000  0.03340000  0.81410000  1.0
  H  H3078  1  0.66110000  0.62640000  0.56400000  1.0
  H  H3079  1  0.71440000  0.59760000  0.56040000  1.0
  H  H3080  1  0.74540000  0.52950000  0.46700000  1.0
  H  H3081  1  0.71000000  0.51510000  0.42060000  1.0
  H  H3082  1  0.72340000  0.58890000  0.43480000  1.0
  H  H3083  1  0.69040000  0.59750000  0.44320000  1.0
  H  H3084  1  0.69880000  0.58610000  0.48980000  1.0
  H  H3085  1  0.73220000  0.57910000  0.48170000  1.0
  H  H3086  1  0.61100000  0.57690000  0.38340000  1.0
  H  H3087  1  0.62350000  0.58940000  0.41370000  1.0
  H  H3088  1  0.62900000  0.59620000  0.33660000  1.0
  H  H3089  1  0.64580000  0.51140000  0.39350000  1.0
  H  H3090  1  0.62500000  0.53010000  0.37220000  1.0
  H  H3091  1  0.70510000  0.50550000  0.34490000  1.0
  H  H3092  1  0.69380000  0.49530000  0.37660000  1.0
  H  H3093  1  0.64320000  0.54440000  0.32400000  1.0
  H  H3094  1  0.67510000  0.53340000  0.31410000  1.0
  H  H3095  1  0.16110000  0.12640000  0.56400000  1.0
  H  H3096  1  0.21440000  0.09760000  0.56040000  1.0
  H  H3097  1  0.24540000  0.02950000  0.46700000  1.0
  H  H3098  1  0.21000000  0.01510000  0.42060000  1.0
  H  H3099  1  0.22340000  0.08890000  0.43480000  1.0
  H  H3100  1  0.19040000  0.09750000  0.44320000  1.0
  H  H3101  1  0.19880000  0.08610000  0.48980000  1.0
  H  H3102  1  0.23220000  0.07910000  0.48170000  1.0
  H  H3103  1  0.11100000  0.07690000  0.38340000  1.0
  H  H3104  1  0.12350000  0.08940000  0.41370000  1.0
  H  H3105  1  0.12900000  0.09620000  0.33660000  1.0
  H  H3106  1  0.14580000  0.01140000  0.39350000  1.0
  H  H3107  1  0.12500000  0.03010000  0.37220000  1.0
  H  H3108  1  0.20510000  0.00550000  0.34490000  1.0
  H  H3109  1  0.19380000  0.99530000  0.37660000  1.0
  H  H3110  1  0.14320000  0.04440000  0.32400000  1.0
  H  H3111  1  0.17510000  0.03340000  0.31410000  1.0
  H  H3112  1  0.16110000  0.62640000  0.06400000  1.0
  H  H3113  1  0.21440000  0.59760000  0.06040000  1.0
  H  H3114  1  0.24540000  0.52950000  0.96700000  1.0
  H  H3115  1  0.21000000  0.51510000  0.92060000  1.0
  H  H3116  1  0.22340000  0.58890000  0.93480000  1.0
  H  H3117  1  0.19040000  0.59750000  0.94320000  1.0
  H  H3118  1  0.19880000  0.58610000  0.98980000  1.0
  H  H3119  1  0.23220000  0.57910000  0.98170000  1.0
  H  H3120  1  0.11100000  0.57690000  0.88340000  1.0
  H  H3121  1  0.12350000  0.58940000  0.91370000  1.0
  H  H3122  1  0.12900000  0.59620000  0.83660000  1.0
  H  H3123  1  0.14580000  0.51140000  0.89350000  1.0
  H  H3124  1  0.12500000  0.53010000  0.87220000  1.0
  H  H3125  1  0.20510000  0.50550000  0.84490000  1.0
  H  H3126  1  0.19380000  0.49530000  0.87660000  1.0
  H  H3127  1  0.14320000  0.54440000  0.82400000  1.0
  H  H3128  1  0.17510000  0.53340000  0.81410000  1.0
  H  H3129  1  0.58890000  0.62360000  0.56400000  1.0
  H  H3130  1  0.53560000  0.65240000  0.56040000  1.0
  H  H3131  1  0.50460000  0.72050000  0.46700000  1.0
  H  H3132  1  0.54000000  0.73490000  0.42060000  1.0
  H  H3133  1  0.52660000  0.66110000  0.43480000  1.0
  H  H3134  1  0.55960000  0.65250000  0.44320000  1.0
  H  H3135  1  0.55120000  0.66390000  0.48980000  1.0
  H  H3136  1  0.51780000  0.67090000  0.48170000  1.0
  H  H3137  1  0.63900000  0.67310000  0.38340000  1.0
  H  H3138  1  0.62650000  0.66060000  0.41370000  1.0
  H  H3139  1  0.62100000  0.65380000  0.33660000  1.0
  H  H3140  1  0.60420000  0.73860000  0.39350000  1.0
  H  H3141  1  0.62500000  0.71990000  0.37220000  1.0
  H  H3142  1  0.54490000  0.74450000  0.34490000  1.0
  H  H3143  1  0.55620000  0.75470000  0.37660000  1.0
  H  H3144  1  0.60680000  0.70560000  0.32400000  1.0
  H  H3145  1  0.57490000  0.71660000  0.31410000  1.0
  H  H3146  1  0.58890000  0.12360000  0.06400000  1.0
  H  H3147  1  0.53560000  0.15240000  0.06040000  1.0
  H  H3148  1  0.50460000  0.22050000  0.96700000  1.0
  H  H3149  1  0.54000000  0.23490000  0.92060000  1.0
  H  H3150  1  0.52660000  0.16110000  0.93480000  1.0
  H  H3151  1  0.55960000  0.15250000  0.94320000  1.0
  H  H3152  1  0.55120000  0.16390000  0.98980000  1.0
  H  H3153  1  0.51780000  0.17090000  0.98170000  1.0
  H  H3154  1  0.63900000  0.17310000  0.88340000  1.0
  H  H3155  1  0.62650000  0.16060000  0.91370000  1.0
  H  H3156  1  0.62100000  0.15380000  0.83660000  1.0
  H  H3157  1  0.60420000  0.23860000  0.89350000  1.0
  H  H3158  1  0.62500000  0.21990000  0.87220000  1.0
  H  H3159  1  0.54490000  0.24450000  0.84490000  1.0
  H  H3160  1  0.55620000  0.25470000  0.87660000  1.0
  H  H3161  1  0.60680000  0.20560000  0.82400000  1.0
  H  H3162  1  0.57490000  0.21660000  0.81410000  1.0
  H  H3163  1  0.08890000  0.62360000  0.06400000  1.0
  H  H3164  1  0.03560000  0.65240000  0.06040000  1.0
  H  H3165  1  0.00460000  0.72050000  0.96700000  1.0
  H  H3166  1  0.04000000  0.73490000  0.92060000  1.0
  H  H3167  1  0.02660000  0.66110000  0.93480000  1.0
  H  H3168  1  0.05960000  0.65250000  0.94320000  1.0
  H  H3169  1  0.05120000  0.66390000  0.98980000  1.0
  H  H3170  1  0.01780000  0.67090000  0.98170000  1.0
  H  H3171  1  0.13900000  0.67310000  0.88340000  1.0
  H  H3172  1  0.12650000  0.66060000  0.91370000  1.0
  H  H3173  1  0.12100000  0.65380000  0.83660000  1.0
  H  H3174  1  0.10420000  0.73860000  0.89350000  1.0
  H  H3175  1  0.12500000  0.71990000  0.87220000  1.0
  H  H3176  1  0.04490000  0.74450000  0.84490000  1.0
  H  H3177  1  0.05620000  0.75470000  0.87660000  1.0
  H  H3178  1  0.10680000  0.70560000  0.82400000  1.0
  H  H3179  1  0.07490000  0.71660000  0.81410000  1.0
  H  H3180  1  0.08890000  0.12360000  0.56400000  1.0
  H  H3181  1  0.03560000  0.15240000  0.56040000  1.0
  H  H3182  1  0.00460000  0.22050000  0.46700000  1.0
  H  H3183  1  0.04000000  0.23490000  0.42060000  1.0
  H  H3184  1  0.02660000  0.16110000  0.43480000  1.0
  H  H3185  1  0.05960000  0.15250000  0.44320000  1.0
  H  H3186  1  0.05120000  0.16390000  0.48980000  1.0
  H  H3187  1  0.01780000  0.17090000  0.48170000  1.0
  H  H3188  1  0.13900000  0.17310000  0.38340000  1.0
  H  H3189  1  0.12650000  0.16060000  0.41370000  1.0
  H  H3190  1  0.12100000  0.15380000  0.33660000  1.0
  H  H3191  1  0.10420000  0.23860000  0.39350000  1.0
  H  H3192  1  0.12500000  0.21990000  0.37220000  1.0
  H  H3193  1  0.04490000  0.24450000  0.34490000  1.0
  H  H3194  1  0.05620000  0.25470000  0.37660000  1.0
  H  H3195  1  0.10680000  0.20560000  0.32400000  1.0
  H  H3196  1  0.07490000  0.21660000  0.31410000  1.0
  H  H3197  1  0.08890000  0.62640000  0.18600000  1.0
  H  H3198  1  0.03560000  0.59760000  0.18960000  1.0
  H  H3199  1  0.00460000  0.52950000  0.28300000  1.0
  H  H3200  1  0.04000000  0.51510000  0.32940000  1.0
  H  H3201  1  0.02660000  0.58890000  0.31520000  1.0
  H  H3202  1  0.05960000  0.59750000  0.30680000  1.0
  H  H3203  1  0.05120000  0.58610000  0.26020000  1.0
  H  H3204  1  0.01780000  0.57910000  0.26830000  1.0
  H  H3205  1  0.13900000  0.57690000  0.36660000  1.0
  H  H3206  1  0.12650000  0.58940000  0.33630000  1.0
  H  H3207  1  0.12100000  0.59620000  0.41340000  1.0
  H  H3208  1  0.10420000  0.51140000  0.35650000  1.0
  H  H3209  1  0.12500000  0.53010000  0.37780000  1.0
  H  H3210  1  0.04490000  0.50550000  0.40510000  1.0
  H  H3211  1  0.05620000  0.49530000  0.37340000  1.0
  H  H3212  1  0.10680000  0.54440000  0.42600000  1.0
  H  H3213  1  0.07490000  0.53340000  0.43590000  1.0
  H  H3214  1  0.08890000  0.12640000  0.68600000  1.0
  H  H3215  1  0.03560000  0.09760000  0.68960000  1.0
  H  H3216  1  0.00460000  0.02950000  0.78300000  1.0
  H  H3217  1  0.04000000  0.01510000  0.82940000  1.0
  H  H3218  1  0.02660000  0.08890000  0.81520000  1.0
  H  H3219  1  0.05960000  0.09750000  0.80680000  1.0
  H  H3220  1  0.05120000  0.08610000  0.76020000  1.0
  H  H3221  1  0.01780000  0.07910000  0.76830000  1.0
  H  H3222  1  0.13900000  0.07690000  0.86660000  1.0
  H  H3223  1  0.12650000  0.08940000  0.83630000  1.0
  H  H3224  1  0.12100000  0.09620000  0.91340000  1.0
  H  H3225  1  0.10420000  0.01140000  0.85650000  1.0
  H  H3226  1  0.12500000  0.03010000  0.87780000  1.0
  H  H3227  1  0.04490000  0.00550000  0.90510000  1.0
  H  H3228  1  0.05620000  0.99530000  0.87340000  1.0
  H  H3229  1  0.10680000  0.04440000  0.92600000  1.0
  H  H3230  1  0.07490000  0.03340000  0.93590000  1.0
  H  H3231  1  0.58890000  0.62640000  0.68600000  1.0
  H  H3232  1  0.53560000  0.59760000  0.68960000  1.0
  H  H3233  1  0.50460000  0.52950000  0.78300000  1.0
  H  H3234  1  0.54000000  0.51510000  0.82940000  1.0
  H  H3235  1  0.52660000  0.58890000  0.81520000  1.0
  H  H3236  1  0.55960000  0.59750000  0.80680000  1.0
  H  H3237  1  0.55120000  0.58610000  0.76020000  1.0
  H  H3238  1  0.51780000  0.57910000  0.76830000  1.0
  H  H3239  1  0.63900000  0.57690000  0.86660000  1.0
  H  H3240  1  0.62650000  0.58940000  0.83630000  1.0
  H  H3241  1  0.62100000  0.59620000  0.91340000  1.0
  H  H3242  1  0.60420000  0.51140000  0.85650000  1.0
  H  H3243  1  0.62500000  0.53010000  0.87780000  1.0
  H  H3244  1  0.54490000  0.50550000  0.90510000  1.0
  H  H3245  1  0.55620000  0.49530000  0.87340000  1.0
  H  H3246  1  0.60680000  0.54440000  0.92600000  1.0
  H  H3247  1  0.57490000  0.53340000  0.93590000  1.0
  H  H3248  1  0.58890000  0.12640000  0.18600000  1.0
  H  H3249  1  0.53560000  0.09760000  0.18960000  1.0
  H  H3250  1  0.50460000  0.02950000  0.28300000  1.0
  H  H3251  1  0.54000000  0.01510000  0.32940000  1.0
  H  H3252  1  0.52660000  0.08890000  0.31520000  1.0
  H  H3253  1  0.55960000  0.09750000  0.30680000  1.0
  H  H3254  1  0.55120000  0.08610000  0.26020000  1.0
  H  H3255  1  0.51780000  0.07910000  0.26830000  1.0
  H  H3256  1  0.63900000  0.07690000  0.36660000  1.0
  H  H3257  1  0.62650000  0.08940000  0.33630000  1.0
  H  H3258  1  0.62100000  0.09620000  0.41340000  1.0
  H  H3259  1  0.60420000  0.01140000  0.35650000  1.0
  H  H3260  1  0.62500000  0.03010000  0.37780000  1.0
  H  H3261  1  0.54490000  0.00550000  0.40510000  1.0
  H  H3262  1  0.55620000  0.99530000  0.37340000  1.0
  H  H3263  1  0.60680000  0.04440000  0.42600000  1.0
  H  H3264  1  0.57490000  0.03340000  0.43590000  1.0
  C  C1  1  0.30570000  0.58170000  0.04480000  1.0
  C  C2  1  0.27300000  0.57420000  0.03840000  1.0
  C  C3  1  0.35680000  0.59470000  0.13140000  1.0
  C  C4  1  0.37720000  0.51460000  0.10990000  1.0
  C  C5  1  0.39380000  0.49950000  0.06240000  1.0
  C  C6  1  0.42450000  0.52800000  0.09260000  1.0
  C  C7  1  0.30570000  0.08170000  0.54480000  1.0
  C  C8  1  0.27300000  0.07420000  0.53840000  1.0
  C  C9  1  0.35680000  0.09470000  0.63140000  1.0
  C  C10  1  0.37720000  0.01460000  0.60990000  1.0
  C  C11  1  0.39380000  0.99950000  0.56240000  1.0
  C  C12  1  0.42450000  0.02800000  0.59260000  1.0
  C  C13  1  0.80570000  0.58170000  0.54480000  1.0
  C  C14  1  0.77300000  0.57420000  0.53840000  1.0
  C  C15  1  0.85680000  0.59470000  0.63140000  1.0
  C  C16  1  0.87720000  0.51460000  0.60990000  1.0
  C  C17  1  0.89380000  0.49950000  0.56240000  1.0
  C  C18  1  0.92450000  0.52800000  0.59260000  1.0
  C  C19  1  0.80570000  0.08170000  0.04480000  1.0
  C  C20  1  0.77300000  0.07420000  0.03840000  1.0
  C  C21  1  0.85680000  0.09470000  0.13140000  1.0
  C  C22  1  0.87720000  0.01460000  0.10990000  1.0
  C  C23  1  0.89380000  0.99950000  0.06240000  1.0
  C  C24  1  0.92450000  0.02800000  0.09260000  1.0
  C  C25  1  0.44430000  0.66830000  0.54480000  1.0
  C  C26  1  0.47700000  0.67580000  0.53840000  1.0
  C  C27  1  0.39320000  0.65530000  0.63140000  1.0
  C  C28  1  0.37280000  0.73540000  0.60990000  1.0
  C  C29  1  0.35620000  0.75050000  0.56240000  1.0
  C  C30  1  0.32550000  0.72200000  0.59260000  1.0
  C  C31  1  0.44430000  0.16830000  0.04480000  1.0
  C  C32  1  0.47700000  0.17580000  0.03840000  1.0
  C  C33  1  0.39320000  0.15530000  0.13140000  1.0
  C  C34  1  0.37280000  0.23540000  0.10990000  1.0
  C  C35  1  0.35620000  0.25050000  0.06240000  1.0
  C  C36  1  0.32550000  0.22200000  0.09260000  1.0
  C  C37  1  0.94430000  0.66830000  0.04480000  1.0
  C  C38  1  0.97700000  0.67580000  0.03840000  1.0
  C  C39  1  0.89320000  0.65530000  0.13140000  1.0
  C  C40  1  0.87280000  0.73540000  0.10990000  1.0
  C  C41  1  0.85620000  0.75050000  0.06240000  1.0
  C  C42  1  0.82550000  0.72200000  0.09260000  1.0
  C  C43  1  0.94430000  0.16830000  0.54480000  1.0
  C  C44  1  0.97700000  0.17580000  0.53840000  1.0
  C  C45  1  0.89320000  0.15530000  0.63140000  1.0
  C  C46  1  0.87280000  0.23540000  0.60990000  1.0
  C  C47  1  0.85620000  0.25050000  0.56240000  1.0
  C  C48  1  0.82550000  0.22200000  0.59260000  1.0
  C  C49  1  0.94430000  0.08170000  0.70520000  1.0
  C  C50  1  0.97700000  0.07420000  0.71160000  1.0
  C  C51  1  0.89320000  0.09470000  0.61860000  1.0
  C  C52  1  0.87280000  0.01460000  0.64010000  1.0
  C  C53  1  0.85620000  0.99950000  0.68760000  1.0
  C  C54  1  0.82550000  0.02800000  0.65740000  1.0
  C  C55  1  0.94430000  0.58170000  0.20520000  1.0
  C  C56  1  0.97700000  0.57420000  0.21160000  1.0
  C  C57  1  0.89320000  0.59470000  0.11860000  1.0
  C  C58  1  0.87280000  0.51460000  0.14010000  1.0
  C  C59  1  0.85620000  0.49950000  0.18760000  1.0
  C  C60  1  0.82550000  0.52800000  0.15740000  1.0
  C  C61  1  0.44430000  0.08170000  0.20520000  1.0
  C  C62  1  0.47700000  0.07420000  0.21160000  1.0
  C  C63  1  0.39320000  0.09470000  0.11860000  1.0
  C  C64  1  0.37280000  0.01460000  0.14010000  1.0
  C  C65  1  0.35620000  0.99950000  0.18760000  1.0
  C  C66  1  0.32550000  0.02800000  0.15740000  1.0
  C  C67  1  0.44430000  0.58170000  0.70520000  1.0
  C  C68  1  0.47700000  0.57420000  0.71160000  1.0
  C  C69  1  0.39320000  0.59470000  0.61860000  1.0
  C  C70  1  0.37280000  0.51460000  0.64010000  1.0
  C  C71  1  0.35620000  0.49950000  0.68760000  1.0
  C  C72  1  0.32550000  0.52800000  0.65740000  1.0
  C  C73  1  0.80570000  0.16830000  0.20520000  1.0
  C  C74  1  0.77300000  0.17580000  0.21160000  1.0
  C  C75  1  0.85680000  0.15530000  0.11860000  1.0
  C  C76  1  0.87720000  0.23540000  0.14010000  1.0
  C  C77  1  0.89380000  0.25050000  0.18760000  1.0
  C  C78  1  0.92450000  0.22200000  0.15740000  1.0
  C  C79  1  0.80570000  0.66830000  0.70520000  1.0
  C  C80  1  0.77300000  0.67580000  0.71160000  1.0
  C  C81  1  0.85680000  0.65530000  0.61860000  1.0
  C  C82  1  0.87720000  0.73540000  0.64010000  1.0
  C  C83  1  0.89380000  0.75050000  0.68760000  1.0
  C  C84  1  0.92450000  0.72200000  0.65740000  1.0
  C  C85  1  0.30570000  0.16830000  0.70520000  1.0
  C  C86  1  0.27300000  0.17580000  0.71160000  1.0
  C  C87  1  0.35680000  0.15530000  0.61860000  1.0
  C  C88  1  0.37720000  0.23540000  0.64010000  1.0
  C  C89  1  0.39380000  0.25050000  0.68760000  1.0
  C  C90  1  0.42450000  0.22200000  0.65740000  1.0
  C  C91  1  0.30570000  0.66830000  0.20520000  1.0
  C  C92  1  0.27300000  0.67580000  0.21160000  1.0
  C  C93  1  0.35680000  0.65530000  0.11860000  1.0
  C  C94  1  0.37720000  0.73540000  0.14010000  1.0
  C  C95  1  0.39380000  0.75050000  0.18760000  1.0
  C  C96  1  0.42450000  0.72200000  0.15740000  1.0
  C  C97  1  0.04480000  0.30570000  0.58170000  1.0
  C  C98  1  0.03840000  0.27300000  0.57420000  1.0
  C  C99  1  0.13140000  0.35680000  0.59470000  1.0
  C  C100  1  0.10990000  0.37720000  0.51460000  1.0
  C  C101  1  0.06240000  0.39380000  0.49950000  1.0
  C  C102  1  0.09260000  0.42450000  0.52800000  1.0
  C  C103  1  0.04480000  0.80570000  0.08170000  1.0
  C  C104  1  0.03840000  0.77300000  0.07420000  1.0
  C  C105  1  0.13140000  0.85680000  0.09470000  1.0
  C  C106  1  0.10990000  0.87720000  0.01460000  1.0
  C  C107  1  0.06240000  0.89380000  0.99950000  1.0
  C  C108  1  0.09260000  0.92450000  0.02800000  1.0
  C  C109  1  0.54480000  0.30570000  0.08170000  1.0
  C  C110  1  0.53840000  0.27300000  0.07420000  1.0
  C  C111  1  0.63140000  0.35680000  0.09470000  1.0
  C  C112  1  0.60990000  0.37720000  0.01460000  1.0
  C  C113  1  0.56240000  0.39380000  0.99950000  1.0
  C  C114  1  0.59260000  0.42450000  0.02800000  1.0
  C  C115  1  0.54480000  0.80570000  0.58170000  1.0
  C  C116  1  0.53840000  0.77300000  0.57420000  1.0
  C  C117  1  0.63140000  0.85680000  0.59470000  1.0
  C  C118  1  0.60990000  0.87720000  0.51460000  1.0
  C  C119  1  0.56240000  0.89380000  0.49950000  1.0
  C  C120  1  0.59260000  0.92450000  0.52800000  1.0
  C  C121  1  0.54480000  0.44430000  0.66830000  1.0
  C  C122  1  0.53840000  0.47700000  0.67580000  1.0
  C  C123  1  0.63140000  0.39320000  0.65530000  1.0
  C  C124  1  0.60990000  0.37280000  0.73540000  1.0
  C  C125  1  0.56240000  0.35620000  0.75050000  1.0
  C  C126  1  0.59260000  0.32550000  0.72200000  1.0
  C  C127  1  0.54480000  0.94430000  0.16830000  1.0
  C  C128  1  0.53840000  0.97700000  0.17580000  1.0
  C  C129  1  0.63140000  0.89320000  0.15530000  1.0
  C  C130  1  0.60990000  0.87280000  0.23540000  1.0
  C  C131  1  0.56240000  0.85620000  0.25050000  1.0
  C  C132  1  0.59260000  0.82550000  0.22200000  1.0
  C  C133  1  0.04480000  0.44430000  0.16830000  1.0
  C  C134  1  0.03840000  0.47700000  0.17580000  1.0
  C  C135  1  0.13140000  0.39320000  0.15530000  1.0
  C  C136  1  0.10990000  0.37280000  0.23540000  1.0
  C  C137  1  0.06240000  0.35620000  0.25050000  1.0
  C  C138  1  0.09260000  0.32550000  0.22200000  1.0
  C  C139  1  0.04480000  0.94430000  0.66830000  1.0
  C  C140  1  0.03840000  0.97700000  0.67580000  1.0
  C  C141  1  0.13140000  0.89320000  0.65530000  1.0
  C  C142  1  0.10990000  0.87280000  0.73540000  1.0
  C  C143  1  0.06240000  0.85620000  0.75050000  1.0
  C  C144  1  0.09260000  0.82550000  0.72200000  1.0
  C  C145  1  0.70520000  0.94430000  0.08170000  1.0
  C  C146  1  0.71160000  0.97700000  0.07420000  1.0
  C  C147  1  0.61860000  0.89320000  0.09470000  1.0
  C  C148  1  0.64010000  0.87280000  0.01460000  1.0
  C  C149  1  0.68760000  0.85620000  0.99950000  1.0
  C  C150  1  0.65740000  0.82550000  0.02800000  1.0
  C  C151  1  0.70520000  0.44430000  0.58170000  1.0
  C  C152  1  0.71160000  0.47700000  0.57420000  1.0
  C  C153  1  0.61860000  0.39320000  0.59470000  1.0
  C  C154  1  0.64010000  0.37280000  0.51460000  1.0
  C  C155  1  0.68760000  0.35620000  0.49950000  1.0
  C  C156  1  0.65740000  0.32550000  0.52800000  1.0
  C  C157  1  0.20520000  0.94430000  0.58170000  1.0
  C  C158  1  0.21160000  0.97700000  0.57420000  1.0
  C  C159  1  0.11860000  0.89320000  0.59470000  1.0
  C  C160  1  0.14010000  0.87280000  0.51460000  1.0
  C  C161  1  0.18760000  0.85620000  0.49950000  1.0
  C  C162  1  0.15740000  0.82550000  0.52800000  1.0
  C  C163  1  0.20520000  0.44430000  0.08170000  1.0
  C  C164  1  0.21160000  0.47700000  0.07420000  1.0
  C  C165  1  0.11860000  0.39320000  0.09470000  1.0
  C  C166  1  0.14010000  0.37280000  0.01460000  1.0
  C  C167  1  0.18760000  0.35620000  0.99950000  1.0
  C  C168  1  0.15740000  0.32550000  0.02800000  1.0
  C  C169  1  0.20520000  0.80570000  0.16830000  1.0
  C  C170  1  0.21160000  0.77300000  0.17580000  1.0
  C  C171  1  0.11860000  0.85680000  0.15530000  1.0
  C  C172  1  0.14010000  0.87720000  0.23540000  1.0
  C  C173  1  0.18760000  0.89380000  0.25050000  1.0
  C  C174  1  0.15740000  0.92450000  0.22200000  1.0
  C  C175  1  0.20520000  0.30570000  0.66830000  1.0
  C  C176  1  0.21160000  0.27300000  0.67580000  1.0
  C  C177  1  0.11860000  0.35680000  0.65530000  1.0
  C  C178  1  0.14010000  0.37720000  0.73540000  1.0
  C  C179  1  0.18760000  0.39380000  0.75050000  1.0
  C  C180  1  0.15740000  0.42450000  0.72200000  1.0
  C  C181  1  0.70520000  0.80570000  0.66830000  1.0
  C  C182  1  0.71160000  0.77300000  0.67580000  1.0
  C  C183  1  0.61860000  0.85680000  0.65530000  1.0
  C  C184  1  0.64010000  0.87720000  0.73540000  1.0
  C  C185  1  0.68760000  0.89380000  0.75050000  1.0
  C  C186  1  0.65740000  0.92450000  0.72200000  1.0
  C  C187  1  0.70520000  0.30570000  0.16830000  1.0
  C  C188  1  0.71160000  0.27300000  0.17580000  1.0
  C  C189  1  0.61860000  0.35680000  0.15530000  1.0
  C  C190  1  0.64010000  0.37720000  0.23540000  1.0
  C  C191  1  0.68760000  0.39380000  0.25050000  1.0
  C  C192  1  0.65740000  0.42450000  0.22200000  1.0
  C  C193  1  0.58170000  0.04480000  0.30570000  1.0
  C  C194  1  0.57420000  0.03840000  0.27300000  1.0
  C  C195  1  0.59470000  0.13140000  0.35680000  1.0
  C  C196  1  0.51460000  0.10990000  0.37720000  1.0
  C  C197  1  0.49950000  0.06240000  0.39380000  1.0
  C  C198  1  0.52800000  0.09260000  0.42450000  1.0
  C  C199  1  0.58170000  0.54480000  0.80570000  1.0
  C  C200  1  0.57420000  0.53840000  0.77300000  1.0
  C  C201  1  0.59470000  0.63140000  0.85680000  1.0
  C  C202  1  0.51460000  0.60990000  0.87720000  1.0
  C  C203  1  0.49950000  0.56240000  0.89380000  1.0
  C  C204  1  0.52800000  0.59260000  0.92450000  1.0
  C  C205  1  0.08170000  0.04480000  0.80570000  1.0
  C  C206  1  0.07420000  0.03840000  0.77300000  1.0
  C  C207  1  0.09470000  0.13140000  0.85680000  1.0
  C  C208  1  0.01460000  0.10990000  0.87720000  1.0
  C  C209  1  0.99950000  0.06240000  0.89380000  1.0
  C  C210  1  0.02800000  0.09260000  0.92450000  1.0
  C  C211  1  0.08170000  0.54480000  0.30570000  1.0
  C  C212  1  0.07420000  0.53840000  0.27300000  1.0
  C  C213  1  0.09470000  0.63140000  0.35680000  1.0
  C  C214  1  0.01460000  0.60990000  0.37720000  1.0
  C  C215  1  0.99950000  0.56240000  0.39380000  1.0
  C  C216  1  0.02800000  0.59260000  0.42450000  1.0
  C  C217  1  0.66830000  0.54480000  0.44430000  1.0
  C  C218  1  0.67580000  0.53840000  0.47700000  1.0
  C  C219  1  0.65530000  0.63140000  0.39320000  1.0
  C  C220  1  0.73540000  0.60990000  0.37280000  1.0
  C  C221  1  0.75050000  0.56240000  0.35620000  1.0
  C  C222  1  0.72200000  0.59260000  0.32550000  1.0
  C  C223  1  0.66830000  0.04480000  0.94430000  1.0
  C  C224  1  0.67580000  0.03840000  0.97700000  1.0
  C  C225  1  0.65530000  0.13140000  0.89320000  1.0
  C  C226  1  0.73540000  0.10990000  0.87280000  1.0
  C  C227  1  0.75050000  0.06240000  0.85620000  1.0
  C  C228  1  0.72200000  0.09260000  0.82550000  1.0
  C  C229  1  0.16830000  0.54480000  0.94430000  1.0
  C  C230  1  0.17580000  0.53840000  0.97700000  1.0
  C  C231  1  0.15530000  0.63140000  0.89320000  1.0
  C  C232  1  0.23540000  0.60990000  0.87280000  1.0
  C  C233  1  0.25050000  0.56240000  0.85620000  1.0
  C  C234  1  0.22200000  0.59260000  0.82550000  1.0
  C  C235  1  0.16830000  0.04480000  0.44430000  1.0
  C  C236  1  0.17580000  0.03840000  0.47700000  1.0
  C  C237  1  0.15530000  0.13140000  0.39320000  1.0
  C  C238  1  0.23540000  0.10990000  0.37280000  1.0
  C  C239  1  0.25050000  0.06240000  0.35620000  1.0
  C  C240  1  0.22200000  0.09260000  0.32550000  1.0
  C  C241  1  0.08170000  0.70520000  0.94430000  1.0
  C  C242  1  0.07420000  0.71160000  0.97700000  1.0
  C  C243  1  0.09470000  0.61860000  0.89320000  1.0
  C  C244  1  0.01460000  0.64010000  0.87280000  1.0
  C  C245  1  0.99950000  0.68760000  0.85620000  1.0
  C  C246  1  0.02800000  0.65740000  0.82550000  1.0
  C  C247  1  0.08170000  0.20520000  0.44430000  1.0
  C  C248  1  0.07420000  0.21160000  0.47700000  1.0
  C  C249  1  0.09470000  0.11860000  0.39320000  1.0
  C  C250  1  0.01460000  0.14010000  0.37280000  1.0
  C  C251  1  0.99950000  0.18760000  0.35620000  1.0
  C  C252  1  0.02800000  0.15740000  0.32550000  1.0
  C  C253  1  0.58170000  0.70520000  0.44430000  1.0
  C  C254  1  0.57420000  0.71160000  0.47700000  1.0
  C  C255  1  0.59470000  0.61860000  0.39320000  1.0
  C  C256  1  0.51460000  0.64010000  0.37280000  1.0
  C  C257  1  0.49950000  0.68760000  0.35620000  1.0
  C  C258  1  0.52800000  0.65740000  0.32550000  1.0
  C  C259  1  0.58170000  0.20520000  0.94430000  1.0
  C  C260  1  0.57420000  0.21160000  0.97700000  1.0
  C  C261  1  0.59470000  0.11860000  0.89320000  1.0
  C  C262  1  0.51460000  0.14010000  0.87280000  1.0
  C  C263  1  0.49950000  0.18760000  0.85620000  1.0
  C  C264  1  0.52800000  0.15740000  0.82550000  1.0
  C  C265  1  0.16830000  0.20520000  0.80570000  1.0
  C  C266  1  0.17580000  0.21160000  0.77300000  1.0
  C  C267  1  0.15530000  0.11860000  0.85680000  1.0
  C  C268  1  0.23540000  0.14010000  0.87720000  1.0
  C  C269  1  0.25050000  0.18760000  0.89380000  1.0
  C  C270  1  0.22200000  0.15740000  0.92450000  1.0
  C  C271  1  0.16830000  0.70520000  0.30570000  1.0
  C  C272  1  0.17580000  0.71160000  0.27300000  1.0
  C  C273  1  0.15530000  0.61860000  0.35680000  1.0
  C  C274  1  0.23540000  0.64010000  0.37720000  1.0
  C  C275  1  0.25050000  0.68760000  0.39380000  1.0
  C  C276  1  0.22200000  0.65740000  0.42450000  1.0
  C  C277  1  0.66830000  0.20520000  0.30570000  1.0
  C  C278  1  0.67580000  0.21160000  0.27300000  1.0
  C  C279  1  0.65530000  0.11860000  0.35680000  1.0
  C  C280  1  0.73540000  0.14010000  0.37720000  1.0
  C  C281  1  0.75050000  0.18760000  0.39380000  1.0
  C  C282  1  0.72200000  0.15740000  0.42450000  1.0
  C  C283  1  0.66830000  0.70520000  0.80570000  1.0
  C  C284  1  0.67580000  0.71160000  0.77300000  1.0
  C  C285  1  0.65530000  0.61860000  0.85680000  1.0
  C  C286  1  0.73540000  0.64010000  0.87720000  1.0
  C  C287  1  0.75050000  0.68760000  0.89380000  1.0
  C  C288  1  0.72200000  0.65740000  0.92450000  1.0
  C  C289  1  0.33170000  0.55570000  0.45520000  1.0
  C  C290  1  0.32420000  0.52300000  0.46160000  1.0
  C  C291  1  0.34470000  0.60680000  0.36860000  1.0
  C  C292  1  0.26460000  0.62720000  0.39010000  1.0
  C  C293  1  0.24950000  0.64380000  0.43760000  1.0
  C  C294  1  0.27800000  0.67450000  0.40740000  1.0
  C  C295  1  0.33170000  0.05570000  0.95520000  1.0
  C  C296  1  0.32420000  0.02300000  0.96160000  1.0
  C  C297  1  0.34470000  0.10680000  0.86860000  1.0
  C  C298  1  0.26460000  0.12720000  0.89010000  1.0
  C  C299  1  0.24950000  0.14380000  0.93760000  1.0
  C  C300  1  0.27800000  0.17450000  0.90740000  1.0
  C  C301  1  0.83170000  0.55570000  0.95520000  1.0
  C  C302  1  0.82420000  0.52300000  0.96160000  1.0
  C  C303  1  0.84470000  0.60680000  0.86860000  1.0
  C  C304  1  0.76460000  0.62720000  0.89010000  1.0
  C  C305  1  0.74950000  0.64380000  0.93760000  1.0
  C  C306  1  0.77800000  0.67450000  0.90740000  1.0
  C  C307  1  0.83170000  0.05570000  0.45520000  1.0
  C  C308  1  0.82420000  0.02300000  0.46160000  1.0
  C  C309  1  0.84470000  0.10680000  0.36860000  1.0
  C  C310  1  0.76460000  0.12720000  0.39010000  1.0
  C  C311  1  0.74950000  0.14380000  0.43760000  1.0
  C  C312  1  0.77800000  0.17450000  0.40740000  1.0
  C  C313  1  0.41830000  0.69430000  0.95520000  1.0
  C  C314  1  0.42580000  0.72700000  0.96160000  1.0
  C  C315  1  0.40530000  0.64320000  0.86860000  1.0
  C  C316  1  0.48540000  0.62280000  0.89010000  1.0
  C  C317  1  0.50050000  0.60620000  0.93760000  1.0
  C  C318  1  0.47200000  0.57550000  0.90740000  1.0
  C  C319  1  0.41830000  0.19430000  0.45520000  1.0
  C  C320  1  0.42580000  0.22700000  0.46160000  1.0
  C  C321  1  0.40530000  0.14320000  0.36860000  1.0
  C  C322  1  0.48540000  0.12280000  0.39010000  1.0
  C  C323  1  0.50050000  0.10620000  0.43760000  1.0
  C  C324  1  0.47200000  0.07550000  0.40740000  1.0
  C  C325  1  0.91830000  0.69430000  0.45520000  1.0
  C  C326  1  0.92580000  0.72700000  0.46160000  1.0
  C  C327  1  0.90530000  0.64320000  0.36860000  1.0
  C  C328  1  0.98540000  0.62280000  0.39010000  1.0
  C  C329  1  0.00050000  0.60620000  0.43760000  1.0
  C  C330  1  0.97200000  0.57550000  0.40740000  1.0
  C  C331  1  0.91830000  0.19430000  0.95520000  1.0
  C  C332  1  0.92580000  0.22700000  0.96160000  1.0
  C  C333  1  0.90530000  0.14320000  0.86860000  1.0
  C  C334  1  0.98540000  0.12280000  0.89010000  1.0
  C  C335  1  0.00050000  0.10620000  0.93760000  1.0
  C  C336  1  0.97200000  0.07550000  0.90740000  1.0
  C  C337  1  0.83170000  0.19430000  0.79480000  1.0
  C  C338  1  0.82420000  0.22700000  0.78840000  1.0
  C  C339  1  0.84470000  0.14320000  0.88140000  1.0
  C  C340  1  0.76460000  0.12280000  0.85990000  1.0
  C  C341  1  0.74950000  0.10620000  0.81240000  1.0
  C  C342  1  0.77800000  0.07550000  0.84260000  1.0
  C  C343  1  0.83170000  0.69430000  0.29480000  1.0
  C  C344  1  0.82420000  0.72700000  0.28840000  1.0
  C  C345  1  0.84470000  0.64320000  0.38140000  1.0
  C  C346  1  0.76460000  0.62280000  0.35990000  1.0
  C  C347  1  0.74950000  0.60620000  0.31240000  1.0
  C  C348  1  0.77800000  0.57550000  0.34260000  1.0
  C  C349  1  0.33170000  0.19430000  0.29480000  1.0
  C  C350  1  0.32420000  0.22700000  0.28840000  1.0
  C  C351  1  0.34470000  0.14320000  0.38140000  1.0
  C  C352  1  0.26460000  0.12280000  0.35990000  1.0
  C  C353  1  0.24950000  0.10620000  0.31240000  1.0
  C  C354  1  0.27800000  0.07550000  0.34260000  1.0
  C  C355  1  0.33170000  0.69430000  0.79480000  1.0
  C  C356  1  0.32420000  0.72700000  0.78840000  1.0
  C  C357  1  0.34470000  0.64320000  0.88140000  1.0
  C  C358  1  0.26460000  0.62280000  0.85990000  1.0
  C  C359  1  0.24950000  0.60620000  0.81240000  1.0
  C  C360  1  0.27800000  0.57550000  0.84260000  1.0
  C  C361  1  0.91830000  0.05570000  0.29480000  1.0
  C  C362  1  0.92580000  0.02300000  0.28840000  1.0
  C  C363  1  0.90530000  0.10680000  0.38140000  1.0
  C  C364  1  0.98540000  0.12720000  0.35990000  1.0
  C  C365  1  0.00050000  0.14380000  0.31240000  1.0
  C  C366  1  0.97200000  0.17450000  0.34260000  1.0
  C  C367  1  0.91830000  0.55570000  0.79480000  1.0
  C  C368  1  0.92580000  0.52300000  0.78840000  1.0
  C  C369  1  0.90530000  0.60680000  0.88140000  1.0
  C  C370  1  0.98540000  0.62720000  0.85990000  1.0
  C  C371  1  0.00050000  0.64380000  0.81240000  1.0
  C  C372  1  0.97200000  0.67450000  0.84260000  1.0
  C  C373  1  0.41830000  0.05570000  0.79480000  1.0
  C  C374  1  0.42580000  0.02300000  0.78840000  1.0
  C  C375  1  0.40530000  0.10680000  0.88140000  1.0
  C  C376  1  0.48540000  0.12720000  0.85990000  1.0
  C  C377  1  0.50050000  0.14380000  0.81240000  1.0
  C  C378  1  0.47200000  0.17450000  0.84260000  1.0
  C  C379  1  0.41830000  0.55570000  0.29480000  1.0
  C  C380  1  0.42580000  0.52300000  0.28840000  1.0
  C  C381  1  0.40530000  0.60680000  0.38140000  1.0
  C  C382  1  0.48540000  0.62720000  0.35990000  1.0
  C  C383  1  0.50050000  0.64380000  0.31240000  1.0
  C  C384  1  0.47200000  0.67450000  0.34260000  1.0
  C  C385  1  0.05570000  0.29480000  0.91830000  1.0
  C  C386  1  0.02300000  0.28840000  0.92580000  1.0
  C  C387  1  0.10680000  0.38140000  0.90530000  1.0
  C  C388  1  0.12720000  0.35990000  0.98540000  1.0
  C  C389  1  0.14380000  0.31240000  0.00050000  1.0
  C  C390  1  0.17450000  0.34260000  0.97200000  1.0
  C  C391  1  0.05570000  0.79480000  0.41830000  1.0
  C  C392  1  0.02300000  0.78840000  0.42580000  1.0
  C  C393  1  0.10680000  0.88140000  0.40530000  1.0
  C  C394  1  0.12720000  0.85990000  0.48540000  1.0
  C  C395  1  0.14380000  0.81240000  0.50050000  1.0
  C  C396  1  0.17450000  0.84260000  0.47200000  1.0
  C  C397  1  0.55570000  0.29480000  0.41830000  1.0
  C  C398  1  0.52300000  0.28840000  0.42580000  1.0
  C  C399  1  0.60680000  0.38140000  0.40530000  1.0
  C  C400  1  0.62720000  0.35990000  0.48540000  1.0
  C  C401  1  0.64380000  0.31240000  0.50050000  1.0
  C  C402  1  0.67450000  0.34260000  0.47200000  1.0
  C  C403  1  0.55570000  0.79480000  0.91830000  1.0
  C  C404  1  0.52300000  0.78840000  0.92580000  1.0
  C  C405  1  0.60680000  0.88140000  0.90530000  1.0
  C  C406  1  0.62720000  0.85990000  0.98540000  1.0
  C  C407  1  0.64380000  0.81240000  0.00050000  1.0
  C  C408  1  0.67450000  0.84260000  0.97200000  1.0
  C  C409  1  0.19430000  0.79480000  0.83170000  1.0
  C  C410  1  0.22700000  0.78840000  0.82420000  1.0
  C  C411  1  0.14320000  0.88140000  0.84470000  1.0
  C  C412  1  0.12280000  0.85990000  0.76460000  1.0
  C  C413  1  0.10620000  0.81240000  0.74950000  1.0
  C  C414  1  0.07550000  0.84260000  0.77800000  1.0
  C  C415  1  0.19430000  0.29480000  0.33170000  1.0
  C  C416  1  0.22700000  0.28840000  0.32420000  1.0
  C  C417  1  0.14320000  0.38140000  0.34470000  1.0
  C  C418  1  0.12280000  0.35990000  0.26460000  1.0
  C  C419  1  0.10620000  0.31240000  0.24950000  1.0
  C  C420  1  0.07550000  0.34260000  0.27800000  1.0
  C  C421  1  0.69430000  0.79480000  0.33170000  1.0
  C  C422  1  0.72700000  0.78840000  0.32420000  1.0
  C  C423  1  0.64320000  0.88140000  0.34470000  1.0
  C  C424  1  0.62280000  0.85990000  0.26460000  1.0
  C  C425  1  0.60620000  0.81240000  0.24950000  1.0
  C  C426  1  0.57550000  0.84260000  0.27800000  1.0
  C  C427  1  0.69430000  0.29480000  0.83170000  1.0
  C  C428  1  0.72700000  0.28840000  0.82420000  1.0
  C  C429  1  0.64320000  0.38140000  0.84470000  1.0
  C  C430  1  0.62280000  0.35990000  0.76460000  1.0
  C  C431  1  0.60620000  0.31240000  0.74950000  1.0
  C  C432  1  0.57550000  0.34260000  0.77800000  1.0
  C  C433  1  0.69430000  0.95520000  0.41830000  1.0
  C  C434  1  0.72700000  0.96160000  0.42580000  1.0
  C  C435  1  0.64320000  0.86860000  0.40530000  1.0
  C  C436  1  0.62280000  0.89010000  0.48540000  1.0
  C  C437  1  0.60620000  0.93760000  0.50050000  1.0
  C  C438  1  0.57550000  0.90740000  0.47200000  1.0
  C  C439  1  0.69430000  0.45520000  0.91830000  1.0
  C  C440  1  0.72700000  0.46160000  0.92580000  1.0
  C  C441  1  0.64320000  0.36860000  0.90530000  1.0
  C  C442  1  0.62280000  0.39010000  0.98540000  1.0
  C  C443  1  0.60620000  0.43760000  0.00050000  1.0
  C  C444  1  0.57550000  0.40740000  0.97200000  1.0
  C  C445  1  0.19430000  0.95520000  0.91830000  1.0
  C  C446  1  0.22700000  0.96160000  0.92580000  1.0
  C  C447  1  0.14320000  0.86860000  0.90530000  1.0
  C  C448  1  0.12280000  0.89010000  0.98540000  1.0
  C  C449  1  0.10620000  0.93760000  0.00050000  1.0
  C  C450  1  0.07550000  0.90740000  0.97200000  1.0
  C  C451  1  0.19430000  0.45520000  0.41830000  1.0
  C  C452  1  0.22700000  0.46160000  0.42580000  1.0
  C  C453  1  0.14320000  0.36860000  0.40530000  1.0
  C  C454  1  0.12280000  0.39010000  0.48540000  1.0
  C  C455  1  0.10620000  0.43760000  0.50050000  1.0
  C  C456  1  0.07550000  0.40740000  0.47200000  1.0
  C  C457  1  0.55570000  0.45520000  0.33170000  1.0
  C  C458  1  0.52300000  0.46160000  0.32420000  1.0
  C  C459  1  0.60680000  0.36860000  0.34470000  1.0
  C  C460  1  0.62720000  0.39010000  0.26460000  1.0
  C  C461  1  0.64380000  0.43760000  0.24950000  1.0
  C  C462  1  0.67450000  0.40740000  0.27800000  1.0
  C  C463  1  0.55570000  0.95520000  0.83170000  1.0
  C  C464  1  0.52300000  0.96160000  0.82420000  1.0
  C  C465  1  0.60680000  0.86860000  0.84470000  1.0
  C  C466  1  0.62720000  0.89010000  0.76460000  1.0
  C  C467  1  0.64380000  0.93760000  0.74950000  1.0
  C  C468  1  0.67450000  0.90740000  0.77800000  1.0
  C  C469  1  0.05570000  0.45520000  0.83170000  1.0
  C  C470  1  0.02300000  0.46160000  0.82420000  1.0
  C  C471  1  0.10680000  0.36860000  0.84470000  1.0
  C  C472  1  0.12720000  0.39010000  0.76460000  1.0
  C  C473  1  0.14380000  0.43760000  0.74950000  1.0
  C  C474  1  0.17450000  0.40740000  0.77800000  1.0
  C  C475  1  0.05570000  0.95520000  0.33170000  1.0
  C  C476  1  0.02300000  0.96160000  0.32420000  1.0
  C  C477  1  0.10680000  0.86860000  0.34470000  1.0
  C  C478  1  0.12720000  0.89010000  0.26460000  1.0
  C  C479  1  0.14380000  0.93760000  0.24950000  1.0
  C  C480  1  0.17450000  0.90740000  0.27800000  1.0
  C  C481  1  0.79480000  0.83170000  0.19430000  1.0
  C  C482  1  0.78840000  0.82420000  0.22700000  1.0
  C  C483  1  0.88140000  0.84470000  0.14320000  1.0
  C  C484  1  0.85990000  0.76460000  0.12280000  1.0
  C  C485  1  0.81240000  0.74950000  0.10620000  1.0
  C  C486  1  0.84260000  0.77800000  0.07550000  1.0
  C  C487  1  0.79480000  0.33170000  0.69430000  1.0
  C  C488  1  0.78840000  0.32420000  0.72700000  1.0
  C  C489  1  0.88140000  0.34470000  0.64320000  1.0
  C  C490  1  0.85990000  0.26460000  0.62280000  1.0
  C  C491  1  0.81240000  0.24950000  0.60620000  1.0
  C  C492  1  0.84260000  0.27800000  0.57550000  1.0
  C  C493  1  0.29480000  0.83170000  0.69430000  1.0
  C  C494  1  0.28840000  0.82420000  0.72700000  1.0
  C  C495  1  0.38140000  0.84470000  0.64320000  1.0
  C  C496  1  0.35990000  0.76460000  0.62280000  1.0
  C  C497  1  0.31240000  0.74950000  0.60620000  1.0
  C  C498  1  0.34260000  0.77800000  0.57550000  1.0
  C  C499  1  0.29480000  0.33170000  0.19430000  1.0
  C  C500  1  0.28840000  0.32420000  0.22700000  1.0
  C  C501  1  0.38140000  0.34470000  0.14320000  1.0
  C  C502  1  0.35990000  0.26460000  0.12280000  1.0
  C  C503  1  0.31240000  0.24950000  0.10620000  1.0
  C  C504  1  0.34260000  0.27800000  0.07550000  1.0
  C  C505  1  0.29480000  0.91830000  0.05570000  1.0
  C  C506  1  0.28840000  0.92580000  0.02300000  1.0
  C  C507  1  0.38140000  0.90530000  0.10680000  1.0
  C  C508  1  0.35990000  0.98540000  0.12720000  1.0
  C  C509  1  0.31240000  0.00050000  0.14380000  1.0
  C  C510  1  0.34260000  0.97200000  0.17450000  1.0
  C  C511  1  0.29480000  0.41830000  0.55570000  1.0
  C  C512  1  0.28840000  0.42580000  0.52300000  1.0
  C  C513  1  0.38140000  0.40530000  0.60680000  1.0
  C  C514  1  0.35990000  0.48540000  0.62720000  1.0
  C  C515  1  0.31240000  0.50050000  0.64380000  1.0
  C  C516  1  0.34260000  0.47200000  0.67450000  1.0
  C  C517  1  0.79480000  0.91830000  0.55570000  1.0
  C  C518  1  0.78840000  0.92580000  0.52300000  1.0
  C  C519  1  0.88140000  0.90530000  0.60680000  1.0
  C  C520  1  0.85990000  0.98540000  0.62720000  1.0
  C  C521  1  0.81240000  0.00050000  0.64380000  1.0
  C  C522  1  0.84260000  0.97200000  0.67450000  1.0
  C  C523  1  0.79480000  0.41830000  0.05570000  1.0
  C  C524  1  0.78840000  0.42580000  0.02300000  1.0
  C  C525  1  0.88140000  0.40530000  0.10680000  1.0
  C  C526  1  0.85990000  0.48540000  0.12720000  1.0
  C  C527  1  0.81240000  0.50050000  0.14380000  1.0
  C  C528  1  0.84260000  0.47200000  0.17450000  1.0
  C  C529  1  0.45520000  0.33170000  0.55570000  1.0
  C  C530  1  0.46160000  0.32420000  0.52300000  1.0
  C  C531  1  0.36860000  0.34470000  0.60680000  1.0
  C  C532  1  0.39010000  0.26460000  0.62720000  1.0
  C  C533  1  0.43760000  0.24950000  0.64380000  1.0
  C  C534  1  0.40740000  0.27800000  0.67450000  1.0
  C  C535  1  0.45520000  0.83170000  0.05570000  1.0
  C  C536  1  0.46160000  0.82420000  0.02300000  1.0
  C  C537  1  0.36860000  0.84470000  0.10680000  1.0
  C  C538  1  0.39010000  0.76460000  0.12720000  1.0
  C  C539  1  0.43760000  0.74950000  0.14380000  1.0
  C  C540  1  0.40740000  0.77800000  0.17450000  1.0
  C  C541  1  0.95520000  0.33170000  0.05570000  1.0
  C  C542  1  0.96160000  0.32420000  0.02300000  1.0
  C  C543  1  0.86860000  0.34470000  0.10680000  1.0
  C  C544  1  0.89010000  0.26460000  0.12720000  1.0
  C  C545  1  0.93760000  0.24950000  0.14380000  1.0
  C  C546  1  0.90740000  0.27800000  0.17450000  1.0
  C  C547  1  0.95520000  0.83170000  0.55570000  1.0
  C  C548  1  0.96160000  0.82420000  0.52300000  1.0
  C  C549  1  0.86860000  0.84470000  0.60680000  1.0
  C  C550  1  0.89010000  0.76460000  0.62720000  1.0
  C  C551  1  0.93760000  0.74950000  0.64380000  1.0
  C  C552  1  0.90740000  0.77800000  0.67450000  1.0
  C  C553  1  0.95520000  0.41830000  0.69430000  1.0
  C  C554  1  0.96160000  0.42580000  0.72700000  1.0
  C  C555  1  0.86860000  0.40530000  0.64320000  1.0
  C  C556  1  0.89010000  0.48540000  0.62280000  1.0
  C  C557  1  0.93760000  0.50050000  0.60620000  1.0
  C  C558  1  0.90740000  0.47200000  0.57550000  1.0
  C  C559  1  0.95520000  0.91830000  0.19430000  1.0
  C  C560  1  0.96160000  0.92580000  0.22700000  1.0
  C  C561  1  0.86860000  0.90530000  0.14320000  1.0
  C  C562  1  0.89010000  0.98540000  0.12280000  1.0
  C  C563  1  0.93760000  0.00050000  0.10620000  1.0
  C  C564  1  0.90740000  0.97200000  0.07550000  1.0
  C  C565  1  0.45520000  0.41830000  0.19430000  1.0
  C  C566  1  0.46160000  0.42580000  0.22700000  1.0
  C  C567  1  0.36860000  0.40530000  0.14320000  1.0
  C  C568  1  0.39010000  0.48540000  0.12280000  1.0
  C  C569  1  0.43760000  0.50050000  0.10620000  1.0
  C  C570  1  0.40740000  0.47200000  0.07550000  1.0
  C  C571  1  0.45520000  0.91830000  0.69430000  1.0
  C  C572  1  0.46160000  0.92580000  0.72700000  1.0
  C  C573  1  0.36860000  0.90530000  0.64320000  1.0
  C  C574  1  0.39010000  0.98540000  0.62280000  1.0
  C  C575  1  0.43760000  0.00050000  0.60620000  1.0
  C  C576  1  0.40740000  0.97200000  0.57550000  1.0
  C  C577  1  0.69430000  0.41830000  0.95520000  1.0
  C  C578  1  0.72700000  0.42580000  0.96160000  1.0
  C  C579  1  0.64320000  0.40530000  0.86860000  1.0
  C  C580  1  0.62280000  0.48540000  0.89010000  1.0
  C  C581  1  0.60620000  0.50050000  0.93760000  1.0
  C  C582  1  0.57550000  0.47200000  0.90740000  1.0
  C  C583  1  0.69430000  0.91830000  0.45520000  1.0
  C  C584  1  0.72700000  0.92580000  0.46160000  1.0
  C  C585  1  0.64320000  0.90530000  0.36860000  1.0
  C  C586  1  0.62280000  0.98540000  0.39010000  1.0
  C  C587  1  0.60620000  0.00050000  0.43760000  1.0
  C  C588  1  0.57550000  0.97200000  0.40740000  1.0
  C  C589  1  0.19430000  0.41830000  0.45520000  1.0
  C  C590  1  0.22700000  0.42580000  0.46160000  1.0
  C  C591  1  0.14320000  0.40530000  0.36860000  1.0
  C  C592  1  0.12280000  0.48540000  0.39010000  1.0
  C  C593  1  0.10620000  0.50050000  0.43760000  1.0
  C  C594  1  0.07550000  0.47200000  0.40740000  1.0
  C  C595  1  0.19430000  0.91830000  0.95520000  1.0
  C  C596  1  0.22700000  0.92580000  0.96160000  1.0
  C  C597  1  0.14320000  0.90530000  0.86860000  1.0
  C  C598  1  0.12280000  0.98540000  0.89010000  1.0
  C  C599  1  0.10620000  0.00050000  0.93760000  1.0
  C  C600  1  0.07550000  0.97200000  0.90740000  1.0
  C  C601  1  0.55570000  0.33170000  0.45520000  1.0
  C  C602  1  0.52300000  0.32420000  0.46160000  1.0
  C  C603  1  0.60680000  0.34470000  0.36860000  1.0
  C  C604  1  0.62720000  0.26460000  0.39010000  1.0
  C  C605  1  0.64380000  0.24950000  0.43760000  1.0
  C  C606  1  0.67450000  0.27800000  0.40740000  1.0
  C  C607  1  0.55570000  0.83170000  0.95520000  1.0
  C  C608  1  0.52300000  0.82420000  0.96160000  1.0
  C  C609  1  0.60680000  0.84470000  0.86860000  1.0
  C  C610  1  0.62720000  0.76460000  0.89010000  1.0
  C  C611  1  0.64380000  0.74950000  0.93760000  1.0
  C  C612  1  0.67450000  0.77800000  0.90740000  1.0
  C  C613  1  0.05570000  0.33170000  0.95520000  1.0
  C  C614  1  0.02300000  0.32420000  0.96160000  1.0
  C  C615  1  0.10680000  0.34470000  0.86860000  1.0
  C  C616  1  0.12720000  0.26460000  0.89010000  1.0
  C  C617  1  0.14380000  0.24950000  0.93760000  1.0
  C  C618  1  0.17450000  0.27800000  0.90740000  1.0
  C  C619  1  0.05570000  0.83170000  0.45520000  1.0
  C  C620  1  0.02300000  0.82420000  0.46160000  1.0
  C  C621  1  0.10680000  0.84470000  0.36860000  1.0
  C  C622  1  0.12720000  0.76460000  0.39010000  1.0
  C  C623  1  0.14380000  0.74950000  0.43760000  1.0
  C  C624  1  0.17450000  0.77800000  0.40740000  1.0
  C  C625  1  0.05570000  0.91830000  0.29480000  1.0
  C  C626  1  0.02300000  0.92580000  0.28840000  1.0
  C  C627  1  0.10680000  0.90530000  0.38140000  1.0
  C  C628  1  0.12720000  0.98540000  0.35990000  1.0
  C  C629  1  0.14380000  0.00050000  0.31240000  1.0
  C  C630  1  0.17450000  0.97200000  0.34260000  1.0
  C  C631  1  0.05570000  0.41830000  0.79480000  1.0
  C  C632  1  0.02300000  0.42580000  0.78840000  1.0
  C  C633  1  0.10680000  0.40530000  0.88140000  1.0
  C  C634  1  0.12720000  0.48540000  0.85990000  1.0
  C  C635  1  0.14380000  0.50050000  0.81240000  1.0
  C  C636  1  0.17450000  0.47200000  0.84260000  1.0
  C  C637  1  0.55570000  0.91830000  0.79480000  1.0
  C  C638  1  0.52300000  0.92580000  0.78840000  1.0
  C  C639  1  0.60680000  0.90530000  0.88140000  1.0
  C  C640  1  0.62720000  0.98540000  0.85990000  1.0
  C  C641  1  0.64380000  0.00050000  0.81240000  1.0
  C  C642  1  0.67450000  0.97200000  0.84260000  1.0
  C  C643  1  0.55570000  0.41830000  0.29480000  1.0
  C  C644  1  0.52300000  0.42580000  0.28840000  1.0
  C  C645  1  0.60680000  0.40530000  0.38140000  1.0
  C  C646  1  0.62720000  0.48540000  0.35990000  1.0
  C  C647  1  0.64380000  0.50050000  0.31240000  1.0
  C  C648  1  0.67450000  0.47200000  0.34260000  1.0
  C  C649  1  0.19430000  0.83170000  0.79480000  1.0
  C  C650  1  0.22700000  0.82420000  0.78840000  1.0
  C  C651  1  0.14320000  0.84470000  0.88140000  1.0
  C  C652  1  0.12280000  0.76460000  0.85990000  1.0
  C  C653  1  0.10620000  0.74950000  0.81240000  1.0
  C  C654  1  0.07550000  0.77800000  0.84260000  1.0
  C  C655  1  0.19430000  0.33170000  0.29480000  1.0
  C  C656  1  0.22700000  0.32420000  0.28840000  1.0
  C  C657  1  0.14320000  0.34470000  0.38140000  1.0
  C  C658  1  0.12280000  0.26460000  0.35990000  1.0
  C  C659  1  0.10620000  0.24950000  0.31240000  1.0
  C  C660  1  0.07550000  0.27800000  0.34260000  1.0
  C  C661  1  0.69430000  0.83170000  0.29480000  1.0
  C  C662  1  0.72700000  0.82420000  0.28840000  1.0
  C  C663  1  0.64320000  0.84470000  0.38140000  1.0
  C  C664  1  0.62280000  0.76460000  0.35990000  1.0
  C  C665  1  0.60620000  0.74950000  0.31240000  1.0
  C  C666  1  0.57550000  0.77800000  0.34260000  1.0
  C  C667  1  0.69430000  0.33170000  0.79480000  1.0
  C  C668  1  0.72700000  0.32420000  0.78840000  1.0
  C  C669  1  0.64320000  0.34470000  0.88140000  1.0
  C  C670  1  0.62280000  0.26460000  0.85990000  1.0
  C  C671  1  0.60620000  0.24950000  0.81240000  1.0
  C  C672  1  0.57550000  0.27800000  0.84260000  1.0
  C  C673  1  0.95520000  0.69430000  0.41830000  1.0
  C  C674  1  0.96160000  0.72700000  0.42580000  1.0
  C  C675  1  0.86860000  0.64320000  0.40530000  1.0
  C  C676  1  0.89010000  0.62280000  0.48540000  1.0
  C  C677  1  0.93760000  0.60620000  0.50050000  1.0
  C  C678  1  0.90740000  0.57550000  0.47200000  1.0
  C  C679  1  0.95520000  0.19430000  0.91830000  1.0
  C  C680  1  0.96160000  0.22700000  0.92580000  1.0
  C  C681  1  0.86860000  0.14320000  0.90530000  1.0
  C  C682  1  0.89010000  0.12280000  0.98540000  1.0
  C  C683  1  0.93760000  0.10620000  0.00050000  1.0
  C  C684  1  0.90740000  0.07550000  0.97200000  1.0
  C  C685  1  0.45520000  0.69430000  0.91830000  1.0
  C  C686  1  0.46160000  0.72700000  0.92580000  1.0
  C  C687  1  0.36860000  0.64320000  0.90530000  1.0
  C  C688  1  0.39010000  0.62280000  0.98540000  1.0
  C  C689  1  0.43760000  0.60620000  0.00050000  1.0
  C  C690  1  0.40740000  0.57550000  0.97200000  1.0
  C  C691  1  0.45520000  0.19430000  0.41830000  1.0
  C  C692  1  0.46160000  0.22700000  0.42580000  1.0
  C  C693  1  0.36860000  0.14320000  0.40530000  1.0
  C  C694  1  0.39010000  0.12280000  0.48540000  1.0
  C  C695  1  0.43760000  0.10620000  0.50050000  1.0
  C  C696  1  0.40740000  0.07550000  0.47200000  1.0
  C  C697  1  0.45520000  0.55570000  0.33170000  1.0
  C  C698  1  0.46160000  0.52300000  0.32420000  1.0
  C  C699  1  0.36860000  0.60680000  0.34470000  1.0
  C  C700  1  0.39010000  0.62720000  0.26460000  1.0
  C  C701  1  0.43760000  0.64380000  0.24950000  1.0
  C  C702  1  0.40740000  0.67450000  0.27800000  1.0
  C  C703  1  0.45520000  0.05570000  0.83170000  1.0
  C  C704  1  0.46160000  0.02300000  0.82420000  1.0
  C  C705  1  0.36860000  0.10680000  0.84470000  1.0
  C  C706  1  0.39010000  0.12720000  0.76460000  1.0
  C  C707  1  0.43760000  0.14380000  0.74950000  1.0
  C  C708  1  0.40740000  0.17450000  0.77800000  1.0
  C  C709  1  0.95520000  0.55570000  0.83170000  1.0
  C  C710  1  0.96160000  0.52300000  0.82420000  1.0
  C  C711  1  0.86860000  0.60680000  0.84470000  1.0
  C  C712  1  0.89010000  0.62720000  0.76460000  1.0
  C  C713  1  0.93760000  0.64380000  0.74950000  1.0
  C  C714  1  0.90740000  0.67450000  0.77800000  1.0
  C  C715  1  0.95520000  0.05570000  0.33170000  1.0
  C  C716  1  0.96160000  0.02300000  0.32420000  1.0
  C  C717  1  0.86860000  0.10680000  0.34470000  1.0
  C  C718  1  0.89010000  0.12720000  0.26460000  1.0
  C  C719  1  0.93760000  0.14380000  0.24950000  1.0
  C  C720  1  0.90740000  0.17450000  0.27800000  1.0
  C  C721  1  0.29480000  0.05570000  0.91830000  1.0
  C  C722  1  0.28840000  0.02300000  0.92580000  1.0
  C  C723  1  0.38140000  0.10680000  0.90530000  1.0
  C  C724  1  0.35990000  0.12720000  0.98540000  1.0
  C  C725  1  0.31240000  0.14380000  0.00050000  1.0
  C  C726  1  0.34260000  0.17450000  0.97200000  1.0
  C  C727  1  0.29480000  0.55570000  0.41830000  1.0
  C  C728  1  0.28840000  0.52300000  0.42580000  1.0
  C  C729  1  0.38140000  0.60680000  0.40530000  1.0
  C  C730  1  0.35990000  0.62720000  0.48540000  1.0
  C  C731  1  0.31240000  0.64380000  0.50050000  1.0
  C  C732  1  0.34260000  0.67450000  0.47200000  1.0
  C  C733  1  0.79480000  0.05570000  0.41830000  1.0
  C  C734  1  0.78840000  0.02300000  0.42580000  1.0
  C  C735  1  0.88140000  0.10680000  0.40530000  1.0
  C  C736  1  0.85990000  0.12720000  0.48540000  1.0
  C  C737  1  0.81240000  0.14380000  0.50050000  1.0
  C  C738  1  0.84260000  0.17450000  0.47200000  1.0
  C  C739  1  0.79480000  0.55570000  0.91830000  1.0
  C  C740  1  0.78840000  0.52300000  0.92580000  1.0
  C  C741  1  0.88140000  0.60680000  0.90530000  1.0
  C  C742  1  0.85990000  0.62720000  0.98540000  1.0
  C  C743  1  0.81240000  0.64380000  0.00050000  1.0
  C  C744  1  0.84260000  0.67450000  0.97200000  1.0
  C  C745  1  0.79480000  0.19430000  0.83170000  1.0
  C  C746  1  0.78840000  0.22700000  0.82420000  1.0
  C  C747  1  0.88140000  0.14320000  0.84470000  1.0
  C  C748  1  0.85990000  0.12280000  0.76460000  1.0
  C  C749  1  0.81240000  0.10620000  0.74950000  1.0
  C  C750  1  0.84260000  0.07550000  0.77800000  1.0
  C  C751  1  0.79480000  0.69430000  0.33170000  1.0
  C  C752  1  0.78840000  0.72700000  0.32420000  1.0
  C  C753  1  0.88140000  0.64320000  0.34470000  1.0
  C  C754  1  0.85990000  0.62280000  0.26460000  1.0
  C  C755  1  0.81240000  0.60620000  0.24950000  1.0
  C  C756  1  0.84260000  0.57550000  0.27800000  1.0
  C  C757  1  0.29480000  0.19430000  0.33170000  1.0
  C  C758  1  0.28840000  0.22700000  0.32420000  1.0
  C  C759  1  0.38140000  0.14320000  0.34470000  1.0
  C  C760  1  0.35990000  0.12280000  0.26460000  1.0
  C  C761  1  0.31240000  0.10620000  0.24950000  1.0
  C  C762  1  0.34260000  0.07550000  0.27800000  1.0
  C  C763  1  0.29480000  0.69430000  0.83170000  1.0
  C  C764  1  0.28840000  0.72700000  0.82420000  1.0
  C  C765  1  0.38140000  0.64320000  0.84470000  1.0
  C  C766  1  0.35990000  0.62280000  0.76460000  1.0
  C  C767  1  0.31240000  0.60620000  0.74950000  1.0
  C  C768  1  0.34260000  0.57550000  0.77800000  1.0
  C  C769  1  0.41830000  0.95520000  0.69430000  1.0
  C  C770  1  0.42580000  0.96160000  0.72700000  1.0
  C  C771  1  0.40530000  0.86860000  0.64320000  1.0
  C  C772  1  0.48540000  0.89010000  0.62280000  1.0
  C  C773  1  0.50050000  0.93760000  0.60620000  1.0
  C  C774  1  0.47200000  0.90740000  0.57550000  1.0
  C  C775  1  0.41830000  0.45520000  0.19430000  1.0
  C  C776  1  0.42580000  0.46160000  0.22700000  1.0
  C  C777  1  0.40530000  0.36860000  0.14320000  1.0
  C  C778  1  0.48540000  0.39010000  0.12280000  1.0
  C  C779  1  0.50050000  0.43760000  0.10620000  1.0
  C  C780  1  0.47200000  0.40740000  0.07550000  1.0
  C  C781  1  0.91830000  0.95520000  0.19430000  1.0
  C  C782  1  0.92580000  0.96160000  0.22700000  1.0
  C  C783  1  0.90530000  0.86860000  0.14320000  1.0
  C  C784  1  0.98540000  0.89010000  0.12280000  1.0
  C  C785  1  0.00050000  0.93760000  0.10620000  1.0
  C  C786  1  0.97200000  0.90740000  0.07550000  1.0
  C  C787  1  0.91830000  0.45520000  0.69430000  1.0
  C  C788  1  0.92580000  0.46160000  0.72700000  1.0
  C  C789  1  0.90530000  0.36860000  0.64320000  1.0
  C  C790  1  0.98540000  0.39010000  0.62280000  1.0
  C  C791  1  0.00050000  0.43760000  0.60620000  1.0
  C  C792  1  0.97200000  0.40740000  0.57550000  1.0
  C  C793  1  0.33170000  0.45520000  0.55570000  1.0
  C  C794  1  0.32420000  0.46160000  0.52300000  1.0
  C  C795  1  0.34470000  0.36860000  0.60680000  1.0
  C  C796  1  0.26460000  0.39010000  0.62720000  1.0
  C  C797  1  0.24950000  0.43760000  0.64380000  1.0
  C  C798  1  0.27800000  0.40740000  0.67450000  1.0
  C  C799  1  0.33170000  0.95520000  0.05570000  1.0
  C  C800  1  0.32420000  0.96160000  0.02300000  1.0
  C  C801  1  0.34470000  0.86860000  0.10680000  1.0
  C  C802  1  0.26460000  0.89010000  0.12720000  1.0
  C  C803  1  0.24950000  0.93760000  0.14380000  1.0
  C  C804  1  0.27800000  0.90740000  0.17450000  1.0
  C  C805  1  0.83170000  0.45520000  0.05570000  1.0
  C  C806  1  0.82420000  0.46160000  0.02300000  1.0
  C  C807  1  0.84470000  0.36860000  0.10680000  1.0
  C  C808  1  0.76460000  0.39010000  0.12720000  1.0
  C  C809  1  0.74950000  0.43760000  0.14380000  1.0
  C  C810  1  0.77800000  0.40740000  0.17450000  1.0
  C  C811  1  0.83170000  0.95520000  0.55570000  1.0
  C  C812  1  0.82420000  0.96160000  0.52300000  1.0
  C  C813  1  0.84470000  0.86860000  0.60680000  1.0
  C  C814  1  0.76460000  0.89010000  0.62720000  1.0
  C  C815  1  0.74950000  0.93760000  0.64380000  1.0
  C  C816  1  0.77800000  0.90740000  0.67450000  1.0
  C  C817  1  0.91830000  0.29480000  0.05570000  1.0
  C  C818  1  0.92580000  0.28840000  0.02300000  1.0
  C  C819  1  0.90530000  0.38140000  0.10680000  1.0
  C  C820  1  0.98540000  0.35990000  0.12720000  1.0
  C  C821  1  0.00050000  0.31240000  0.14380000  1.0
  C  C822  1  0.97200000  0.34260000  0.17450000  1.0
  C  C823  1  0.91830000  0.79480000  0.55570000  1.0
  C  C824  1  0.92580000  0.78840000  0.52300000  1.0
  C  C825  1  0.90530000  0.88140000  0.60680000  1.0
  C  C826  1  0.98540000  0.85990000  0.62720000  1.0
  C  C827  1  0.00050000  0.81240000  0.64380000  1.0
  C  C828  1  0.97200000  0.84260000  0.67450000  1.0
  C  C829  1  0.41830000  0.29480000  0.55570000  1.0
  C  C830  1  0.42580000  0.28840000  0.52300000  1.0
  C  C831  1  0.40530000  0.38140000  0.60680000  1.0
  C  C832  1  0.48540000  0.35990000  0.62720000  1.0
  C  C833  1  0.50050000  0.31240000  0.64380000  1.0
  C  C834  1  0.47200000  0.34260000  0.67450000  1.0
  C  C835  1  0.41830000  0.79480000  0.05570000  1.0
  C  C836  1  0.42580000  0.78840000  0.02300000  1.0
  C  C837  1  0.40530000  0.88140000  0.10680000  1.0
  C  C838  1  0.48540000  0.85990000  0.12720000  1.0
  C  C839  1  0.50050000  0.81240000  0.14380000  1.0
  C  C840  1  0.47200000  0.84260000  0.17450000  1.0
  C  C841  1  0.83170000  0.79480000  0.19430000  1.0
  C  C842  1  0.82420000  0.78840000  0.22700000  1.0
  C  C843  1  0.84470000  0.88140000  0.14320000  1.0
  C  C844  1  0.76460000  0.85990000  0.12280000  1.0
  C  C845  1  0.74950000  0.81240000  0.10620000  1.0
  C  C846  1  0.77800000  0.84260000  0.07550000  1.0
  C  C847  1  0.83170000  0.29480000  0.69430000  1.0
  C  C848  1  0.82420000  0.28840000  0.72700000  1.0
  C  C849  1  0.84470000  0.38140000  0.64320000  1.0
  C  C850  1  0.76460000  0.35990000  0.62280000  1.0
  C  C851  1  0.74950000  0.31240000  0.60620000  1.0
  C  C852  1  0.77800000  0.34260000  0.57550000  1.0
  C  C853  1  0.33170000  0.79480000  0.69430000  1.0
  C  C854  1  0.32420000  0.78840000  0.72700000  1.0
  C  C855  1  0.34470000  0.88140000  0.64320000  1.0
  C  C856  1  0.26460000  0.85990000  0.62280000  1.0
  C  C857  1  0.24950000  0.81240000  0.60620000  1.0
  C  C858  1  0.27800000  0.84260000  0.57550000  1.0
  C  C859  1  0.33170000  0.29480000  0.19430000  1.0
  C  C860  1  0.32420000  0.28840000  0.22700000  1.0
  C  C861  1  0.34470000  0.38140000  0.14320000  1.0
  C  C862  1  0.26460000  0.35990000  0.12280000  1.0
  C  C863  1  0.24950000  0.31240000  0.10620000  1.0
  C  C864  1  0.27800000  0.34260000  0.07550000  1.0
  C  C865  1  0.66830000  0.44430000  0.54480000  1.0
  C  C866  1  0.67580000  0.47700000  0.53840000  1.0
  C  C867  1  0.65530000  0.39320000  0.63140000  1.0
  C  C868  1  0.73540000  0.37280000  0.60990000  1.0
  C  C869  1  0.75050000  0.35620000  0.56240000  1.0
  C  C870  1  0.72200000  0.32550000  0.59260000  1.0
  C  C871  1  0.66830000  0.94430000  0.04480000  1.0
  C  C872  1  0.67580000  0.97700000  0.03840000  1.0
  C  C873  1  0.65530000  0.89320000  0.13140000  1.0
  C  C874  1  0.73540000  0.87280000  0.10990000  1.0
  C  C875  1  0.75050000  0.85620000  0.06240000  1.0
  C  C876  1  0.72200000  0.82550000  0.09260000  1.0
  C  C877  1  0.16830000  0.44430000  0.04480000  1.0
  C  C878  1  0.17580000  0.47700000  0.03840000  1.0
  C  C879  1  0.15530000  0.39320000  0.13140000  1.0
  C  C880  1  0.23540000  0.37280000  0.10990000  1.0
  C  C881  1  0.25050000  0.35620000  0.06240000  1.0
  C  C882  1  0.22200000  0.32550000  0.09260000  1.0
  C  C883  1  0.16830000  0.94430000  0.54480000  1.0
  C  C884  1  0.17580000  0.97700000  0.53840000  1.0
  C  C885  1  0.15530000  0.89320000  0.63140000  1.0
  C  C886  1  0.23540000  0.87280000  0.60990000  1.0
  C  C887  1  0.25050000  0.85620000  0.56240000  1.0
  C  C888  1  0.22200000  0.82550000  0.59260000  1.0
  C  C889  1  0.58170000  0.30570000  0.04480000  1.0
  C  C890  1  0.57420000  0.27300000  0.03840000  1.0
  C  C891  1  0.59470000  0.35680000  0.13140000  1.0
  C  C892  1  0.51460000  0.37720000  0.10990000  1.0
  C  C893  1  0.49950000  0.39380000  0.06240000  1.0
  C  C894  1  0.52800000  0.42450000  0.09260000  1.0
  C  C895  1  0.58170000  0.80570000  0.54480000  1.0
  C  C896  1  0.57420000  0.77300000  0.53840000  1.0
  C  C897  1  0.59470000  0.85680000  0.63140000  1.0
  C  C898  1  0.51460000  0.87720000  0.60990000  1.0
  C  C899  1  0.49950000  0.89380000  0.56240000  1.0
  C  C900  1  0.52800000  0.92450000  0.59260000  1.0
  C  C901  1  0.08170000  0.30570000  0.54480000  1.0
  C  C902  1  0.07420000  0.27300000  0.53840000  1.0
  C  C903  1  0.09470000  0.35680000  0.63140000  1.0
  C  C904  1  0.01460000  0.37720000  0.60990000  1.0
  C  C905  1  0.99950000  0.39380000  0.56240000  1.0
  C  C906  1  0.02800000  0.42450000  0.59260000  1.0
  C  C907  1  0.08170000  0.80570000  0.04480000  1.0
  C  C908  1  0.07420000  0.77300000  0.03840000  1.0
  C  C909  1  0.09470000  0.85680000  0.13140000  1.0
  C  C910  1  0.01460000  0.87720000  0.10990000  1.0
  C  C911  1  0.99950000  0.89380000  0.06240000  1.0
  C  C912  1  0.02800000  0.92450000  0.09260000  1.0
  C  C913  1  0.16830000  0.80570000  0.20520000  1.0
  C  C914  1  0.17580000  0.77300000  0.21160000  1.0
  C  C915  1  0.15530000  0.85680000  0.11860000  1.0
  C  C916  1  0.23540000  0.87720000  0.14010000  1.0
  C  C917  1  0.25050000  0.89380000  0.18760000  1.0
  C  C918  1  0.22200000  0.92450000  0.15740000  1.0
  C  C919  1  0.16830000  0.30570000  0.70520000  1.0
  C  C920  1  0.17580000  0.27300000  0.71160000  1.0
  C  C921  1  0.15530000  0.35680000  0.61860000  1.0
  C  C922  1  0.23540000  0.37720000  0.64010000  1.0
  C  C923  1  0.25050000  0.39380000  0.68760000  1.0
  C  C924  1  0.22200000  0.42450000  0.65740000  1.0
  C  C925  1  0.66830000  0.80570000  0.70520000  1.0
  C  C926  1  0.67580000  0.77300000  0.71160000  1.0
  C  C927  1  0.65530000  0.85680000  0.61860000  1.0
  C  C928  1  0.73540000  0.87720000  0.64010000  1.0
  C  C929  1  0.75050000  0.89380000  0.68760000  1.0
  C  C930  1  0.72200000  0.92450000  0.65740000  1.0
  C  C931  1  0.66830000  0.30570000  0.20520000  1.0
  C  C932  1  0.67580000  0.27300000  0.21160000  1.0
  C  C933  1  0.65530000  0.35680000  0.11860000  1.0
  C  C934  1  0.73540000  0.37720000  0.14010000  1.0
  C  C935  1  0.75050000  0.39380000  0.18760000  1.0
  C  C936  1  0.72200000  0.42450000  0.15740000  1.0
  C  C937  1  0.08170000  0.94430000  0.70520000  1.0
  C  C938  1  0.07420000  0.97700000  0.71160000  1.0
  C  C939  1  0.09470000  0.89320000  0.61860000  1.0
  C  C940  1  0.01460000  0.87280000  0.64010000  1.0
  C  C941  1  0.99950000  0.85620000  0.68760000  1.0
  C  C942  1  0.02800000  0.82550000  0.65740000  1.0
  C  C943  1  0.08170000  0.44430000  0.20520000  1.0
  C  C944  1  0.07420000  0.47700000  0.21160000  1.0
  C  C945  1  0.09470000  0.39320000  0.11860000  1.0
  C  C946  1  0.01460000  0.37280000  0.14010000  1.0
  C  C947  1  0.99950000  0.35620000  0.18760000  1.0
  C  C948  1  0.02800000  0.32550000  0.15740000  1.0
  C  C949  1  0.58170000  0.94430000  0.20520000  1.0
  C  C950  1  0.57420000  0.97700000  0.21160000  1.0
  C  C951  1  0.59470000  0.89320000  0.11860000  1.0
  C  C952  1  0.51460000  0.87280000  0.14010000  1.0
  C  C953  1  0.49950000  0.85620000  0.18760000  1.0
  C  C954  1  0.52800000  0.82550000  0.15740000  1.0
  C  C955  1  0.58170000  0.44430000  0.70520000  1.0
  C  C956  1  0.57420000  0.47700000  0.71160000  1.0
  C  C957  1  0.59470000  0.39320000  0.61860000  1.0
  C  C958  1  0.51460000  0.37280000  0.64010000  1.0
  C  C959  1  0.49950000  0.35620000  0.68760000  1.0
  C  C960  1  0.52800000  0.32550000  0.65740000  1.0
  C  C961  1  0.94430000  0.70520000  0.08170000  1.0
  C  C962  1  0.97700000  0.71160000  0.07420000  1.0
  C  C963  1  0.89320000  0.61860000  0.09470000  1.0
  C  C964  1  0.87280000  0.64010000  0.01460000  1.0
  C  C965  1  0.85620000  0.68760000  0.99950000  1.0
  C  C966  1  0.82550000  0.65740000  0.02800000  1.0
  C  C967  1  0.94430000  0.20520000  0.58170000  1.0
  C  C968  1  0.97700000  0.21160000  0.57420000  1.0
  C  C969  1  0.89320000  0.11860000  0.59470000  1.0
  C  C970  1  0.87280000  0.14010000  0.51460000  1.0
  C  C971  1  0.85620000  0.18760000  0.49950000  1.0
  C  C972  1  0.82550000  0.15740000  0.52800000  1.0
  C  C973  1  0.44430000  0.70520000  0.58170000  1.0
  C  C974  1  0.47700000  0.71160000  0.57420000  1.0
  C  C975  1  0.39320000  0.61860000  0.59470000  1.0
  C  C976  1  0.37280000  0.64010000  0.51460000  1.0
  C  C977  1  0.35620000  0.68760000  0.49950000  1.0
  C  C978  1  0.32550000  0.65740000  0.52800000  1.0
  C  C979  1  0.44430000  0.20520000  0.08170000  1.0
  C  C980  1  0.47700000  0.21160000  0.07420000  1.0
  C  C981  1  0.39320000  0.11860000  0.09470000  1.0
  C  C982  1  0.37280000  0.14010000  0.01460000  1.0
  C  C983  1  0.35620000  0.18760000  0.99950000  1.0
  C  C984  1  0.32550000  0.15740000  0.02800000  1.0
  C  C985  1  0.80570000  0.20520000  0.16830000  1.0
  C  C986  1  0.77300000  0.21160000  0.17580000  1.0
  C  C987  1  0.85680000  0.11860000  0.15530000  1.0
  C  C988  1  0.87720000  0.14010000  0.23540000  1.0
  C  C989  1  0.89380000  0.18760000  0.25050000  1.0
  C  C990  1  0.92450000  0.15740000  0.22200000  1.0
  C  C991  1  0.80570000  0.70520000  0.66830000  1.0
  C  C992  1  0.77300000  0.71160000  0.67580000  1.0
  C  C993  1  0.85680000  0.61860000  0.65530000  1.0
  C  C994  1  0.87720000  0.64010000  0.73540000  1.0
  C  C995  1  0.89380000  0.68760000  0.75050000  1.0
  C  C996  1  0.92450000  0.65740000  0.72200000  1.0
  C  C997  1  0.30570000  0.20520000  0.66830000  1.0
  C  C998  1  0.27300000  0.21160000  0.67580000  1.0
  C  C999  1  0.35680000  0.11860000  0.65530000  1.0
  C  C1000  1  0.37720000  0.14010000  0.73540000  1.0
  C  C1001  1  0.39380000  0.18760000  0.75050000  1.0
  C  C1002  1  0.42450000  0.15740000  0.72200000  1.0
  C  C1003  1  0.30570000  0.70520000  0.16830000  1.0
  C  C1004  1  0.27300000  0.71160000  0.17580000  1.0
  C  C1005  1  0.35680000  0.61860000  0.15530000  1.0
  C  C1006  1  0.37720000  0.64010000  0.23540000  1.0
  C  C1007  1  0.39380000  0.68760000  0.25050000  1.0
  C  C1008  1  0.42450000  0.65740000  0.22200000  1.0
  C  C1009  1  0.30570000  0.04480000  0.58170000  1.0
  C  C1010  1  0.27300000  0.03840000  0.57420000  1.0
  C  C1011  1  0.35680000  0.13140000  0.59470000  1.0
  C  C1012  1  0.37720000  0.10990000  0.51460000  1.0
  C  C1013  1  0.39380000  0.06240000  0.49950000  1.0
  C  C1014  1  0.42450000  0.09260000  0.52800000  1.0
  C  C1015  1  0.30570000  0.54480000  0.08170000  1.0
  C  C1016  1  0.27300000  0.53840000  0.07420000  1.0
  C  C1017  1  0.35680000  0.63140000  0.09470000  1.0
  C  C1018  1  0.37720000  0.60990000  0.01460000  1.0
  C  C1019  1  0.39380000  0.56240000  0.99950000  1.0
  C  C1020  1  0.42450000  0.59260000  0.02800000  1.0
  C  C1021  1  0.80570000  0.04480000  0.08170000  1.0
  C  C1022  1  0.77300000  0.03840000  0.07420000  1.0
  C  C1023  1  0.85680000  0.13140000  0.09470000  1.0
  C  C1024  1  0.87720000  0.10990000  0.01460000  1.0
  C  C1025  1  0.89380000  0.06240000  0.99950000  1.0
  C  C1026  1  0.92450000  0.09260000  0.02800000  1.0
  C  C1027  1  0.80570000  0.54480000  0.58170000  1.0
  C  C1028  1  0.77300000  0.53840000  0.57420000  1.0
  C  C1029  1  0.85680000  0.63140000  0.59470000  1.0
  C  C1030  1  0.87720000  0.60990000  0.51460000  1.0
  C  C1031  1  0.89380000  0.56240000  0.49950000  1.0
  C  C1032  1  0.92450000  0.59260000  0.52800000  1.0
  C  C1033  1  0.44430000  0.54480000  0.66830000  1.0
  C  C1034  1  0.47700000  0.53840000  0.67580000  1.0
  C  C1035  1  0.39320000  0.63140000  0.65530000  1.0
  C  C1036  1  0.37280000  0.60990000  0.73540000  1.0
  C  C1037  1  0.35620000  0.56240000  0.75050000  1.0
  C  C1038  1  0.32550000  0.59260000  0.72200000  1.0
  C  C1039  1  0.44430000  0.04480000  0.16830000  1.0
  C  C1040  1  0.47700000  0.03840000  0.17580000  1.0
  C  C1041  1  0.39320000  0.13140000  0.15530000  1.0
  C  C1042  1  0.37280000  0.10990000  0.23540000  1.0
  C  C1043  1  0.35620000  0.06240000  0.25050000  1.0
  C  C1044  1  0.32550000  0.09260000  0.22200000  1.0
  C  C1045  1  0.94430000  0.54480000  0.16830000  1.0
  C  C1046  1  0.97700000  0.53840000  0.17580000  1.0
  C  C1047  1  0.89320000  0.63140000  0.15530000  1.0
  C  C1048  1  0.87280000  0.60990000  0.23540000  1.0
  C  C1049  1  0.85620000  0.56240000  0.25050000  1.0
  C  C1050  1  0.82550000  0.59260000  0.22200000  1.0
  C  C1051  1  0.94430000  0.04480000  0.66830000  1.0
  C  C1052  1  0.97700000  0.03840000  0.67580000  1.0
  C  C1053  1  0.89320000  0.13140000  0.65530000  1.0
  C  C1054  1  0.87280000  0.10990000  0.73540000  1.0
  C  C1055  1  0.85620000  0.06240000  0.75050000  1.0
  C  C1056  1  0.82550000  0.09260000  0.72200000  1.0
  C  C1057  1  0.20520000  0.16830000  0.80570000  1.0
  C  C1058  1  0.21160000  0.17580000  0.77300000  1.0
  C  C1059  1  0.11860000  0.15530000  0.85680000  1.0
  C  C1060  1  0.14010000  0.23540000  0.87720000  1.0
  C  C1061  1  0.18760000  0.25050000  0.89380000  1.0
  C  C1062  1  0.15740000  0.22200000  0.92450000  1.0
  C  C1063  1  0.20520000  0.66830000  0.30570000  1.0
  C  C1064  1  0.21160000  0.67580000  0.27300000  1.0
  C  C1065  1  0.11860000  0.65530000  0.35680000  1.0
  C  C1066  1  0.14010000  0.73540000  0.37720000  1.0
  C  C1067  1  0.18760000  0.75050000  0.39380000  1.0
  C  C1068  1  0.15740000  0.72200000  0.42450000  1.0
  C  C1069  1  0.70520000  0.16830000  0.30570000  1.0
  C  C1070  1  0.71160000  0.17580000  0.27300000  1.0
  C  C1071  1  0.61860000  0.15530000  0.35680000  1.0
  C  C1072  1  0.64010000  0.23540000  0.37720000  1.0
  C  C1073  1  0.68760000  0.25050000  0.39380000  1.0
  C  C1074  1  0.65740000  0.22200000  0.42450000  1.0
  C  C1075  1  0.70520000  0.66830000  0.80570000  1.0
  C  C1076  1  0.71160000  0.67580000  0.77300000  1.0
  C  C1077  1  0.61860000  0.65530000  0.85680000  1.0
  C  C1078  1  0.64010000  0.73540000  0.87720000  1.0
  C  C1079  1  0.68760000  0.75050000  0.89380000  1.0
  C  C1080  1  0.65740000  0.72200000  0.92450000  1.0
  C  C1081  1  0.70520000  0.08170000  0.94430000  1.0
  C  C1082  1  0.71160000  0.07420000  0.97700000  1.0
  C  C1083  1  0.61860000  0.09470000  0.89320000  1.0
  C  C1084  1  0.64010000  0.01460000  0.87280000  1.0
  C  C1085  1  0.68760000  0.99950000  0.85620000  1.0
  C  C1086  1  0.65740000  0.02800000  0.82550000  1.0
  C  C1087  1  0.70520000  0.58170000  0.44430000  1.0
  C  C1088  1  0.71160000  0.57420000  0.47700000  1.0
  C  C1089  1  0.61860000  0.59470000  0.39320000  1.0
  C  C1090  1  0.64010000  0.51460000  0.37280000  1.0
  C  C1091  1  0.68760000  0.49950000  0.35620000  1.0
  C  C1092  1  0.65740000  0.52800000  0.32550000  1.0
  C  C1093  1  0.20520000  0.08170000  0.44430000  1.0
  C  C1094  1  0.21160000  0.07420000  0.47700000  1.0
  C  C1095  1  0.11860000  0.09470000  0.39320000  1.0
  C  C1096  1  0.14010000  0.01460000  0.37280000  1.0
  C  C1097  1  0.18760000  0.99950000  0.35620000  1.0
  C  C1098  1  0.15740000  0.02800000  0.32550000  1.0
  C  C1099  1  0.20520000  0.58170000  0.94430000  1.0
  C  C1100  1  0.21160000  0.57420000  0.97700000  1.0
  C  C1101  1  0.11860000  0.59470000  0.89320000  1.0
  C  C1102  1  0.14010000  0.51460000  0.87280000  1.0
  C  C1103  1  0.18760000  0.49950000  0.85620000  1.0
  C  C1104  1  0.15740000  0.52800000  0.82550000  1.0
  C  C1105  1  0.54480000  0.66830000  0.44430000  1.0
  C  C1106  1  0.53840000  0.67580000  0.47700000  1.0
  C  C1107  1  0.63140000  0.65530000  0.39320000  1.0
  C  C1108  1  0.60990000  0.73540000  0.37280000  1.0
  C  C1109  1  0.56240000  0.75050000  0.35620000  1.0
  C  C1110  1  0.59260000  0.72200000  0.32550000  1.0
  C  C1111  1  0.54480000  0.16830000  0.94430000  1.0
  C  C1112  1  0.53840000  0.17580000  0.97700000  1.0
  C  C1113  1  0.63140000  0.15530000  0.89320000  1.0
  C  C1114  1  0.60990000  0.23540000  0.87280000  1.0
  C  C1115  1  0.56240000  0.25050000  0.85620000  1.0
  C  C1116  1  0.59260000  0.22200000  0.82550000  1.0
  C  C1117  1  0.04480000  0.66830000  0.94430000  1.0
  C  C1118  1  0.03840000  0.67580000  0.97700000  1.0
  C  C1119  1  0.13140000  0.65530000  0.89320000  1.0
  C  C1120  1  0.10990000  0.73540000  0.87280000  1.0
  C  C1121  1  0.06240000  0.75050000  0.85620000  1.0
  C  C1122  1  0.09260000  0.72200000  0.82550000  1.0
  C  C1123  1  0.04480000  0.16830000  0.44430000  1.0
  C  C1124  1  0.03840000  0.17580000  0.47700000  1.0
  C  C1125  1  0.13140000  0.15530000  0.39320000  1.0
  C  C1126  1  0.10990000  0.23540000  0.37280000  1.0
  C  C1127  1  0.06240000  0.25050000  0.35620000  1.0
  C  C1128  1  0.09260000  0.22200000  0.32550000  1.0
  C  C1129  1  0.04480000  0.58170000  0.30570000  1.0
  C  C1130  1  0.03840000  0.57420000  0.27300000  1.0
  C  C1131  1  0.13140000  0.59470000  0.35680000  1.0
  C  C1132  1  0.10990000  0.51460000  0.37720000  1.0
  C  C1133  1  0.06240000  0.49950000  0.39380000  1.0
  C  C1134  1  0.09260000  0.52800000  0.42450000  1.0
  C  C1135  1  0.04480000  0.08170000  0.80570000  1.0
  C  C1136  1  0.03840000  0.07420000  0.77300000  1.0
  C  C1137  1  0.13140000  0.09470000  0.85680000  1.0
  C  C1138  1  0.10990000  0.01460000  0.87720000  1.0
  C  C1139  1  0.06240000  0.99950000  0.89380000  1.0
  C  C1140  1  0.09260000  0.02800000  0.92450000  1.0
  C  C1141  1  0.54480000  0.58170000  0.80570000  1.0
  C  C1142  1  0.53840000  0.57420000  0.77300000  1.0
  C  C1143  1  0.63140000  0.59470000  0.85680000  1.0
  C  C1144  1  0.60990000  0.51460000  0.87720000  1.0
  C  C1145  1  0.56240000  0.49950000  0.89380000  1.0
  C  C1146  1  0.59260000  0.52800000  0.92450000  1.0
  C  C1147  1  0.54480000  0.08170000  0.30570000  1.0
  C  C1148  1  0.53840000  0.07420000  0.27300000  1.0
  C  C1149  1  0.63140000  0.09470000  0.35680000  1.0
  C  C1150  1  0.60990000  0.01460000  0.37720000  1.0
  C  C1151  1  0.56240000  0.99950000  0.39380000  1.0
  C  C1152  1  0.59260000  0.02800000  0.42450000  1.0
  C  C1153  1  0.17350000  0.61370000  0.07650000  1.0
  C  C1154  1  0.19350000  0.59340000  0.05650000  1.0
  C  C1155  1  0.17350000  0.11370000  0.57650000  1.0
  C  C1156  1  0.19350000  0.09340000  0.55650000  1.0
  C  C1157  1  0.67350000  0.11370000  0.07650000  1.0
  C  C1158  1  0.69350000  0.09340000  0.05650000  1.0
  C  C1159  1  0.57650000  0.63630000  0.57650000  1.0
  C  C1160  1  0.55650000  0.65660000  0.55650000  1.0
  C  C1161  1  0.57650000  0.13630000  0.07650000  1.0
  C  C1162  1  0.55650000  0.15660000  0.05650000  1.0
  C  C1163  1  0.07650000  0.63630000  0.07650000  1.0
  C  C1164  1  0.05650000  0.65660000  0.05650000  1.0
  C  C1165  1  0.07650000  0.13630000  0.57650000  1.0
  C  C1166  1  0.05650000  0.15660000  0.55650000  1.0
  C  C1167  1  0.07650000  0.11370000  0.67350000  1.0
  C  C1168  1  0.05650000  0.09340000  0.69350000  1.0
  C  C1169  1  0.57650000  0.11370000  0.17350000  1.0
  C  C1170  1  0.55650000  0.09340000  0.19350000  1.0
  C  C1171  1  0.67350000  0.13630000  0.17350000  1.0
  C  C1172  1  0.69350000  0.15660000  0.19350000  1.0
  C  C1173  1  0.67350000  0.63630000  0.67350000  1.0
  C  C1174  1  0.69350000  0.65660000  0.69350000  1.0
  C  C1175  1  0.07650000  0.17350000  0.61370000  1.0
  C  C1176  1  0.05650000  0.19350000  0.59340000  1.0
  C  C1177  1  0.07650000  0.67350000  0.11370000  1.0
  C  C1178  1  0.05650000  0.69350000  0.09340000  1.0
  C  C1179  1  0.57650000  0.17350000  0.11370000  1.0
  C  C1180  1  0.55650000  0.19350000  0.09340000  1.0
  C  C1181  1  0.57650000  0.57650000  0.63630000  1.0
  C  C1182  1  0.55650000  0.55650000  0.65660000  1.0
  C  C1183  1  0.57650000  0.07650000  0.13630000  1.0
  C  C1184  1  0.55650000  0.05650000  0.15660000  1.0
  C  C1185  1  0.07650000  0.57650000  0.13630000  1.0
  C  C1186  1  0.05650000  0.55650000  0.15660000  1.0
  C  C1187  1  0.07650000  0.07650000  0.63630000  1.0
  C  C1188  1  0.05650000  0.05650000  0.65660000  1.0
  C  C1189  1  0.67350000  0.07650000  0.11370000  1.0
  C  C1190  1  0.69350000  0.05650000  0.09340000  1.0
  C  C1191  1  0.67350000  0.57650000  0.61370000  1.0
  C  C1192  1  0.69350000  0.55650000  0.59340000  1.0
  C  C1193  1  0.17350000  0.67350000  0.13630000  1.0
  C  C1194  1  0.19350000  0.69350000  0.15660000  1.0
  C  C1195  1  0.17350000  0.17350000  0.63630000  1.0
  C  C1196  1  0.19350000  0.19350000  0.65660000  1.0
  C  C1197  1  0.67350000  0.67350000  0.63630000  1.0
  C  C1198  1  0.69350000  0.69350000  0.65660000  1.0
  C  C1199  1  0.61370000  0.07650000  0.17350000  1.0
  C  C1200  1  0.59340000  0.05650000  0.19350000  1.0
  C  C1201  1  0.61370000  0.57650000  0.67350000  1.0
  C  C1202  1  0.59340000  0.55650000  0.69350000  1.0
  C  C1203  1  0.11370000  0.07650000  0.67350000  1.0
  C  C1204  1  0.09340000  0.05650000  0.69350000  1.0
  C  C1205  1  0.63630000  0.57650000  0.57650000  1.0
  C  C1206  1  0.65660000  0.55650000  0.55650000  1.0
  C  C1207  1  0.63630000  0.07650000  0.07650000  1.0
  C  C1208  1  0.65660000  0.05650000  0.05650000  1.0
  C  C1209  1  0.13630000  0.57650000  0.07650000  1.0
  C  C1210  1  0.15660000  0.55650000  0.05650000  1.0
  C  C1211  1  0.13630000  0.07650000  0.57650000  1.0
  C  C1212  1  0.15660000  0.05650000  0.55650000  1.0
  C  C1213  1  0.11370000  0.67350000  0.07650000  1.0
  C  C1214  1  0.09340000  0.69350000  0.05650000  1.0
  C  C1215  1  0.11370000  0.17350000  0.57650000  1.0
  C  C1216  1  0.09340000  0.19350000  0.55650000  1.0
  C  C1217  1  0.13630000  0.17350000  0.67350000  1.0
  C  C1218  1  0.15660000  0.19350000  0.69350000  1.0
  C  C1219  1  0.63630000  0.17350000  0.17350000  1.0
  C  C1220  1  0.65660000  0.19350000  0.19350000  1.0
  C  C1221  1  0.63630000  0.67350000  0.67350000  1.0
  C  C1222  1  0.65660000  0.69350000  0.69350000  1.0
  C  C1223  1  0.36370000  0.42350000  0.42350000  1.0
  C  C1224  1  0.34340000  0.44350000  0.44350000  1.0
  C  C1225  1  0.36370000  0.92350000  0.92350000  1.0
  C  C1226  1  0.34340000  0.94350000  0.94350000  1.0
  C  C1227  1  0.86370000  0.42350000  0.92350000  1.0
  C  C1228  1  0.84340000  0.44350000  0.94350000  1.0
  C  C1229  1  0.86370000  0.92350000  0.42350000  1.0
  C  C1230  1  0.84340000  0.94350000  0.44350000  1.0
  C  C1231  1  0.38630000  0.82650000  0.92350000  1.0
  C  C1232  1  0.40660000  0.80650000  0.94350000  1.0
  C  C1233  1  0.38630000  0.32650000  0.42350000  1.0
  C  C1234  1  0.40660000  0.30650000  0.44350000  1.0
  C  C1235  1  0.86370000  0.32650000  0.82650000  1.0
  C  C1236  1  0.84340000  0.30650000  0.80650000  1.0
  C  C1237  1  0.36370000  0.32650000  0.32650000  1.0
  C  C1238  1  0.34340000  0.30650000  0.30650000  1.0
  C  C1239  1  0.36370000  0.82650000  0.82650000  1.0
  C  C1240  1  0.34340000  0.80650000  0.80650000  1.0
  C  C1241  1  0.88630000  0.92350000  0.32650000  1.0
  C  C1242  1  0.90660000  0.94350000  0.30650000  1.0
  C  C1243  1  0.88630000  0.42350000  0.82650000  1.0
  C  C1244  1  0.90660000  0.44350000  0.80650000  1.0
  C  C1245  1  0.92350000  0.32650000  0.88630000  1.0
  C  C1246  1  0.94350000  0.30650000  0.90660000  1.0
  C  C1247  1  0.42350000  0.32650000  0.38630000  1.0
  C  C1248  1  0.44350000  0.30650000  0.40660000  1.0
  C  C1249  1  0.32650000  0.82650000  0.86370000  1.0
  C  C1250  1  0.30650000  0.80650000  0.84340000  1.0
  C  C1251  1  0.32650000  0.32650000  0.36370000  1.0
  C  C1252  1  0.30650000  0.30650000  0.34340000  1.0
  C  C1253  1  0.82650000  0.82650000  0.36370000  1.0
  C  C1254  1  0.80650000  0.80650000  0.34340000  1.0
  C  C1255  1  0.82650000  0.92350000  0.38630000  1.0
  C  C1256  1  0.80650000  0.94350000  0.40660000  1.0
  C  C1257  1  0.82650000  0.42350000  0.88630000  1.0
  C  C1258  1  0.80650000  0.44350000  0.90660000  1.0
  C  C1259  1  0.42350000  0.42350000  0.36370000  1.0
  C  C1260  1  0.44350000  0.44350000  0.34340000  1.0
  C  C1261  1  0.42350000  0.92350000  0.86370000  1.0
  C  C1262  1  0.44350000  0.94350000  0.84340000  1.0
  C  C1263  1  0.92350000  0.42350000  0.86370000  1.0
  C  C1264  1  0.94350000  0.44350000  0.84340000  1.0
  C  C1265  1  0.92350000  0.92350000  0.36370000  1.0
  C  C1266  1  0.94350000  0.94350000  0.34340000  1.0
  C  C1267  1  0.82650000  0.86370000  0.32650000  1.0
  C  C1268  1  0.80650000  0.84340000  0.30650000  1.0
  C  C1269  1  0.82650000  0.36370000  0.82650000  1.0
  C  C1270  1  0.80650000  0.34340000  0.80650000  1.0
  C  C1271  1  0.32650000  0.88630000  0.92350000  1.0
  C  C1272  1  0.30650000  0.90660000  0.94350000  1.0
  C  C1273  1  0.32650000  0.38630000  0.42350000  1.0
  C  C1274  1  0.30650000  0.40660000  0.44350000  1.0
  C  C1275  1  0.42350000  0.36370000  0.42350000  1.0
  C  C1276  1  0.44350000  0.34340000  0.44350000  1.0
  C  C1277  1  0.42350000  0.86370000  0.92350000  1.0
  C  C1278  1  0.44350000  0.84340000  0.94350000  1.0
  C  C1279  1  0.92350000  0.36370000  0.92350000  1.0
  C  C1280  1  0.94350000  0.34340000  0.94350000  1.0
  C  C1281  1  0.92350000  0.86370000  0.42350000  1.0
  C  C1282  1  0.94350000  0.84340000  0.44350000  1.0
  C  C1283  1  0.92350000  0.38630000  0.82650000  1.0
  C  C1284  1  0.94350000  0.40660000  0.80650000  1.0
  C  C1285  1  0.42350000  0.38630000  0.32650000  1.0
  C  C1286  1  0.44350000  0.40660000  0.30650000  1.0
  C  C1287  1  0.82650000  0.38630000  0.92350000  1.0
  C  C1288  1  0.80650000  0.40660000  0.94350000  1.0
  C  C1289  1  0.82650000  0.88630000  0.42350000  1.0
  C  C1290  1  0.80650000  0.90660000  0.44350000  1.0
  C  C1291  1  0.92350000  0.88630000  0.32650000  1.0
  C  C1292  1  0.94350000  0.90660000  0.30650000  1.0
  C  C1293  1  0.42350000  0.88630000  0.82650000  1.0
  C  C1294  1  0.44350000  0.90660000  0.80650000  1.0
  C  C1295  1  0.32650000  0.86370000  0.82650000  1.0
  C  C1296  1  0.30650000  0.84340000  0.80650000  1.0
  C  C1297  1  0.32650000  0.36370000  0.32650000  1.0
  C  C1298  1  0.30650000  0.34340000  0.30650000  1.0
  C  C1299  1  0.92350000  0.82650000  0.38630000  1.0
  C  C1300  1  0.94350000  0.80650000  0.40660000  1.0
  C  C1301  1  0.42350000  0.82650000  0.88630000  1.0
  C  C1302  1  0.44350000  0.80650000  0.90660000  1.0
  C  C1303  1  0.32650000  0.92350000  0.88630000  1.0
  C  C1304  1  0.30650000  0.94350000  0.90660000  1.0
  C  C1305  1  0.32650000  0.42350000  0.38630000  1.0
  C  C1306  1  0.30650000  0.44350000  0.40660000  1.0
  C  C1307  1  0.82650000  0.32650000  0.86370000  1.0
  C  C1308  1  0.80650000  0.30650000  0.84340000  1.0
  C  C1309  1  0.38630000  0.92350000  0.82650000  1.0
  C  C1310  1  0.40660000  0.94350000  0.80650000  1.0
  C  C1311  1  0.38630000  0.42350000  0.32650000  1.0
  C  C1312  1  0.40660000  0.44350000  0.30650000  1.0
  C  C1313  1  0.88630000  0.32650000  0.92350000  1.0
  C  C1314  1  0.90660000  0.30650000  0.94350000  1.0
  C  C1315  1  0.88630000  0.82650000  0.42350000  1.0
  C  C1316  1  0.90660000  0.80650000  0.44350000  1.0
  C  C1317  1  0.86370000  0.82650000  0.32650000  1.0
  C  C1318  1  0.84340000  0.80650000  0.30650000  1.0
  C  C1319  1  0.61370000  0.17350000  0.07650000  1.0
  C  C1320  1  0.59340000  0.19350000  0.05650000  1.0
  C  C1321  1  0.61370000  0.67350000  0.57650000  1.0
  C  C1322  1  0.59340000  0.69350000  0.55650000  1.0
  C  C1323  1  0.13630000  0.67350000  0.17350000  1.0
  C  C1324  1  0.15660000  0.69350000  0.19350000  1.0
  C  C1325  1  0.11370000  0.57650000  0.17350000  1.0
  C  C1326  1  0.09340000  0.55650000  0.19350000  1.0
  C  C1327  1  0.57650000  0.67350000  0.61370000  1.0
  C  C1328  1  0.55650000  0.69350000  0.59340000  1.0
  C  C1329  1  0.67350000  0.17350000  0.13630000  1.0
  C  C1330  1  0.69350000  0.19350000  0.15660000  1.0
  C  C1331  1  0.17350000  0.07650000  0.61370000  1.0
  C  C1332  1  0.19350000  0.05650000  0.59340000  1.0
  C  C1333  1  0.17350000  0.57650000  0.11370000  1.0
  C  C1334  1  0.19350000  0.55650000  0.09340000  1.0
  C  C1335  1  0.17350000  0.13630000  0.67350000  1.0
  C  C1336  1  0.19350000  0.15660000  0.69350000  1.0
  C  C1337  1  0.17350000  0.63630000  0.17350000  1.0
  C  C1338  1  0.19350000  0.65660000  0.19350000  1.0
  C  C1339  1  0.67350000  0.61370000  0.57650000  1.0
  C  C1340  1  0.69350000  0.59340000  0.55650000  1.0
  C  C1341  1  0.07650000  0.61370000  0.17350000  1.0
  C  C1342  1  0.05650000  0.59340000  0.19350000  1.0
  C  C1343  1  0.57650000  0.61370000  0.67350000  1.0
  C  C1344  1  0.55650000  0.59340000  0.69350000  1.0
  C  C1345  1  0.28680000  0.52560000  0.02560000  1.0
  C  C1346  1  0.31930000  0.53310000  0.03310000  1.0
  C  C1347  1  0.40270000  0.61360000  0.11360000  1.0
  C  C1348  1  0.78680000  0.52560000  0.52560000  1.0
  C  C1349  1  0.81930000  0.53310000  0.53310000  1.0
  C  C1350  1  0.90270000  0.61360000  0.61360000  1.0
  C  C1351  1  0.46320000  0.72440000  0.52560000  1.0
  C  C1352  1  0.43070000  0.71690000  0.53310000  1.0
  C  C1353  1  0.34730000  0.63640000  0.61360000  1.0
  C  C1354  1  0.46320000  0.22440000  0.02560000  1.0
  C  C1355  1  0.43070000  0.21690000  0.03310000  1.0
  C  C1356  1  0.34730000  0.13640000  0.11360000  1.0
  C  C1357  1  0.96320000  0.02560000  0.72440000  1.0
  C  C1358  1  0.93070000  0.03310000  0.71690000  1.0
  C  C1359  1  0.84730000  0.11360000  0.63640000  1.0
  C  C1360  1  0.96320000  0.52560000  0.22440000  1.0
  C  C1361  1  0.93070000  0.53310000  0.21690000  1.0
  C  C1362  1  0.84730000  0.61360000  0.13640000  1.0
  C  C1363  1  0.78680000  0.22440000  0.22440000  1.0
  C  C1364  1  0.81930000  0.21690000  0.21690000  1.0
  C  C1365  1  0.90270000  0.13640000  0.13640000  1.0
  C  C1366  1  0.78680000  0.72440000  0.72440000  1.0
  C  C1367  1  0.81930000  0.71690000  0.71690000  1.0
  C  C1368  1  0.90270000  0.63640000  0.63640000  1.0
  C  C1369  1  0.28680000  0.22440000  0.72440000  1.0
  C  C1370  1  0.31930000  0.21690000  0.71690000  1.0
  C  C1371  1  0.40270000  0.13640000  0.63640000  1.0
  C  C1372  1  0.28680000  0.72440000  0.22440000  1.0
  C  C1373  1  0.31930000  0.71690000  0.21690000  1.0
  C  C1374  1  0.40270000  0.63640000  0.13640000  1.0
  C  C1375  1  0.02560000  0.28680000  0.52560000  1.0
  C  C1376  1  0.03310000  0.31930000  0.53310000  1.0
  C  C1377  1  0.11360000  0.40270000  0.61360000  1.0
  C  C1378  1  0.02560000  0.78680000  0.02560000  1.0
  C  C1379  1  0.03310000  0.81930000  0.03310000  1.0
  C  C1380  1  0.11360000  0.90270000  0.11360000  1.0
  C  C1381  1  0.52560000  0.78680000  0.52560000  1.0
  C  C1382  1  0.53310000  0.81930000  0.53310000  1.0
  C  C1383  1  0.61360000  0.90270000  0.61360000  1.0
  C  C1384  1  0.52560000  0.46320000  0.72440000  1.0
  C  C1385  1  0.53310000  0.43070000  0.71690000  1.0
  C  C1386  1  0.61360000  0.34730000  0.63640000  1.0
  C  C1387  1  0.52560000  0.96320000  0.22440000  1.0
  C  C1388  1  0.53310000  0.93070000  0.21690000  1.0
  C  C1389  1  0.61360000  0.84730000  0.13640000  1.0
  C  C1390  1  0.72440000  0.96320000  0.02560000  1.0
  C  C1391  1  0.71690000  0.93070000  0.03310000  1.0
  C  C1392  1  0.63640000  0.84730000  0.11360000  1.0
  C  C1393  1  0.22440000  0.96320000  0.52560000  1.0
  C  C1394  1  0.21690000  0.93070000  0.53310000  1.0
  C  C1395  1  0.13640000  0.84730000  0.61360000  1.0
  C  C1396  1  0.22440000  0.78680000  0.22440000  1.0
  C  C1397  1  0.21690000  0.81930000  0.21690000  1.0
  C  C1398  1  0.13640000  0.90270000  0.13640000  1.0
  C  C1399  1  0.22440000  0.28680000  0.72440000  1.0
  C  C1400  1  0.21690000  0.31930000  0.71690000  1.0
  C  C1401  1  0.13640000  0.40270000  0.63640000  1.0
  C  C1402  1  0.72440000  0.78680000  0.72440000  1.0
  C  C1403  1  0.71690000  0.81930000  0.71690000  1.0
  C  C1404  1  0.63640000  0.90270000  0.63640000  1.0
  C  C1405  1  0.72440000  0.28680000  0.22440000  1.0
  C  C1406  1  0.71690000  0.31930000  0.21690000  1.0
  C  C1407  1  0.63640000  0.40270000  0.13640000  1.0
  C  C1408  1  0.52560000  0.02560000  0.28680000  1.0
  C  C1409  1  0.53310000  0.03310000  0.31930000  1.0
  C  C1410  1  0.61360000  0.11360000  0.40270000  1.0
  C  C1411  1  0.52560000  0.52560000  0.78680000  1.0
  C  C1412  1  0.53310000  0.53310000  0.81930000  1.0
  C  C1413  1  0.61360000  0.61360000  0.90270000  1.0
  C  C1414  1  0.72440000  0.52560000  0.46320000  1.0
  C  C1415  1  0.71690000  0.53310000  0.43070000  1.0
  C  C1416  1  0.63640000  0.61360000  0.34730000  1.0
  C  C1417  1  0.22440000  0.52560000  0.96320000  1.0
  C  C1418  1  0.21690000  0.53310000  0.93070000  1.0
  C  C1419  1  0.13640000  0.61360000  0.84730000  1.0
  C  C1420  1  0.02560000  0.72440000  0.96320000  1.0
  C  C1421  1  0.03310000  0.71690000  0.93070000  1.0
  C  C1422  1  0.11360000  0.63640000  0.84730000  1.0
  C  C1423  1  0.02560000  0.22440000  0.46320000  1.0
  C  C1424  1  0.03310000  0.21690000  0.43070000  1.0
  C  C1425  1  0.11360000  0.13640000  0.34730000  1.0
  C  C1426  1  0.22440000  0.22440000  0.78680000  1.0
  C  C1427  1  0.21690000  0.21690000  0.81930000  1.0
  C  C1428  1  0.13640000  0.13640000  0.90270000  1.0
  C  C1429  1  0.22440000  0.72440000  0.28680000  1.0
  C  C1430  1  0.21690000  0.71690000  0.31930000  1.0
  C  C1431  1  0.13640000  0.63640000  0.40270000  1.0
  C  C1432  1  0.72440000  0.22440000  0.28680000  1.0
  C  C1433  1  0.71690000  0.21690000  0.31930000  1.0
  C  C1434  1  0.63640000  0.13640000  0.40270000  1.0
  C  C1435  1  0.72440000  0.72440000  0.78680000  1.0
  C  C1436  1  0.71690000  0.71690000  0.81930000  1.0
  C  C1437  1  0.63640000  0.63640000  0.90270000  1.0
  C  C1438  1  0.27560000  0.53680000  0.47440000  1.0
  C  C1439  1  0.28310000  0.56930000  0.46690000  1.0
  C  C1440  1  0.36360000  0.65270000  0.38640000  1.0
  C  C1441  1  0.77560000  0.53680000  0.97440000  1.0
  C  C1442  1  0.78310000  0.56930000  0.96690000  1.0
  C  C1443  1  0.86360000  0.65270000  0.88640000  1.0
  C  C1444  1  0.47440000  0.71320000  0.97440000  1.0
  C  C1445  1  0.46690000  0.68070000  0.96690000  1.0
  C  C1446  1  0.38640000  0.59730000  0.88640000  1.0
  C  C1447  1  0.47440000  0.21320000  0.47440000  1.0
  C  C1448  1  0.46690000  0.18070000  0.46690000  1.0
  C  C1449  1  0.38640000  0.09730000  0.38640000  1.0
  C  C1450  1  0.97440000  0.21320000  0.97440000  1.0
  C  C1451  1  0.96690000  0.18070000  0.96690000  1.0
  C  C1452  1  0.88640000  0.09730000  0.88640000  1.0
  C  C1453  1  0.77560000  0.21320000  0.77560000  1.0
  C  C1454  1  0.78310000  0.18070000  0.78310000  1.0
  C  C1455  1  0.86360000  0.09730000  0.86360000  1.0
  C  C1456  1  0.77560000  0.71320000  0.27560000  1.0
  C  C1457  1  0.78310000  0.68070000  0.28310000  1.0
  C  C1458  1  0.86360000  0.59730000  0.36360000  1.0
  C  C1459  1  0.27560000  0.21320000  0.27560000  1.0
  C  C1460  1  0.28310000  0.18070000  0.28310000  1.0
  C  C1461  1  0.36360000  0.09730000  0.36360000  1.0
  C  C1462  1  0.27560000  0.71320000  0.77560000  1.0
  C  C1463  1  0.28310000  0.68070000  0.78310000  1.0
  C  C1464  1  0.36360000  0.59730000  0.86360000  1.0
  C  C1465  1  0.97440000  0.03680000  0.27560000  1.0
  C  C1466  1  0.96690000  0.06930000  0.28310000  1.0
  C  C1467  1  0.88640000  0.15270000  0.36360000  1.0
  C  C1468  1  0.97440000  0.53680000  0.77560000  1.0
  C  C1469  1  0.96690000  0.56930000  0.78310000  1.0
  C  C1470  1  0.88640000  0.65270000  0.86360000  1.0
  C  C1471  1  0.03680000  0.27560000  0.97440000  1.0
  C  C1472  1  0.06930000  0.28310000  0.96690000  1.0
  C  C1473  1  0.15270000  0.36360000  0.88640000  1.0
  C  C1474  1  0.03680000  0.77560000  0.47440000  1.0
  C  C1475  1  0.06930000  0.78310000  0.46690000  1.0
  C  C1476  1  0.15270000  0.86360000  0.38640000  1.0
  C  C1477  1  0.21320000  0.77560000  0.77560000  1.0
  C  C1478  1  0.18070000  0.78310000  0.78310000  1.0
  C  C1479  1  0.09730000  0.86360000  0.86360000  1.0
  C  C1480  1  0.21320000  0.27560000  0.27560000  1.0
  C  C1481  1  0.18070000  0.28310000  0.28310000  1.0
  C  C1482  1  0.09730000  0.36360000  0.36360000  1.0
  C  C1483  1  0.71320000  0.77560000  0.27560000  1.0
  C  C1484  1  0.68070000  0.78310000  0.28310000  1.0
  C  C1485  1  0.59730000  0.86360000  0.36360000  1.0
  C  C1486  1  0.71320000  0.27560000  0.77560000  1.0
  C  C1487  1  0.68070000  0.28310000  0.78310000  1.0
  C  C1488  1  0.59730000  0.36360000  0.86360000  1.0
  C  C1489  1  0.71320000  0.97440000  0.47440000  1.0
  C  C1490  1  0.68070000  0.96690000  0.46690000  1.0
  C  C1491  1  0.59730000  0.88640000  0.38640000  1.0
  C  C1492  1  0.21320000  0.97440000  0.97440000  1.0
  C  C1493  1  0.18070000  0.96690000  0.96690000  1.0
  C  C1494  1  0.09730000  0.88640000  0.88640000  1.0
  C  C1495  1  0.53680000  0.47440000  0.27560000  1.0
  C  C1496  1  0.56930000  0.46690000  0.28310000  1.0
  C  C1497  1  0.65270000  0.38640000  0.36360000  1.0
  C  C1498  1  0.53680000  0.97440000  0.77560000  1.0
  C  C1499  1  0.56930000  0.96690000  0.78310000  1.0
  C  C1500  1  0.65270000  0.88640000  0.86360000  1.0
  C  C1501  1  0.77560000  0.77560000  0.21320000  1.0
  C  C1502  1  0.78310000  0.78310000  0.18070000  1.0
  C  C1503  1  0.86360000  0.86360000  0.09730000  1.0
  C  C1504  1  0.77560000  0.27560000  0.71320000  1.0
  C  C1505  1  0.78310000  0.28310000  0.68070000  1.0
  C  C1506  1  0.86360000  0.36360000  0.59730000  1.0
  C  C1507  1  0.27560000  0.77560000  0.71320000  1.0
  C  C1508  1  0.28310000  0.78310000  0.68070000  1.0
  C  C1509  1  0.36360000  0.86360000  0.59730000  1.0
  C  C1510  1  0.27560000  0.27560000  0.21320000  1.0
  C  C1511  1  0.28310000  0.28310000  0.18070000  1.0
  C  C1512  1  0.36360000  0.36360000  0.09730000  1.0
  C  C1513  1  0.27560000  0.97440000  0.03680000  1.0
  C  C1514  1  0.28310000  0.96690000  0.06930000  1.0
  C  C1515  1  0.36360000  0.88640000  0.15270000  1.0
  C  C1516  1  0.77560000  0.97440000  0.53680000  1.0
  C  C1517  1  0.78310000  0.96690000  0.56930000  1.0
  C  C1518  1  0.86360000  0.88640000  0.65270000  1.0
  C  C1519  1  0.47440000  0.27560000  0.53680000  1.0
  C  C1520  1  0.46690000  0.28310000  0.56930000  1.0
  C  C1521  1  0.38640000  0.36360000  0.65270000  1.0
  C  C1522  1  0.47440000  0.77560000  0.03680000  1.0
  C  C1523  1  0.46690000  0.78310000  0.06930000  1.0
  C  C1524  1  0.38640000  0.86360000  0.15270000  1.0
  C  C1525  1  0.97440000  0.47440000  0.71320000  1.0
  C  C1526  1  0.96690000  0.46690000  0.68070000  1.0
  C  C1527  1  0.88640000  0.38640000  0.59730000  1.0
  C  C1528  1  0.97440000  0.97440000  0.21320000  1.0
  C  C1529  1  0.96690000  0.96690000  0.18070000  1.0
  C  C1530  1  0.88640000  0.88640000  0.09730000  1.0
  C  C1531  1  0.71320000  0.47440000  0.97440000  1.0
  C  C1532  1  0.68070000  0.46690000  0.96690000  1.0
  C  C1533  1  0.59730000  0.38640000  0.88640000  1.0
  C  C1534  1  0.21320000  0.47440000  0.47440000  1.0
  C  C1535  1  0.18070000  0.46690000  0.46690000  1.0
  C  C1536  1  0.09730000  0.38640000  0.38640000  1.0
  C  C1537  1  0.53680000  0.27560000  0.47440000  1.0
  C  C1538  1  0.56930000  0.28310000  0.46690000  1.0
  C  C1539  1  0.65270000  0.36360000  0.38640000  1.0
  C  C1540  1  0.53680000  0.77560000  0.97440000  1.0
  C  C1541  1  0.56930000  0.78310000  0.96690000  1.0
  C  C1542  1  0.65270000  0.86360000  0.88640000  1.0
  C  C1543  1  0.03680000  0.97440000  0.27560000  1.0
  C  C1544  1  0.06930000  0.96690000  0.28310000  1.0
  C  C1545  1  0.15270000  0.88640000  0.36360000  1.0
  C  C1546  1  0.03680000  0.47440000  0.77560000  1.0
  C  C1547  1  0.06930000  0.46690000  0.78310000  1.0
  C  C1548  1  0.15270000  0.38640000  0.86360000  1.0
  C  C1549  1  0.97440000  0.71320000  0.47440000  1.0
  C  C1550  1  0.96690000  0.68070000  0.46690000  1.0
  C  C1551  1  0.88640000  0.59730000  0.38640000  1.0
  C  C1552  1  0.47440000  0.53680000  0.27560000  1.0
  C  C1553  1  0.46690000  0.56930000  0.28310000  1.0
  C  C1554  1  0.38640000  0.65270000  0.36360000  1.0
  C  C1555  1  0.47440000  0.03680000  0.77560000  1.0
  C  C1556  1  0.46690000  0.06930000  0.78310000  1.0
  C  C1557  1  0.38640000  0.15270000  0.86360000  1.0
  C  C1558  1  0.27560000  0.03680000  0.97440000  1.0
  C  C1559  1  0.28310000  0.06930000  0.96690000  1.0
  C  C1560  1  0.36360000  0.15270000  0.88640000  1.0
  C  C1561  1  0.77560000  0.03680000  0.47440000  1.0
  C  C1562  1  0.78310000  0.06930000  0.46690000  1.0
  C  C1563  1  0.86360000  0.15270000  0.38640000  1.0
  C  C1564  1  0.47440000  0.97440000  0.71320000  1.0
  C  C1565  1  0.46690000  0.96690000  0.68070000  1.0
  C  C1566  1  0.38640000  0.88640000  0.59730000  1.0
  C  C1567  1  0.47440000  0.47440000  0.21320000  1.0
  C  C1568  1  0.46690000  0.46690000  0.18070000  1.0
  C  C1569  1  0.38640000  0.38640000  0.09730000  1.0
  C  C1570  1  0.27560000  0.47440000  0.53680000  1.0
  C  C1571  1  0.28310000  0.46690000  0.56930000  1.0
  C  C1572  1  0.36360000  0.38640000  0.65270000  1.0
  C  C1573  1  0.77560000  0.47440000  0.03680000  1.0
  C  C1574  1  0.78310000  0.46690000  0.06930000  1.0
  C  C1575  1  0.86360000  0.38640000  0.15270000  1.0
  C  C1576  1  0.97440000  0.27560000  0.03680000  1.0
  C  C1577  1  0.96690000  0.28310000  0.06930000  1.0
  C  C1578  1  0.88640000  0.36360000  0.15270000  1.0
  C  C1579  1  0.97440000  0.77560000  0.53680000  1.0
  C  C1580  1  0.96690000  0.78310000  0.56930000  1.0
  C  C1581  1  0.88640000  0.86360000  0.65270000  1.0
  C  C1582  1  0.72440000  0.46320000  0.52560000  1.0
  C  C1583  1  0.71690000  0.43070000  0.53310000  1.0
  C  C1584  1  0.63640000  0.34730000  0.61360000  1.0
  C  C1585  1  0.22440000  0.46320000  0.02560000  1.0
  C  C1586  1  0.21690000  0.43070000  0.03310000  1.0
  C  C1587  1  0.13640000  0.34730000  0.11360000  1.0
  C  C1588  1  0.52560000  0.28680000  0.02560000  1.0
  C  C1589  1  0.53310000  0.31930000  0.03310000  1.0
  C  C1590  1  0.61360000  0.40270000  0.11360000  1.0
  C  C1591  1  0.02560000  0.96320000  0.72440000  1.0
  C  C1592  1  0.03310000  0.93070000  0.71690000  1.0
  C  C1593  1  0.11360000  0.84730000  0.63640000  1.0
  C  C1594  1  0.02560000  0.46320000  0.22440000  1.0
  C  C1595  1  0.03310000  0.43070000  0.21690000  1.0
  C  C1596  1  0.11360000  0.34730000  0.13640000  1.0
  C  C1597  1  0.96320000  0.72440000  0.02560000  1.0
  C  C1598  1  0.93070000  0.71690000  0.03310000  1.0
  C  C1599  1  0.84730000  0.63640000  0.11360000  1.0
  C  C1600  1  0.96320000  0.22440000  0.52560000  1.0
  C  C1601  1  0.93070000  0.21690000  0.53310000  1.0
  C  C1602  1  0.84730000  0.13640000  0.61360000  1.0
  C  C1603  1  0.28680000  0.02560000  0.52560000  1.0
  C  C1604  1  0.31930000  0.03310000  0.53310000  1.0
  C  C1605  1  0.40270000  0.11360000  0.61360000  1.0
  C  C1606  1  0.78680000  0.02560000  0.02560000  1.0
  C  C1607  1  0.81930000  0.03310000  0.03310000  1.0
  C  C1608  1  0.90270000  0.11360000  0.11360000  1.0
  C  C1609  1  0.46320000  0.52560000  0.72440000  1.0
  C  C1610  1  0.43070000  0.53310000  0.71690000  1.0
  C  C1611  1  0.34730000  0.61360000  0.63640000  1.0
  C  C1612  1  0.46320000  0.02560000  0.22440000  1.0
  C  C1613  1  0.43070000  0.03310000  0.21690000  1.0
  C  C1614  1  0.34730000  0.11360000  0.13640000  1.0
  C  C1615  1  0.72440000  0.02560000  0.96320000  1.0
  C  C1616  1  0.71690000  0.03310000  0.93070000  1.0
  C  C1617  1  0.63640000  0.11360000  0.84730000  1.0
  C  C1618  1  0.22440000  0.02560000  0.46320000  1.0
  C  C1619  1  0.21690000  0.03310000  0.43070000  1.0
  C  C1620  1  0.13640000  0.11360000  0.34730000  1.0
  C  C1621  1  0.52560000  0.72440000  0.46320000  1.0
  C  C1622  1  0.53310000  0.71690000  0.43070000  1.0
  C  C1623  1  0.61360000  0.63640000  0.34730000  1.0
  C  C1624  1  0.52560000  0.22440000  0.96320000  1.0
  C  C1625  1  0.53310000  0.21690000  0.93070000  1.0
  C  C1626  1  0.61360000  0.13640000  0.84730000  1.0
  C  C1627  1  0.02560000  0.52560000  0.28680000  1.0
  C  C1628  1  0.03310000  0.53310000  0.31930000  1.0
  C  C1629  1  0.11360000  0.61360000  0.40270000  1.0
  C  C1630  1  0.02560000  0.02560000  0.78680000  1.0
  C  C1631  1  0.03310000  0.03310000  0.81930000  1.0
  C  C1632  1  0.11360000  0.11360000  0.90270000  1.0
  N  N1  1  0.39391000  0.52385000  0.08458000  1.0
  N  N2  1  0.39391000  0.02385000  0.58458000  1.0
  N  N3  1  0.89391000  0.52385000  0.58458000  1.0
  N  N4  1  0.89391000  0.02385000  0.08458000  1.0
  N  N5  1  0.35609000  0.72615000  0.58458000  1.0
  N  N6  1  0.35609000  0.22615000  0.08458000  1.0
  N  N7  1  0.85609000  0.72615000  0.08458000  1.0
  N  N8  1  0.85609000  0.22615000  0.58458000  1.0
  N  N9  1  0.85609000  0.02385000  0.66542000  1.0
  N  N10  1  0.85609000  0.52385000  0.16542000  1.0
  N  N11  1  0.35609000  0.02385000  0.16542000  1.0
  N  N12  1  0.35609000  0.52385000  0.66542000  1.0
  N  N13  1  0.89391000  0.22615000  0.16542000  1.0
  N  N14  1  0.89391000  0.72615000  0.66542000  1.0
  N  N15  1  0.39391000  0.22615000  0.66542000  1.0
  N  N16  1  0.39391000  0.72615000  0.16542000  1.0
  N  N17  1  0.08458000  0.39391000  0.52385000  1.0
  N  N18  1  0.08458000  0.89391000  0.02385000  1.0
  N  N19  1  0.58458000  0.39391000  0.02385000  1.0
  N  N20  1  0.58458000  0.89391000  0.52385000  1.0
  N  N21  1  0.58458000  0.35609000  0.72615000  1.0
  N  N22  1  0.58458000  0.85609000  0.22615000  1.0
  N  N23  1  0.08458000  0.35609000  0.22615000  1.0
  N  N24  1  0.08458000  0.85609000  0.72615000  1.0
  N  N25  1  0.66542000  0.85609000  0.02385000  1.0
  N  N26  1  0.66542000  0.35609000  0.52385000  1.0
  N  N27  1  0.16542000  0.85609000  0.52385000  1.0
  N  N28  1  0.16542000  0.35609000  0.02385000  1.0
  N  N29  1  0.16542000  0.89391000  0.22615000  1.0
  N  N30  1  0.16542000  0.39391000  0.72615000  1.0
  N  N31  1  0.66542000  0.89391000  0.72615000  1.0
  N  N32  1  0.66542000  0.39391000  0.22615000  1.0
  N  N33  1  0.52385000  0.08458000  0.39391000  1.0
  N  N34  1  0.52385000  0.58458000  0.89391000  1.0
  N  N35  1  0.02385000  0.08458000  0.89391000  1.0
  N  N36  1  0.02385000  0.58458000  0.39391000  1.0
  N  N37  1  0.72615000  0.58458000  0.35609000  1.0
  N  N38  1  0.72615000  0.08458000  0.85609000  1.0
  N  N39  1  0.22615000  0.58458000  0.85609000  1.0
  N  N40  1  0.22615000  0.08458000  0.35609000  1.0
  N  N41  1  0.02385000  0.66542000  0.85609000  1.0
  N  N42  1  0.02385000  0.16542000  0.35609000  1.0
  N  N43  1  0.52385000  0.66542000  0.35609000  1.0
  N  N44  1  0.52385000  0.16542000  0.85609000  1.0
  N  N45  1  0.22615000  0.16542000  0.89391000  1.0
  N  N46  1  0.22615000  0.66542000  0.39391000  1.0
  N  N47  1  0.72615000  0.16542000  0.39391000  1.0
  N  N48  1  0.72615000  0.66542000  0.89391000  1.0
  N  N49  1  0.27385000  0.64391000  0.41542000  1.0
  N  N50  1  0.27385000  0.14391000  0.91542000  1.0
  N  N51  1  0.77385000  0.64391000  0.91542000  1.0
  N  N52  1  0.77385000  0.14391000  0.41542000  1.0
  N  N53  1  0.47615000  0.60609000  0.91542000  1.0
  N  N54  1  0.47615000  0.10609000  0.41542000  1.0
  N  N55  1  0.97615000  0.60609000  0.41542000  1.0
  N  N56  1  0.97615000  0.10609000  0.91542000  1.0
  N  N57  1  0.77385000  0.10609000  0.83458000  1.0
  N  N58  1  0.77385000  0.60609000  0.33458000  1.0
  N  N59  1  0.27385000  0.10609000  0.33458000  1.0
  N  N60  1  0.27385000  0.60609000  0.83458000  1.0
  N  N61  1  0.97615000  0.14391000  0.33458000  1.0
  N  N62  1  0.97615000  0.64391000  0.83458000  1.0
  N  N63  1  0.47615000  0.14391000  0.83458000  1.0
  N  N64  1  0.47615000  0.64391000  0.33458000  1.0
  N  N65  1  0.14391000  0.33458000  0.97615000  1.0
  N  N66  1  0.14391000  0.83458000  0.47615000  1.0
  N  N67  1  0.64391000  0.33458000  0.47615000  1.0
  N  N68  1  0.64391000  0.83458000  0.97615000  1.0
  N  N69  1  0.10609000  0.83458000  0.77385000  1.0
  N  N70  1  0.10609000  0.33458000  0.27385000  1.0
  N  N71  1  0.60609000  0.83458000  0.27385000  1.0
  N  N72  1  0.60609000  0.33458000  0.77385000  1.0
  N  N73  1  0.60609000  0.91542000  0.47615000  1.0
  N  N74  1  0.60609000  0.41542000  0.97615000  1.0
  N  N75  1  0.10609000  0.91542000  0.97615000  1.0
  N  N76  1  0.10609000  0.41542000  0.47615000  1.0
  N  N77  1  0.64391000  0.41542000  0.27385000  1.0
  N  N78  1  0.64391000  0.91542000  0.77385000  1.0
  N  N79  1  0.14391000  0.41542000  0.77385000  1.0
  N  N80  1  0.14391000  0.91542000  0.27385000  1.0
  N  N81  1  0.83458000  0.77385000  0.10609000  1.0
  N  N82  1  0.83458000  0.27385000  0.60609000  1.0
  N  N83  1  0.33458000  0.77385000  0.60609000  1.0
  N  N84  1  0.33458000  0.27385000  0.10609000  1.0
  N  N85  1  0.33458000  0.97615000  0.14391000  1.0
  N  N86  1  0.33458000  0.47615000  0.64391000  1.0
  N  N87  1  0.83458000  0.97615000  0.64391000  1.0
  N  N88  1  0.83458000  0.47615000  0.14391000  1.0
  N  N89  1  0.41542000  0.27385000  0.64391000  1.0
  N  N90  1  0.41542000  0.77385000  0.14391000  1.0
  N  N91  1  0.91542000  0.27385000  0.14391000  1.0
  N  N92  1  0.91542000  0.77385000  0.64391000  1.0
  N  N93  1  0.91542000  0.47615000  0.60609000  1.0
  N  N94  1  0.91542000  0.97615000  0.10609000  1.0
  N  N95  1  0.41542000  0.47615000  0.10609000  1.0
  N  N96  1  0.41542000  0.97615000  0.60609000  1.0
  N  N97  1  0.60609000  0.47615000  0.91542000  1.0
  N  N98  1  0.60609000  0.97615000  0.41542000  1.0
  N  N99  1  0.10609000  0.47615000  0.41542000  1.0
  N  N100  1  0.10609000  0.97615000  0.91542000  1.0
  N  N101  1  0.64391000  0.27385000  0.41542000  1.0
  N  N102  1  0.64391000  0.77385000  0.91542000  1.0
  N  N103  1  0.14391000  0.27385000  0.91542000  1.0
  N  N104  1  0.14391000  0.77385000  0.41542000  1.0
  N  N105  1  0.14391000  0.97615000  0.33458000  1.0
  N  N106  1  0.14391000  0.47615000  0.83458000  1.0
  N  N107  1  0.64391000  0.97615000  0.83458000  1.0
  N  N108  1  0.64391000  0.47615000  0.33458000  1.0
  N  N109  1  0.10609000  0.77385000  0.83458000  1.0
  N  N110  1  0.10609000  0.27385000  0.33458000  1.0
  N  N111  1  0.60609000  0.77385000  0.33458000  1.0
  N  N112  1  0.60609000  0.27385000  0.83458000  1.0
  N  N113  1  0.91542000  0.60609000  0.47615000  1.0
  N  N114  1  0.91542000  0.10609000  0.97615000  1.0
  N  N115  1  0.41542000  0.60609000  0.97615000  1.0
  N  N116  1  0.41542000  0.10609000  0.47615000  1.0
  N  N117  1  0.41542000  0.64391000  0.27385000  1.0
  N  N118  1  0.41542000  0.14391000  0.77385000  1.0
  N  N119  1  0.91542000  0.64391000  0.77385000  1.0
  N  N120  1  0.91542000  0.14391000  0.27385000  1.0
  N  N121  1  0.33458000  0.14391000  0.97615000  1.0
  N  N122  1  0.33458000  0.64391000  0.47615000  1.0
  N  N123  1  0.83458000  0.14391000  0.47615000  1.0
  N  N124  1  0.83458000  0.64391000  0.97615000  1.0
  N  N125  1  0.83458000  0.10609000  0.77385000  1.0
  N  N126  1  0.83458000  0.60609000  0.27385000  1.0
  N  N127  1  0.33458000  0.10609000  0.27385000  1.0
  N  N128  1  0.33458000  0.60609000  0.77385000  1.0
  N  N129  1  0.47615000  0.91542000  0.60609000  1.0
  N  N130  1  0.47615000  0.41542000  0.10609000  1.0
  N  N131  1  0.97615000  0.91542000  0.10609000  1.0
  N  N132  1  0.97615000  0.41542000  0.60609000  1.0
  N  N133  1  0.27385000  0.41542000  0.64391000  1.0
  N  N134  1  0.27385000  0.91542000  0.14391000  1.0
  N  N135  1  0.77385000  0.41542000  0.14391000  1.0
  N  N136  1  0.77385000  0.91542000  0.64391000  1.0
  N  N137  1  0.97615000  0.33458000  0.14391000  1.0
  N  N138  1  0.97615000  0.83458000  0.64391000  1.0
  N  N139  1  0.47615000  0.33458000  0.64391000  1.0
  N  N140  1  0.47615000  0.83458000  0.14391000  1.0
  N  N141  1  0.77385000  0.83458000  0.10609000  1.0
  N  N142  1  0.77385000  0.33458000  0.60609000  1.0
  N  N143  1  0.27385000  0.83458000  0.60609000  1.0
  N  N144  1  0.27385000  0.33458000  0.10609000  1.0
  N  N145  1  0.72615000  0.35609000  0.58458000  1.0
  N  N146  1  0.72615000  0.85609000  0.08458000  1.0
  N  N147  1  0.22615000  0.35609000  0.08458000  1.0
  N  N148  1  0.22615000  0.85609000  0.58458000  1.0
  N  N149  1  0.52385000  0.39391000  0.08458000  1.0
  N  N150  1  0.52385000  0.89391000  0.58458000  1.0
  N  N151  1  0.02385000  0.39391000  0.58458000  1.0
  N  N152  1  0.02385000  0.89391000  0.08458000  1.0
  N  N153  1  0.22615000  0.89391000  0.16542000  1.0
  N  N154  1  0.22615000  0.39391000  0.66542000  1.0
  N  N155  1  0.72615000  0.89391000  0.66542000  1.0
  N  N156  1  0.72615000  0.39391000  0.16542000  1.0
  N  N157  1  0.02385000  0.85609000  0.66542000  1.0
  N  N158  1  0.02385000  0.35609000  0.16542000  1.0
  N  N159  1  0.52385000  0.85609000  0.16542000  1.0
  N  N160  1  0.52385000  0.35609000  0.66542000  1.0
  N  N161  1  0.85609000  0.66542000  0.02385000  1.0
  N  N162  1  0.85609000  0.16542000  0.52385000  1.0
  N  N163  1  0.35609000  0.66542000  0.52385000  1.0
  N  N164  1  0.35609000  0.16542000  0.02385000  1.0
  N  N165  1  0.89391000  0.16542000  0.22615000  1.0
  N  N166  1  0.89391000  0.66542000  0.72615000  1.0
  N  N167  1  0.39391000  0.16542000  0.72615000  1.0
  N  N168  1  0.39391000  0.66542000  0.22615000  1.0
  N  N169  1  0.39391000  0.08458000  0.52385000  1.0
  N  N170  1  0.39391000  0.58458000  0.02385000  1.0
  N  N171  1  0.89391000  0.08458000  0.02385000  1.0
  N  N172  1  0.89391000  0.58458000  0.52385000  1.0
  N  N173  1  0.35609000  0.58458000  0.72615000  1.0
  N  N174  1  0.35609000  0.08458000  0.22615000  1.0
  N  N175  1  0.85609000  0.58458000  0.22615000  1.0
  N  N176  1  0.85609000  0.08458000  0.72615000  1.0
  N  N177  1  0.16542000  0.22615000  0.89391000  1.0
  N  N178  1  0.16542000  0.72615000  0.39391000  1.0
  N  N179  1  0.66542000  0.22615000  0.39391000  1.0
  N  N180  1  0.66542000  0.72615000  0.89391000  1.0
  N  N181  1  0.66542000  0.02385000  0.85609000  1.0
  N  N182  1  0.66542000  0.52385000  0.35609000  1.0
  N  N183  1  0.16542000  0.02385000  0.35609000  1.0
  N  N184  1  0.16542000  0.52385000  0.85609000  1.0
  N  N185  1  0.58458000  0.72615000  0.35609000  1.0
  N  N186  1  0.58458000  0.22615000  0.85609000  1.0
  N  N187  1  0.08458000  0.72615000  0.85609000  1.0
  N  N188  1  0.08458000  0.22615000  0.35609000  1.0
  N  N189  1  0.08458000  0.52385000  0.39391000  1.0
  N  N190  1  0.08458000  0.02385000  0.89391000  1.0
  N  N191  1  0.58458000  0.52385000  0.89391000  1.0
  N  N192  1  0.58458000  0.02385000  0.39391000  1.0
  N  N193  1  0.15480000  0.59520000  0.09520000  1.0
  N  N194  1  0.18750000  0.56250000  0.06250000  1.0
  N  N195  1  0.59520000  0.65480000  0.59520000  1.0
  N  N196  1  0.56250000  0.68750000  0.56250000  1.0
  N  N197  1  0.09520000  0.09520000  0.65480000  1.0
  N  N198  1  0.06250000  0.06250000  0.68750000  1.0
  N  N199  1  0.65480000  0.15480000  0.15480000  1.0
  N  N200  1  0.68750000  0.18750000  0.18750000  1.0
  N  N201  1  0.65480000  0.65480000  0.65480000  1.0
  N  N202  1  0.68750000  0.68750000  0.68750000  1.0
  N  N203  1  0.09520000  0.15480000  0.59520000  1.0
  N  N204  1  0.06250000  0.18750000  0.56250000  1.0
  N  N205  1  0.59520000  0.59520000  0.65480000  1.0
  N  N206  1  0.56250000  0.56250000  0.68750000  1.0
  N  N207  1  0.65480000  0.09520000  0.09520000  1.0
  N  N208  1  0.68750000  0.06250000  0.06250000  1.0
  N  N209  1  0.15480000  0.65480000  0.15480000  1.0
  N  N210  1  0.18750000  0.68750000  0.18750000  1.0
  N  N211  1  0.59520000  0.09520000  0.15480000  1.0
  N  N212  1  0.56250000  0.06250000  0.18750000  1.0
  N  N213  1  0.65480000  0.59520000  0.59520000  1.0
  N  N214  1  0.68750000  0.56250000  0.56250000  1.0
  N  N215  1  0.09520000  0.65480000  0.09520000  1.0
  N  N216  1  0.06250000  0.68750000  0.06250000  1.0
  N  N217  1  0.15480000  0.15480000  0.65480000  1.0
  N  N218  1  0.18750000  0.18750000  0.68750000  1.0
  N  N219  1  0.34520000  0.40480000  0.40480000  1.0
  N  N220  1  0.31250000  0.43750000  0.43750000  1.0
  N  N221  1  0.40480000  0.84520000  0.90480000  1.0
  N  N222  1  0.43750000  0.81250000  0.93750000  1.0
  N  N223  1  0.84520000  0.34520000  0.84520000  1.0
  N  N224  1  0.81250000  0.31250000  0.81250000  1.0
  N  N225  1  0.90480000  0.90480000  0.34520000  1.0
  N  N226  1  0.93750000  0.93750000  0.31250000  1.0
  N  N227  1  0.90480000  0.34520000  0.90480000  1.0
  N  N228  1  0.93750000  0.31250000  0.93750000  1.0
  N  N229  1  0.34520000  0.84520000  0.84520000  1.0
  N  N230  1  0.31250000  0.81250000  0.81250000  1.0
  N  N231  1  0.34520000  0.34520000  0.34520000  1.0
  N  N232  1  0.31250000  0.31250000  0.31250000  1.0
  N  N233  1  0.84520000  0.90480000  0.40480000  1.0
  N  N234  1  0.81250000  0.93750000  0.43750000  1.0
  N  N235  1  0.40480000  0.40480000  0.34520000  1.0
  N  N236  1  0.43750000  0.43750000  0.31250000  1.0
  N  N237  1  0.84520000  0.84520000  0.34520000  1.0
  N  N238  1  0.81250000  0.81250000  0.31250000  1.0
  N  N239  1  0.34520000  0.90480000  0.90480000  1.0
  N  N240  1  0.31250000  0.93750000  0.93750000  1.0
  N  N241  1  0.40480000  0.34520000  0.40480000  1.0
  N  N242  1  0.43750000  0.31250000  0.43750000  1.0
  N  N243  1  0.90480000  0.40480000  0.84520000  1.0
  N  N244  1  0.93750000  0.43750000  0.81250000  1.0
  N  N245  1  0.84520000  0.40480000  0.90480000  1.0
  N  N246  1  0.81250000  0.43750000  0.93750000  1.0
  N  N247  1  0.90480000  0.84520000  0.40480000  1.0
  N  N248  1  0.93750000  0.81250000  0.43750000  1.0
  N  N249  1  0.40480000  0.90480000  0.84520000  1.0
  N  N250  1  0.43750000  0.93750000  0.81250000  1.0
  N  N251  1  0.59520000  0.15480000  0.09520000  1.0
  N  N252  1  0.56250000  0.18750000  0.06250000  1.0
  N  N253  1  0.15480000  0.09520000  0.59520000  1.0
  N  N254  1  0.18750000  0.06250000  0.56250000  1.0
  N  N255  1  0.09520000  0.59520000  0.15480000  1.0
  N  N256  1  0.06250000  0.56250000  0.18750000  1.0
  N  N257  1  0.26720000  0.54341000  0.04341000  1.0
  N  N258  1  0.32140000  0.55554000  0.05554000  1.0
  N  N259  1  0.37210000  0.60474000  0.10474000  1.0
  N  N260  1  0.76720000  0.54341000  0.54341000  1.0
  N  N261  1  0.82140000  0.55554000  0.55554000  1.0
  N  N262  1  0.87210000  0.60474000  0.60474000  1.0
  N  N263  1  0.48280000  0.70659000  0.54341000  1.0
  N  N264  1  0.42860000  0.69446000  0.55554000  1.0
  N  N265  1  0.37790000  0.64526000  0.60474000  1.0
  N  N266  1  0.48280000  0.20659000  0.04341000  1.0
  N  N267  1  0.42860000  0.19446000  0.05554000  1.0
  N  N268  1  0.37790000  0.14526000  0.10474000  1.0
  N  N269  1  0.98280000  0.04341000  0.70659000  1.0
  N  N270  1  0.92860000  0.05554000  0.69446000  1.0
  N  N271  1  0.87790000  0.10474000  0.64526000  1.0
  N  N272  1  0.98280000  0.54341000  0.20659000  1.0
  N  N273  1  0.92860000  0.55554000  0.19446000  1.0
  N  N274  1  0.87790000  0.60474000  0.14526000  1.0
  N  N275  1  0.76720000  0.20659000  0.20659000  1.0
  N  N276  1  0.82140000  0.19446000  0.19446000  1.0
  N  N277  1  0.87210000  0.14526000  0.14526000  1.0
  N  N278  1  0.76720000  0.70659000  0.70659000  1.0
  N  N279  1  0.82140000  0.69446000  0.69446000  1.0
  N  N280  1  0.87210000  0.64526000  0.64526000  1.0
  N  N281  1  0.26720000  0.20659000  0.70659000  1.0
  N  N282  1  0.32140000  0.19446000  0.69446000  1.0
  N  N283  1  0.37210000  0.14526000  0.64526000  1.0
  N  N284  1  0.26720000  0.70659000  0.20659000  1.0
  N  N285  1  0.32140000  0.69446000  0.19446000  1.0
  N  N286  1  0.37210000  0.64526000  0.14526000  1.0
  N  N287  1  0.04341000  0.26720000  0.54341000  1.0
  N  N288  1  0.05554000  0.32140000  0.55554000  1.0
  N  N289  1  0.10474000  0.37210000  0.60474000  1.0
  N  N290  1  0.04341000  0.76720000  0.04341000  1.0
  N  N291  1  0.05554000  0.82140000  0.05554000  1.0
  N  N292  1  0.10474000  0.87210000  0.10474000  1.0
  N  N293  1  0.54341000  0.76720000  0.54341000  1.0
  N  N294  1  0.55554000  0.82140000  0.55554000  1.0
  N  N295  1  0.60474000  0.87210000  0.60474000  1.0
  N  N296  1  0.54341000  0.48280000  0.70659000  1.0
  N  N297  1  0.55554000  0.42860000  0.69446000  1.0
  N  N298  1  0.60474000  0.37790000  0.64526000  1.0
  N  N299  1  0.54341000  0.98280000  0.20659000  1.0
  N  N300  1  0.55554000  0.92860000  0.19446000  1.0
  N  N301  1  0.60474000  0.87790000  0.14526000  1.0
  N  N302  1  0.70659000  0.98280000  0.04341000  1.0
  N  N303  1  0.69446000  0.92860000  0.05554000  1.0
  N  N304  1  0.64526000  0.87790000  0.10474000  1.0
  N  N305  1  0.20659000  0.98280000  0.54341000  1.0
  N  N306  1  0.19446000  0.92860000  0.55554000  1.0
  N  N307  1  0.14526000  0.87790000  0.60474000  1.0
  N  N308  1  0.20659000  0.76720000  0.20659000  1.0
  N  N309  1  0.19446000  0.82140000  0.19446000  1.0
  N  N310  1  0.14526000  0.87210000  0.14526000  1.0
  N  N311  1  0.20659000  0.26720000  0.70659000  1.0
  N  N312  1  0.19446000  0.32140000  0.69446000  1.0
  N  N313  1  0.14526000  0.37210000  0.64526000  1.0
  N  N314  1  0.70659000  0.76720000  0.70659000  1.0
  N  N315  1  0.69446000  0.82140000  0.69446000  1.0
  N  N316  1  0.64526000  0.87210000  0.64526000  1.0
  N  N317  1  0.70659000  0.26720000  0.20659000  1.0
  N  N318  1  0.69446000  0.32140000  0.19446000  1.0
  N  N319  1  0.64526000  0.37210000  0.14526000  1.0
  N  N320  1  0.54341000  0.04341000  0.26720000  1.0
  N  N321  1  0.55554000  0.05554000  0.32140000  1.0
  N  N322  1  0.60474000  0.10474000  0.37210000  1.0
  N  N323  1  0.54341000  0.54341000  0.76720000  1.0
  N  N324  1  0.55554000  0.55554000  0.82140000  1.0
  N  N325  1  0.60474000  0.60474000  0.87210000  1.0
  N  N326  1  0.70659000  0.54341000  0.48280000  1.0
  N  N327  1  0.69446000  0.55554000  0.42860000  1.0
  N  N328  1  0.64526000  0.60474000  0.37790000  1.0
  N  N329  1  0.20659000  0.54341000  0.98280000  1.0
  N  N330  1  0.19446000  0.55554000  0.92860000  1.0
  N  N331  1  0.14526000  0.60474000  0.87790000  1.0
  N  N332  1  0.04341000  0.70659000  0.98280000  1.0
  N  N333  1  0.05554000  0.69446000  0.92860000  1.0
  N  N334  1  0.10474000  0.64526000  0.87790000  1.0
  N  N335  1  0.04341000  0.20659000  0.48280000  1.0
  N  N336  1  0.05554000  0.19446000  0.42860000  1.0
  N  N337  1  0.10474000  0.14526000  0.37790000  1.0
  N  N338  1  0.20659000  0.20659000  0.76720000  1.0
  N  N339  1  0.19446000  0.19446000  0.82140000  1.0
  N  N340  1  0.14526000  0.14526000  0.87210000  1.0
  N  N341  1  0.20659000  0.70659000  0.26720000  1.0
  N  N342  1  0.19446000  0.69446000  0.32140000  1.0
  N  N343  1  0.14526000  0.64526000  0.37210000  1.0
  N  N344  1  0.70659000  0.20659000  0.26720000  1.0
  N  N345  1  0.69446000  0.19446000  0.32140000  1.0
  N  N346  1  0.64526000  0.14526000  0.37210000  1.0
  N  N347  1  0.70659000  0.70659000  0.76720000  1.0
  N  N348  1  0.69446000  0.69446000  0.82140000  1.0
  N  N349  1  0.64526000  0.64526000  0.87210000  1.0
  N  N350  1  0.29341000  0.51720000  0.45659000  1.0
  N  N351  1  0.30554000  0.57140000  0.44446000  1.0
  N  N352  1  0.35474000  0.62210000  0.39526000  1.0
  N  N353  1  0.79341000  0.51720000  0.95659000  1.0
  N  N354  1  0.80554000  0.57140000  0.94446000  1.0
  N  N355  1  0.85474000  0.62210000  0.89526000  1.0
  N  N356  1  0.45659000  0.73280000  0.95659000  1.0
  N  N357  1  0.44446000  0.67860000  0.94446000  1.0
  N  N358  1  0.39526000  0.62790000  0.89526000  1.0
  N  N359  1  0.45659000  0.23280000  0.45659000  1.0
  N  N360  1  0.44446000  0.17860000  0.44446000  1.0
  N  N361  1  0.39526000  0.12790000  0.39526000  1.0
  N  N362  1  0.95659000  0.23280000  0.95659000  1.0
  N  N363  1  0.94446000  0.17860000  0.94446000  1.0
  N  N364  1  0.89526000  0.12790000  0.89526000  1.0
  N  N365  1  0.79341000  0.23280000  0.79341000  1.0
  N  N366  1  0.80554000  0.17860000  0.80554000  1.0
  N  N367  1  0.85474000  0.12790000  0.85474000  1.0
  N  N368  1  0.79341000  0.73280000  0.29341000  1.0
  N  N369  1  0.80554000  0.67860000  0.30554000  1.0
  N  N370  1  0.85474000  0.62790000  0.35474000  1.0
  N  N371  1  0.29341000  0.23280000  0.29341000  1.0
  N  N372  1  0.30554000  0.17860000  0.30554000  1.0
  N  N373  1  0.35474000  0.12790000  0.35474000  1.0
  N  N374  1  0.29341000  0.73280000  0.79341000  1.0
  N  N375  1  0.30554000  0.67860000  0.80554000  1.0
  N  N376  1  0.35474000  0.62790000  0.85474000  1.0
  N  N377  1  0.95659000  0.01720000  0.29341000  1.0
  N  N378  1  0.94446000  0.07140000  0.30554000  1.0
  N  N379  1  0.89526000  0.12210000  0.35474000  1.0
  N  N380  1  0.95659000  0.51720000  0.79341000  1.0
  N  N381  1  0.94446000  0.57140000  0.80554000  1.0
  N  N382  1  0.89526000  0.62210000  0.85474000  1.0
  N  N383  1  0.01720000  0.29341000  0.95659000  1.0
  N  N384  1  0.07140000  0.30554000  0.94446000  1.0
  N  N385  1  0.12210000  0.35474000  0.89526000  1.0
  N  N386  1  0.01720000  0.79341000  0.45659000  1.0
  N  N387  1  0.07140000  0.80554000  0.44446000  1.0
  N  N388  1  0.12210000  0.85474000  0.39526000  1.0
  N  N389  1  0.23280000  0.79341000  0.79341000  1.0
  N  N390  1  0.17860000  0.80554000  0.80554000  1.0
  N  N391  1  0.12790000  0.85474000  0.85474000  1.0
  N  N392  1  0.23280000  0.29341000  0.29341000  1.0
  N  N393  1  0.17860000  0.30554000  0.30554000  1.0
  N  N394  1  0.12790000  0.35474000  0.35474000  1.0
  N  N395  1  0.73280000  0.79341000  0.29341000  1.0
  N  N396  1  0.67860000  0.80554000  0.30554000  1.0
  N  N397  1  0.62790000  0.85474000  0.35474000  1.0
  N  N398  1  0.73280000  0.29341000  0.79341000  1.0
  N  N399  1  0.67860000  0.30554000  0.80554000  1.0
  N  N400  1  0.62790000  0.35474000  0.85474000  1.0
  N  N401  1  0.73280000  0.95659000  0.45659000  1.0
  N  N402  1  0.67860000  0.94446000  0.44446000  1.0
  N  N403  1  0.62790000  0.89526000  0.39526000  1.0
  N  N404  1  0.23280000  0.95659000  0.95659000  1.0
  N  N405  1  0.17860000  0.94446000  0.94446000  1.0
  N  N406  1  0.12790000  0.89526000  0.89526000  1.0
  N  N407  1  0.51720000  0.45659000  0.29341000  1.0
  N  N408  1  0.57140000  0.44446000  0.30554000  1.0
  N  N409  1  0.62210000  0.39526000  0.35474000  1.0
  N  N410  1  0.51720000  0.95659000  0.79341000  1.0
  N  N411  1  0.57140000  0.94446000  0.80554000  1.0
  N  N412  1  0.62210000  0.89526000  0.85474000  1.0
  N  N413  1  0.79341000  0.79341000  0.23280000  1.0
  N  N414  1  0.80554000  0.80554000  0.17860000  1.0
  N  N415  1  0.85474000  0.85474000  0.12790000  1.0
  N  N416  1  0.79341000  0.29341000  0.73280000  1.0
  N  N417  1  0.80554000  0.30554000  0.67860000  1.0
  N  N418  1  0.85474000  0.35474000  0.62790000  1.0
  N  N419  1  0.29341000  0.79341000  0.73280000  1.0
  N  N420  1  0.30554000  0.80554000  0.67860000  1.0
  N  N421  1  0.35474000  0.85474000  0.62790000  1.0
  N  N422  1  0.29341000  0.29341000  0.23280000  1.0
  N  N423  1  0.30554000  0.30554000  0.17860000  1.0
  N  N424  1  0.35474000  0.35474000  0.12790000  1.0
  N  N425  1  0.29341000  0.95659000  0.01720000  1.0
  N  N426  1  0.30554000  0.94446000  0.07140000  1.0
  N  N427  1  0.35474000  0.89526000  0.12210000  1.0
  N  N428  1  0.79341000  0.95659000  0.51720000  1.0
  N  N429  1  0.80554000  0.94446000  0.57140000  1.0
  N  N430  1  0.85474000  0.89526000  0.62210000  1.0
  N  N431  1  0.45659000  0.29341000  0.51720000  1.0
  N  N432  1  0.44446000  0.30554000  0.57140000  1.0
  N  N433  1  0.39526000  0.35474000  0.62210000  1.0
  N  N434  1  0.45659000  0.79341000  0.01720000  1.0
  N  N435  1  0.44446000  0.80554000  0.07140000  1.0
  N  N436  1  0.39526000  0.85474000  0.12210000  1.0
  N  N437  1  0.95659000  0.45659000  0.73280000  1.0
  N  N438  1  0.94446000  0.44446000  0.67860000  1.0
  N  N439  1  0.89526000  0.39526000  0.62790000  1.0
  N  N440  1  0.95659000  0.95659000  0.23280000  1.0
  N  N441  1  0.94446000  0.94446000  0.17860000  1.0
  N  N442  1  0.89526000  0.89526000  0.12790000  1.0
  N  N443  1  0.73280000  0.45659000  0.95659000  1.0
  N  N444  1  0.67860000  0.44446000  0.94446000  1.0
  N  N445  1  0.62790000  0.39526000  0.89526000  1.0
  N  N446  1  0.23280000  0.45659000  0.45659000  1.0
  N  N447  1  0.17860000  0.44446000  0.44446000  1.0
  N  N448  1  0.12790000  0.39526000  0.39526000  1.0
  N  N449  1  0.51720000  0.29341000  0.45659000  1.0
  N  N450  1  0.57140000  0.30554000  0.44446000  1.0
  N  N451  1  0.62210000  0.35474000  0.39526000  1.0
  N  N452  1  0.51720000  0.79341000  0.95659000  1.0
  N  N453  1  0.57140000  0.80554000  0.94446000  1.0
  N  N454  1  0.62210000  0.85474000  0.89526000  1.0
  N  N455  1  0.01720000  0.95659000  0.29341000  1.0
  N  N456  1  0.07140000  0.94446000  0.30554000  1.0
  N  N457  1  0.12210000  0.89526000  0.35474000  1.0
  N  N458  1  0.01720000  0.45659000  0.79341000  1.0
  N  N459  1  0.07140000  0.44446000  0.80554000  1.0
  N  N460  1  0.12210000  0.39526000  0.85474000  1.0
  N  N461  1  0.95659000  0.73280000  0.45659000  1.0
  N  N462  1  0.94446000  0.67860000  0.44446000  1.0
  N  N463  1  0.89526000  0.62790000  0.39526000  1.0
  N  N464  1  0.45659000  0.51720000  0.29341000  1.0
  N  N465  1  0.44446000  0.57140000  0.30554000  1.0
  N  N466  1  0.39526000  0.62210000  0.35474000  1.0
  N  N467  1  0.45659000  0.01720000  0.79341000  1.0
  N  N468  1  0.44446000  0.07140000  0.80554000  1.0
  N  N469  1  0.39526000  0.12210000  0.85474000  1.0
  N  N470  1  0.29341000  0.01720000  0.95659000  1.0
  N  N471  1  0.30554000  0.07140000  0.94446000  1.0
  N  N472  1  0.35474000  0.12210000  0.89526000  1.0
  N  N473  1  0.79341000  0.01720000  0.45659000  1.0
  N  N474  1  0.80554000  0.07140000  0.44446000  1.0
  N  N475  1  0.85474000  0.12210000  0.39526000  1.0
  N  N476  1  0.45659000  0.95659000  0.73280000  1.0
  N  N477  1  0.44446000  0.94446000  0.67860000  1.0
  N  N478  1  0.39526000  0.89526000  0.62790000  1.0
  N  N479  1  0.45659000  0.45659000  0.23280000  1.0
  N  N480  1  0.44446000  0.44446000  0.17860000  1.0
  N  N481  1  0.39526000  0.39526000  0.12790000  1.0
  N  N482  1  0.29341000  0.45659000  0.51720000  1.0
  N  N483  1  0.30554000  0.44446000  0.57140000  1.0
  N  N484  1  0.35474000  0.39526000  0.62210000  1.0
  N  N485  1  0.79341000  0.45659000  0.01720000  1.0
  N  N486  1  0.80554000  0.44446000  0.07140000  1.0
  N  N487  1  0.85474000  0.39526000  0.12210000  1.0
  N  N488  1  0.95659000  0.29341000  0.01720000  1.0
  N  N489  1  0.94446000  0.30554000  0.07140000  1.0
  N  N490  1  0.89526000  0.35474000  0.12210000  1.0
  N  N491  1  0.95659000  0.79341000  0.51720000  1.0
  N  N492  1  0.94446000  0.80554000  0.57140000  1.0
  N  N493  1  0.89526000  0.85474000  0.62210000  1.0
  N  N494  1  0.70659000  0.48280000  0.54341000  1.0
  N  N495  1  0.69446000  0.42860000  0.55554000  1.0
  N  N496  1  0.64526000  0.37790000  0.60474000  1.0
  N  N497  1  0.20659000  0.48280000  0.04341000  1.0
  N  N498  1  0.19446000  0.42860000  0.05554000  1.0
  N  N499  1  0.14526000  0.37790000  0.10474000  1.0
  N  N500  1  0.54341000  0.26720000  0.04341000  1.0
  N  N501  1  0.55554000  0.32140000  0.05554000  1.0
  N  N502  1  0.60474000  0.37210000  0.10474000  1.0
  N  N503  1  0.04341000  0.98280000  0.70659000  1.0
  N  N504  1  0.05554000  0.92860000  0.69446000  1.0
  N  N505  1  0.10474000  0.87790000  0.64526000  1.0
  N  N506  1  0.04341000  0.48280000  0.20659000  1.0
  N  N507  1  0.05554000  0.42860000  0.19446000  1.0
  N  N508  1  0.10474000  0.37790000  0.14526000  1.0
  N  N509  1  0.98280000  0.70659000  0.04341000  1.0
  N  N510  1  0.92860000  0.69446000  0.05554000  1.0
  N  N511  1  0.87790000  0.64526000  0.10474000  1.0
  N  N512  1  0.98280000  0.20659000  0.54341000  1.0
  N  N513  1  0.92860000  0.19446000  0.55554000  1.0
  N  N514  1  0.87790000  0.14526000  0.60474000  1.0
  N  N515  1  0.26720000  0.04341000  0.54341000  1.0
  N  N516  1  0.32140000  0.05554000  0.55554000  1.0
  N  N517  1  0.37210000  0.10474000  0.60474000  1.0
  N  N518  1  0.76720000  0.04341000  0.04341000  1.0
  N  N519  1  0.82140000  0.05554000  0.05554000  1.0
  N  N520  1  0.87210000  0.10474000  0.10474000  1.0
  N  N521  1  0.48280000  0.54341000  0.70659000  1.0
  N  N522  1  0.42860000  0.55554000  0.69446000  1.0
  N  N523  1  0.37790000  0.60474000  0.64526000  1.0
  N  N524  1  0.48280000  0.04341000  0.20659000  1.0
  N  N525  1  0.42860000  0.05554000  0.19446000  1.0
  N  N526  1  0.37790000  0.10474000  0.14526000  1.0
  N  N527  1  0.70659000  0.04341000  0.98280000  1.0
  N  N528  1  0.69446000  0.05554000  0.92860000  1.0
  N  N529  1  0.64526000  0.10474000  0.87790000  1.0
  N  N530  1  0.20659000  0.04341000  0.48280000  1.0
  N  N531  1  0.19446000  0.05554000  0.42860000  1.0
  N  N532  1  0.14526000  0.10474000  0.37790000  1.0
  N  N533  1  0.54341000  0.70659000  0.48280000  1.0
  N  N534  1  0.55554000  0.69446000  0.42860000  1.0
  N  N535  1  0.60474000  0.64526000  0.37790000  1.0
  N  N536  1  0.54341000  0.20659000  0.98280000  1.0
  N  N537  1  0.55554000  0.19446000  0.92860000  1.0
  N  N538  1  0.60474000  0.14526000  0.87790000  1.0
  N  N539  1  0.04341000  0.54341000  0.26720000  1.0
  N  N540  1  0.05554000  0.55554000  0.32140000  1.0
  N  N541  1  0.10474000  0.60474000  0.37210000  1.0
  N  N542  1  0.04341000  0.04341000  0.76720000  1.0
  N  N543  1  0.05554000  0.05554000  0.82140000  1.0
  N  N544  1  0.10474000  0.10474000  0.87210000  1.0
