# generated using pymatgen
data_Zn2H16C20N3O8
_symmetry_space_group_name_H-M   'P 1'
_cell_length_a   13.82240000
_cell_length_b   13.82240000
_cell_length_c   14.37600000
_cell_angle_alpha   61.91820000
_cell_angle_beta   61.91820000
_cell_angle_gamma   79.70990000
_symmetry_Int_Tables_number   1
_chemical_formula_structural   Zn2H16C20N3O8
_chemical_formula_sum   'Zn4 H32 C40 N6 O16'
_cell_volume   2134.77472392
_cell_formula_units_Z   2
loop_
 _symmetry_equiv_pos_site_id
 _symmetry_equiv_pos_as_xyz
  1  'x, y, z'
loop_
 _atom_site_type_symbol
 _atom_site_label
 _atom_site_symmetry_multiplicity
 _atom_site_fract_x
 _atom_site_fract_y
 _atom_site_fract_z
 _atom_site_occupancy
  Zn  Zn0  1  0.01934000  0.01934000  0.08497000  1
  Zn  Zn1  1  0.10439000  0.89561000  0.50000000  1
  Zn  Zn2  1  0.89561000  0.10439000  0.50000000  1
  Zn  Zn3  1  0.98066000  0.98066000  0.91503000  1
  H  H4  1  0.04050000  0.67410000  0.29780000  1
  H  H5  1  0.04160000  0.48900000  0.40370000  1
  H  H6  1  0.06930000  0.37770000  0.88470000  1
  H  H7  1  0.07410000  0.25750000  0.45900000  1
  H  H8  1  0.07410000  0.56390000  0.77150000  1
  H  H9  1  0.08640000  0.76220000  0.77550000  1
  H  H10  1  0.11160000  0.82920000  0.82500000  1
  H  H11  1  0.14920000  0.81560000  0.30640000  1
  H  H12  1  0.17080000  0.88840000  0.17500000  1
  H  H13  1  0.18440000  0.85080000  0.69360000  1
  H  H14  1  0.23780000  0.91360000  0.22450000  1
  H  H15  1  0.25750000  0.07410000  0.45900000  1
  H  H16  1  0.32590000  0.95950000  0.70220000  1
  H  H17  1  0.37770000  0.06930000  0.88470000  1
  H  H18  1  0.43610000  0.92590000  0.22850000  1
  H  H19  1  0.48900000  0.04160000  0.40370000  1
  H  H20  1  0.51100000  0.95840000  0.59630000  1
  H  H21  1  0.56390000  0.07410000  0.77150000  1
  H  H22  1  0.62230000  0.93070000  0.11530000  1
  H  H23  1  0.67410000  0.04050000  0.29780000  1
  H  H24  1  0.74250000  0.92590000  0.54100000  1
  H  H25  1  0.76220000  0.08640000  0.77550000  1
  H  H26  1  0.81560000  0.14920000  0.30640000  1
  H  H27  1  0.82920000  0.11160000  0.82500000  1
  H  H28  1  0.85080000  0.18440000  0.69360000  1
  H  H29  1  0.88840000  0.17080000  0.17500000  1
  H  H30  1  0.91360000  0.23780000  0.22450000  1
  H  H31  1  0.92590000  0.43610000  0.22850000  1
  H  H32  1  0.92590000  0.74250000  0.54100000  1
  H  H33  1  0.93070000  0.62230000  0.11530000  1
  H  H34  1  0.95840000  0.51100000  0.59630000  1
  H  H35  1  0.95950000  0.32590000  0.70220000  1
  C  C36  1  0.00750000  0.20910000  0.88250000  1
  C  C37  1  0.01390000  0.51590000  0.34890000  1
  C  C38  1  0.01440000  0.33180000  0.80670000  1
  C  C39  1  0.01700000  0.62640000  0.28270000  1
  C  C40  1  0.02980000  0.55700000  0.66380000  1
  C  C41  1  0.03690000  0.91730000  0.72100000  1
  C  C42  1  0.03850000  0.67830000  0.58510000  1
  C  C43  1  0.04850000  0.40350000  0.82450000  1
  C  C44  1  0.05360000  0.51600000  0.75440000  1
  C  C45  1  0.08270000  0.96310000  0.27900000  1
  C  C46  1  0.11140000  0.83240000  0.75690000  1
  C  C47  1  0.16760000  0.88860000  0.24310000  1
  C  C48  1  0.20910000  0.00750000  0.88250000  1
  C  C49  1  0.32170000  0.96150000  0.41490000  1
  C  C50  1  0.33180000  0.01440000  0.80670000  1
  C  C51  1  0.37360000  0.98300000  0.71730000  1
  C  C52  1  0.40350000  0.04850000  0.82450000  1
  C  C53  1  0.44300000  0.97020000  0.33620000  1
  C  C54  1  0.48400000  0.94640000  0.24560000  1
  C  C55  1  0.48410000  0.98610000  0.65110000  1
  C  C56  1  0.51590000  0.01390000  0.34890000  1
  C  C57  1  0.51600000  0.05360000  0.75440000  1
  C  C58  1  0.55700000  0.02980000  0.66380000  1
  C  C59  1  0.59650000  0.95150000  0.17550000  1
  C  C60  1  0.62640000  0.01700000  0.28270000  1
  C  C61  1  0.66820000  0.98560000  0.19330000  1
  C  C62  1  0.67830000  0.03850000  0.58510000  1
  C  C63  1  0.79090000  0.99250000  0.11750000  1
  C  C64  1  0.83240000  0.11140000  0.75690000  1
  C  C65  1  0.88860000  0.16760000  0.24310000  1
  C  C66  1  0.91730000  0.03690000  0.72100000  1
  C  C67  1  0.94640000  0.48400000  0.24560000  1
  C  C68  1  0.95150000  0.59650000  0.17550000  1
  C  C69  1  0.96150000  0.32170000  0.41490000  1
  C  C70  1  0.96310000  0.08270000  0.27900000  1
  C  C71  1  0.97020000  0.44300000  0.33620000  1
  C  C72  1  0.98300000  0.37360000  0.71730000  1
  C  C73  1  0.98560000  0.66820000  0.19330000  1
  C  C74  1  0.98610000  0.48410000  0.65110000  1
  C  C75  1  0.99250000  0.79090000  0.11750000  1
  N  N76  1  0.02500000  0.94900000  0.62410000  1
  N  N77  1  0.02780000  0.02780000  0.21770000  1
  N  N78  1  0.05100000  0.97500000  0.37590000  1
  N  N79  1  0.94900000  0.02500000  0.62410000  1
  N  N80  1  0.97220000  0.97220000  0.78230000  1
  N  N81  1  0.97500000  0.05100000  0.37590000  1
  O  O82  1  0.01090000  0.28570000  0.47680000  1
  O  O83  1  0.01210000  0.85230000  0.14910000  1
  O  O84  1  0.02210000  0.17750000  0.97180000  1
  O  O85  1  0.08270000  0.73670000  0.59240000  1
  O  O86  1  0.14770000  0.98790000  0.85090000  1
  O  O87  1  0.17750000  0.02210000  0.97180000  1
  O  O88  1  0.26330000  0.91730000  0.40760000  1
  O  O89  1  0.28570000  0.01090000  0.47680000  1
  O  O90  1  0.71430000  0.98910000  0.52320000  1
  O  O91  1  0.73670000  0.08270000  0.59240000  1
  O  O92  1  0.82250000  0.97790000  0.02820000  1
  O  O93  1  0.85230000  0.01210000  0.14910000  1
  O  O94  1  0.91730000  0.26330000  0.40760000  1
  O  O95  1  0.97790000  0.82250000  0.02820000  1
  O  O96  1  0.98790000  0.14770000  0.85090000  1
  O  O97  1  0.98910000  0.71430000  0.52320000  1
