# generated using pymatgen
data_AgH6C4N3
_symmetry_space_group_name_H-M   'P 1'
_cell_length_a   11.70340000
_cell_length_b   11.98090000
_cell_length_c   12.53160000
_cell_angle_alpha   107.48900000
_cell_angle_beta   106.57400000
_cell_angle_gamma   112.34100000
_symmetry_Int_Tables_number   1
_chemical_formula_structural   AgH6C4N3
_chemical_formula_sum   'Ag8 H48 C32 N24'
_cell_volume   1382.07759686
_cell_formula_units_Z   8
loop_
 _symmetry_equiv_pos_site_id
 _symmetry_equiv_pos_as_xyz
  1  'x, y, z'
loop_
 _atom_site_type_symbol
 _atom_site_label
 _atom_site_symmetry_multiplicity
 _atom_site_fract_x
 _atom_site_fract_y
 _atom_site_fract_z
 _atom_site_occupancy
  Ag  Ag0  1  0.26869000  0.71138000  0.12556000  1
  Ag  Ag1  1  0.30407000  0.62171000  0.39710000  1
  Ag  Ag2  1  0.35687000  0.41418000  0.12556000  1
  Ag  Ag3  1  0.40697000  0.22461000  0.60290000  1
  Ag  Ag4  1  0.59303000  0.77539000  0.39710000  1
  Ag  Ag5  1  0.64313000  0.58582000  0.87444000  1
  Ag  Ag6  1  0.69593000  0.37829000  0.60290000  1
  Ag  Ag7  1  0.73131000  0.28862000  0.87444000  1
  H  H8  1  0.00710000  0.53230000  0.64740000  1
  H  H9  1  0.01710000  0.26710000  0.92060000  1
  H  H10  1  0.02040000  0.61080000  0.26240000  1
  H  H11  1  0.03390000  0.14150000  0.26920000  1
  H  H12  1  0.04210000  0.17050000  0.66640000  1
  H  H13  1  0.05660000  0.27860000  0.36140000  1
  H  H14  1  0.09630000  0.18820000  0.41380000  1
  H  H15  1  0.10300000  0.12120000  0.75880000  1
  H  H16  1  0.12430000  0.49590000  0.66640000  1
  H  H17  1  0.12830000  0.49430000  0.84900000  1
  H  H18  1  0.14030000  0.11510000  0.64740000  1
  H  H19  1  0.15580000  0.63760000  0.75880000  1
  H  H20  1  0.18250000  0.77440000  0.58620000  1
  H  H21  1  0.19520000  0.91720000  0.63860000  1
  H  H22  1  0.22070000  0.35470000  0.84900000  1
  H  H23  1  0.22950000  0.32270000  0.30040000  1
  H  H24  1  0.25800000  0.34840000  0.73760000  1
  H  H25  1  0.26470000  0.87230000  0.73080000  1
  H  H26  1  0.26770000  0.22890000  0.34840000  1
  H  H27  1  0.28950000  0.00410000  0.30580000  1
  H  H28  1  0.40350000  0.65350000  0.92060000  1
  H  H29  1  0.41930000  0.88050000  0.65160000  1
  H  H30  1  0.42910000  0.02230000  0.69960000  1
  H  H31  1  0.48370000  0.69830000  0.69420000  1
  H  H32  1  0.51630000  0.30170000  0.30580000  1
  H  H33  1  0.57090000  0.97770000  0.30040000  1
  H  H34  1  0.58070000  0.11950000  0.34840000  1
  H  H35  1  0.59650000  0.34650000  0.07940000  1
  H  H36  1  0.71050000  0.99590000  0.69420000  1
  H  H37  1  0.73230000  0.77110000  0.65160000  1
  H  H38  1  0.73530000  0.12770000  0.26920000  1
  H  H39  1  0.74200000  0.65160000  0.26240000  1
  H  H40  1  0.77050000  0.67730000  0.69960000  1
  H  H41  1  0.77930000  0.64530000  0.15100000  1
  H  H42  1  0.80480000  0.08280000  0.36140000  1
  H  H43  1  0.81750000  0.22560000  0.41380000  1
  H  H44  1  0.84420000  0.36240000  0.24120000  1
  H  H45  1  0.85970000  0.88490000  0.35260000  1
  H  H46  1  0.87170000  0.50570000  0.15100000  1
  H  H47  1  0.87570000  0.50410000  0.33360000  1
  H  H48  1  0.89700000  0.87880000  0.24120000  1
  H  H49  1  0.90370000  0.81180000  0.58620000  1
  H  H50  1  0.94340000  0.72140000  0.63860000  1
  H  H51  1  0.95790000  0.82950000  0.33360000  1
  H  H52  1  0.96610000  0.85850000  0.73080000  1
  H  H53  1  0.97960000  0.38920000  0.73760000  1
  H  H54  1  0.98290000  0.73290000  0.07940000  1
  H  H55  1  0.99290000  0.46770000  0.35260000  1
  C  C56  1  0.01223000  0.44873000  0.13986000  1
  C  C57  1  0.03540000  0.32890000  0.99800000  1
  C  C58  1  0.04730000  0.48550000  0.78920000  1
  C  C59  1  0.08720000  0.54290000  0.70860000  1
  C  C60  1  0.09280000  0.21860000  0.35100000  1
  C  C61  1  0.12140000  0.16570000  0.70860000  1
  C  C62  1  0.23360000  0.29140000  0.36360000  1
  C  C63  1  0.24180000  0.86760000  0.64900000  1
  C  C64  1  0.24190000  0.30370000  0.78920000  1
  C  C65  1  0.30200000  0.96100000  0.35500000  1
  C  C66  1  0.33260000  0.41080000  0.49100000  1
  C  C67  1  0.34160000  0.91980000  0.50900000  1
  C  C68  1  0.37000000  0.92780000  0.63640000  1
  C  C69  1  0.37237000  0.30887000  0.86014000  1
  C  C70  1  0.44700000  0.60600000  0.64500000  1
  C  C71  1  0.46260000  0.66910000  0.99800000  1
  C  C72  1  0.53740000  0.33090000  0.00200000  1
  C  C73  1  0.55300000  0.39400000  0.35500000  1
  C  C74  1  0.62763000  0.69113000  0.13986000  1
  C  C75  1  0.63000000  0.07220000  0.36360000  1
  C  C76  1  0.65840000  0.08020000  0.49100000  1
  C  C77  1  0.66740000  0.58920000  0.50900000  1
  C  C78  1  0.69800000  0.03900000  0.64500000  1
  C  C79  1  0.75810000  0.69630000  0.21080000  1
  C  C80  1  0.75820000  0.13240000  0.35100000  1
  C  C81  1  0.76640000  0.70860000  0.63640000  1
  C  C82  1  0.87860000  0.83430000  0.29140000  1
  C  C83  1  0.90720000  0.78140000  0.64900000  1
  C  C84  1  0.91280000  0.45710000  0.29140000  1
  C  C85  1  0.95270000  0.51450000  0.21080000  1
  C  C86  1  0.96460000  0.67110000  0.00200000  1
  C  C87  1  0.98777000  0.55127000  0.86014000  1
  N  N88  1  0.06011000  0.64631000  0.98062000  1
  N  N89  1  0.14276000  0.47956000  0.19032000  1
  N  N90  1  0.15766000  0.39976000  0.09632000  1
  N  N91  1  0.29043000  0.84173000  0.31186000  1
  N  N92  1  0.31610000  0.81420000  0.41160000  1
  N  N93  1  0.33415000  0.01605000  0.47830000  1
  N  N94  1  0.35585000  0.53775000  0.52170000  1
  N  N95  1  0.40450000  0.40260000  0.58840000  1
  N  N96  1  0.42051000  0.33431000  0.98062000  1
  N  N97  1  0.43866000  0.69656000  0.09632000  1
  N  N98  1  0.45244000  0.28924000  0.80968000  1
  N  N99  1  0.47857000  0.52987000  0.68814000  1
  N  N100  1  0.52143000  0.47013000  0.31186000  1
  N  N101  1  0.54756000  0.71076000  0.19032000  1
  N  N102  1  0.56134000  0.30344000  0.90368000  1
  N  N103  1  0.57949000  0.66569000  0.01938000  1
  N  N104  1  0.59550000  0.59740000  0.41160000  1
  N  N105  1  0.64415000  0.46225000  0.47830000  1
  N  N106  1  0.66585000  0.98395000  0.52170000  1
  N  N107  1  0.68390000  0.18580000  0.58840000  1
  N  N108  1  0.70957000  0.15827000  0.68814000  1
  N  N109  1  0.84234000  0.60024000  0.90368000  1
  N  N110  1  0.85724000  0.52044000  0.80968000  1
  N  N111  1  0.93989000  0.35369000  0.01938000  1
