# generated using pymatgen
data_Cu4H24WC36S4IN12
_symmetry_space_group_name_H-M   'P 1'
_cell_length_a   19.42560000
_cell_length_b   21.19490000
_cell_length_c   26.64680000
_cell_angle_alpha   90.00000000
_cell_angle_beta   90.00000000
_cell_angle_gamma   90.00000000
_symmetry_Int_Tables_number   1
_chemical_formula_structural   Cu4H24WC36S4IN12
_chemical_formula_sum   'Cu32 H192 W8 C288 S32 I8 N96'
_cell_volume   10971.11774190
_cell_formula_units_Z   8
loop_
 _symmetry_equiv_pos_site_id
 _symmetry_equiv_pos_as_xyz
  1  'x, y, z'
loop_
 _atom_site_type_symbol
 _atom_site_label
 _atom_site_symmetry_multiplicity
 _atom_site_fract_x
 _atom_site_fract_y
 _atom_site_fract_z
 _atom_site_occupancy
  Cu  Cu0  1  0.16168000  0.16535000  0.81602000  1
  Cu  Cu1  1  0.16168000  0.33465000  0.31602000  1
  Cu  Cu2  1  0.17049000  0.07419000  0.69802000  1
  Cu  Cu3  1  0.17049000  0.42581000  0.19802000  1
  Cu  Cu4  1  0.18015000  0.67349000  0.74619000  1
  Cu  Cu5  1  0.18015000  0.82651000  0.24619000  1
  Cu  Cu6  1  0.22691000  0.22226000  0.62839000  1
  Cu  Cu7  1  0.22691000  0.27774000  0.12839000  1
  Cu  Cu8  1  0.27309000  0.72226000  0.62839000  1
  Cu  Cu9  1  0.27309000  0.77774000  0.12839000  1
  Cu  Cu10  1  0.31985000  0.17349000  0.74619000  1
  Cu  Cu11  1  0.31985000  0.32651000  0.24619000  1
  Cu  Cu12  1  0.32951000  0.57419000  0.69802000  1
  Cu  Cu13  1  0.32951000  0.92581000  0.19802000  1
  Cu  Cu14  1  0.33832000  0.66535000  0.81602000  1
  Cu  Cu15  1  0.33832000  0.83465000  0.31602000  1
  Cu  Cu16  1  0.66168000  0.16535000  0.68398000  1
  Cu  Cu17  1  0.66168000  0.33465000  0.18398000  1
  Cu  Cu18  1  0.67049000  0.07419000  0.80198000  1
  Cu  Cu19  1  0.67049000  0.42581000  0.30198000  1
  Cu  Cu20  1  0.68015000  0.67349000  0.75381000  1
  Cu  Cu21  1  0.68015000  0.82651000  0.25381000  1
  Cu  Cu22  1  0.72691000  0.22226000  0.87161000  1
  Cu  Cu23  1  0.72691000  0.27774000  0.37161000  1
  Cu  Cu24  1  0.77309000  0.72226000  0.87161000  1
  Cu  Cu25  1  0.77309000  0.77774000  0.37161000  1
  Cu  Cu26  1  0.81985000  0.17349000  0.75381000  1
  Cu  Cu27  1  0.81985000  0.32651000  0.25381000  1
  Cu  Cu28  1  0.82951000  0.57419000  0.80198000  1
  Cu  Cu29  1  0.82951000  0.92581000  0.30198000  1
  Cu  Cu30  1  0.83832000  0.66535000  0.68398000  1
  Cu  Cu31  1  0.83832000  0.83465000  0.18398000  1
  H  H32  1  0.00300000  0.11540000  0.56270000  1
  H  H33  1  0.00300000  0.38460000  0.06270000  1
  H  H34  1  0.01070000  0.21700000  0.87380000  1
  H  H35  1  0.01070000  0.28300000  0.37380000  1
  H  H36  1  0.01640000  0.18000000  0.24780000  1
  H  H37  1  0.01640000  0.32000000  0.74780000  1
  H  H38  1  0.01920000  0.50150000  0.80430000  1
  H  H39  1  0.01920000  0.99850000  0.30430000  1
  H  H40  1  0.04800000  0.11980000  0.63940000  1
  H  H41  1  0.04800000  0.38020000  0.13940000  1
  H  H42  1  0.07010000  0.56770000  0.74810000  1
  H  H43  1  0.07010000  0.93230000  0.24810000  1
  H  H44  1  0.07630000  0.73140000  0.27900000  1
  H  H45  1  0.07630000  0.76860000  0.77900000  1
  H  H46  1  0.08380000  0.66450000  0.66010000  1
  H  H47  1  0.08380000  0.83550000  0.16010000  1
  H  H48  1  0.08560000  0.67910000  0.02330000  1
  H  H49  1  0.08560000  0.82090000  0.52330000  1
  H  H50  1  0.10420000  0.60610000  0.16230000  1
  H  H51  1  0.10420000  0.89390000  0.66230000  1
  H  H52  1  0.10710000  0.24350000  0.96860000  1
  H  H53  1  0.10710000  0.25650000  0.46860000  1
  H  H54  1  0.11580000  0.24540000  0.05480000  1
  H  H55  1  0.11580000  0.25460000  0.55480000  1
  H  H56  1  0.15390000  0.50660000  0.02210000  1
  H  H57  1  0.15390000  0.99340000  0.52210000  1
  H  H58  1  0.15530000  0.01970000  0.79520000  1
  H  H59  1  0.15530000  0.48030000  0.29520000  1
  H  H60  1  0.15990000  0.09520000  0.23280000  1
  H  H61  1  0.15990000  0.40480000  0.73280000  1
  H  H62  1  0.16490000  0.74330000  0.55090000  1
  H  H63  1  0.16490000  0.75670000  0.05090000  1
  H  H64  1  0.16710000  0.55430000  0.90690000  1
  H  H65  1  0.16710000  0.94570000  0.40690000  1
  H  H66  1  0.19010000  0.66840000  0.17540000  1
  H  H67  1  0.19010000  0.83160000  0.67540000  1
  H  H68  1  0.19210000  0.50200000  0.10460000  1
  H  H69  1  0.19210000  0.99800000  0.60460000  1
  H  H70  1  0.20690000  0.62380000  0.85200000  1
  H  H71  1  0.20690000  0.87620000  0.35200000  1
  H  H72  1  0.21580000  0.55510000  0.35090000  1
  H  H73  1  0.21580000  0.94490000  0.85090000  1
  H  H74  1  0.21980000  0.02540000  0.18630000  1
  H  H75  1  0.21980000  0.47460000  0.68630000  1
  H  H76  1  0.23200000  0.62740000  0.54700000  1
  H  H77  1  0.23200000  0.87260000  0.04700000  1
  H  H78  1  0.24030000  0.11170000  0.46080000  1
  H  H79  1  0.24030000  0.38830000  0.96080000  1
  H  H80  1  0.25970000  0.61170000  0.46080000  1
  H  H81  1  0.25970000  0.88830000  0.96080000  1
  H  H82  1  0.26800000  0.12740000  0.54700000  1
  H  H83  1  0.26800000  0.37260000  0.04700000  1
  H  H84  1  0.28020000  0.52540000  0.18630000  1
  H  H85  1  0.28020000  0.97460000  0.68630000  1
  H  H86  1  0.28420000  0.05510000  0.35090000  1
  H  H87  1  0.28420000  0.44490000  0.85090000  1
  H  H88  1  0.29310000  0.12380000  0.85200000  1
  H  H89  1  0.29310000  0.37620000  0.35200000  1
  H  H90  1  0.30790000  0.00200000  0.10460000  1
  H  H91  1  0.30790000  0.49800000  0.60460000  1
  H  H92  1  0.30990000  0.16840000  0.17540000  1
  H  H93  1  0.30990000  0.33160000  0.67540000  1
  H  H94  1  0.33290000  0.05430000  0.90690000  1
  H  H95  1  0.33290000  0.44570000  0.40690000  1
  H  H96  1  0.33510000  0.24330000  0.55090000  1
  H  H97  1  0.33510000  0.25670000  0.05090000  1
  H  H98  1  0.34010000  0.59520000  0.23280000  1
  H  H99  1  0.34010000  0.90480000  0.73280000  1
  H  H100  1  0.34470000  0.51970000  0.79520000  1
  H  H101  1  0.34470000  0.98030000  0.29520000  1
  H  H102  1  0.34610000  0.00660000  0.02210000  1
  H  H103  1  0.34610000  0.49340000  0.52210000  1
  H  H104  1  0.38420000  0.74540000  0.05480000  1
  H  H105  1  0.38420000  0.75460000  0.55480000  1
  H  H106  1  0.39290000  0.74350000  0.96860000  1
  H  H107  1  0.39290000  0.75650000  0.46860000  1
  H  H108  1  0.39580000  0.10610000  0.16230000  1
  H  H109  1  0.39580000  0.39390000  0.66230000  1
  H  H110  1  0.41440000  0.17910000  0.02330000  1
  H  H111  1  0.41440000  0.32090000  0.52330000  1
  H  H112  1  0.41620000  0.16450000  0.66010000  1
  H  H113  1  0.41620000  0.33550000  0.16010000  1
  H  H114  1  0.42370000  0.23140000  0.27900000  1
  H  H115  1  0.42370000  0.26860000  0.77900000  1
  H  H116  1  0.42990000  0.06770000  0.74810000  1
  H  H117  1  0.42990000  0.43230000  0.24810000  1
  H  H118  1  0.45200000  0.61980000  0.63940000  1
  H  H119  1  0.45200000  0.88020000  0.13940000  1
  H  H120  1  0.48080000  0.00150000  0.80430000  1
  H  H121  1  0.48080000  0.49850000  0.30430000  1
  H  H122  1  0.48360000  0.68000000  0.24780000  1
  H  H123  1  0.48360000  0.82000000  0.74780000  1
  H  H124  1  0.48930000  0.71700000  0.87380000  1
  H  H125  1  0.48930000  0.78300000  0.37380000  1
  H  H126  1  0.49700000  0.61540000  0.56270000  1
  H  H127  1  0.49700000  0.88460000  0.06270000  1
  H  H128  1  0.50300000  0.11540000  0.93730000  1
  H  H129  1  0.50300000  0.38460000  0.43730000  1
  H  H130  1  0.51070000  0.21700000  0.62620000  1
  H  H131  1  0.51070000  0.28300000  0.12620000  1
  H  H132  1  0.51640000  0.18000000  0.25220000  1
  H  H133  1  0.51640000  0.32000000  0.75220000  1
  H  H134  1  0.51920000  0.50150000  0.69570000  1
  H  H135  1  0.51920000  0.99850000  0.19570000  1
  H  H136  1  0.54800000  0.11980000  0.86060000  1
  H  H137  1  0.54800000  0.38020000  0.36060000  1
  H  H138  1  0.57010000  0.56770000  0.75190000  1
  H  H139  1  0.57010000  0.93230000  0.25190000  1
  H  H140  1  0.57630000  0.73140000  0.22100000  1
  H  H141  1  0.57630000  0.76860000  0.72100000  1
  H  H142  1  0.58380000  0.66450000  0.83990000  1
  H  H143  1  0.58380000  0.83550000  0.33990000  1
  H  H144  1  0.58560000  0.67910000  0.47670000  1
  H  H145  1  0.58560000  0.82090000  0.97670000  1
  H  H146  1  0.60420000  0.60610000  0.33770000  1
  H  H147  1  0.60420000  0.89390000  0.83770000  1
  H  H148  1  0.60710000  0.24350000  0.53140000  1
  H  H149  1  0.60710000  0.25650000  0.03140000  1
  H  H150  1  0.61580000  0.24540000  0.44520000  1
  H  H151  1  0.61580000  0.25460000  0.94520000  1
  H  H152  1  0.65390000  0.50660000  0.47790000  1
  H  H153  1  0.65390000  0.99340000  0.97790000  1
  H  H154  1  0.65530000  0.01970000  0.70480000  1
  H  H155  1  0.65530000  0.48030000  0.20480000  1
  H  H156  1  0.65990000  0.09520000  0.26720000  1
  H  H157  1  0.65990000  0.40480000  0.76720000  1
  H  H158  1  0.66490000  0.74330000  0.94910000  1
  H  H159  1  0.66490000  0.75670000  0.44910000  1
  H  H160  1  0.66710000  0.55430000  0.59310000  1
  H  H161  1  0.66710000  0.94570000  0.09310000  1
  H  H162  1  0.69010000  0.66840000  0.32460000  1
  H  H163  1  0.69010000  0.83160000  0.82460000  1
  H  H164  1  0.69210000  0.50200000  0.39540000  1
  H  H165  1  0.69210000  0.99800000  0.89540000  1
  H  H166  1  0.70690000  0.62380000  0.64800000  1
  H  H167  1  0.70690000  0.87620000  0.14800000  1
  H  H168  1  0.71580000  0.55510000  0.14910000  1
  H  H169  1  0.71580000  0.94490000  0.64910000  1
  H  H170  1  0.71980000  0.02540000  0.31370000  1
  H  H171  1  0.71980000  0.47460000  0.81370000  1
  H  H172  1  0.73200000  0.62740000  0.95300000  1
  H  H173  1  0.73200000  0.87260000  0.45300000  1
  H  H174  1  0.74030000  0.11170000  0.03920000  1
  H  H175  1  0.74030000  0.38830000  0.53920000  1
  H  H176  1  0.75970000  0.61170000  0.03920000  1
  H  H177  1  0.75970000  0.88830000  0.53920000  1
  H  H178  1  0.76800000  0.12740000  0.95300000  1
  H  H179  1  0.76800000  0.37260000  0.45300000  1
  H  H180  1  0.78020000  0.52540000  0.31370000  1
  H  H181  1  0.78020000  0.97460000  0.81370000  1
  H  H182  1  0.78420000  0.05510000  0.14910000  1
  H  H183  1  0.78420000  0.44490000  0.64910000  1
  H  H184  1  0.79310000  0.12380000  0.64800000  1
  H  H185  1  0.79310000  0.37620000  0.14800000  1
  H  H186  1  0.80790000  0.00200000  0.39540000  1
  H  H187  1  0.80790000  0.49800000  0.89540000  1
  H  H188  1  0.80990000  0.16840000  0.32460000  1
  H  H189  1  0.80990000  0.33160000  0.82460000  1
  H  H190  1  0.83290000  0.05430000  0.59310000  1
  H  H191  1  0.83290000  0.44570000  0.09310000  1
  H  H192  1  0.83510000  0.24330000  0.94910000  1
  H  H193  1  0.83510000  0.25670000  0.44910000  1
  H  H194  1  0.84010000  0.59520000  0.26720000  1
  H  H195  1  0.84010000  0.90480000  0.76720000  1
  H  H196  1  0.84470000  0.51970000  0.70480000  1
  H  H197  1  0.84470000  0.98030000  0.20480000  1
  H  H198  1  0.84610000  0.00660000  0.47790000  1
  H  H199  1  0.84610000  0.49340000  0.97790000  1
  H  H200  1  0.88420000  0.74540000  0.44520000  1
  H  H201  1  0.88420000  0.75460000  0.94520000  1
  H  H202  1  0.89290000  0.74350000  0.53140000  1
  H  H203  1  0.89290000  0.75650000  0.03140000  1
  H  H204  1  0.89580000  0.10610000  0.33770000  1
  H  H205  1  0.89580000  0.39390000  0.83770000  1
  H  H206  1  0.91440000  0.17910000  0.47670000  1
  H  H207  1  0.91440000  0.32090000  0.97670000  1
  H  H208  1  0.91620000  0.16450000  0.83990000  1
  H  H209  1  0.91620000  0.33550000  0.33990000  1
  H  H210  1  0.92370000  0.23140000  0.22100000  1
  H  H211  1  0.92370000  0.26860000  0.72100000  1
  H  H212  1  0.92990000  0.06770000  0.75190000  1
  H  H213  1  0.92990000  0.43230000  0.25190000  1
  H  H214  1  0.95200000  0.61980000  0.86060000  1
  H  H215  1  0.95200000  0.88020000  0.36060000  1
  H  H216  1  0.98080000  0.00150000  0.69570000  1
  H  H217  1  0.98080000  0.49850000  0.19570000  1
  H  H218  1  0.98360000  0.68000000  0.25220000  1
  H  H219  1  0.98360000  0.82000000  0.75220000  1
  H  H220  1  0.98930000  0.71700000  0.62620000  1
  H  H221  1  0.98930000  0.78300000  0.12620000  1
  H  H222  1  0.99700000  0.61540000  0.93730000  1
  H  H223  1  0.99700000  0.88460000  0.43730000  1
  W  W224  1  0.18706000  0.19792000  0.72264000  1
  W  W225  1  0.18706000  0.30208000  0.22264000  1
  W  W226  1  0.31294000  0.69792000  0.72264000  1
  W  W227  1  0.31294000  0.80208000  0.22264000  1
  W  W228  1  0.68706000  0.19792000  0.77736000  1
  W  W229  1  0.68706000  0.30208000  0.27736000  1
  W  W230  1  0.81294000  0.69792000  0.77736000  1
  W  W231  1  0.81294000  0.80208000  0.27736000  1
  C  C232  1  0.00430000  0.70970000  0.23140000  1
  C  C233  1  0.00430000  0.79030000  0.73140000  1
  C  C234  1  0.00690000  0.72950000  0.65710000  1
  C  C235  1  0.00690000  0.77050000  0.15710000  1
  C  C236  1  0.02020000  0.59580000  0.07690000  1
  C  C237  1  0.02020000  0.90420000  0.57690000  1
  C  C238  1  0.02320000  0.22200000  0.31760000  1
  C  C239  1  0.02320000  0.27800000  0.81760000  1
  C  C240  1  0.04330000  0.09350000  0.56990000  1
  C  C241  1  0.04330000  0.40650000  0.06990000  1
  C  C242  1  0.05510000  0.02230000  0.39780000  1
  C  C243  1  0.05510000  0.47770000  0.89780000  1
  C  C244  1  0.05580000  0.05980000  0.47790000  1
  C  C245  1  0.05580000  0.44020000  0.97790000  1
  C  C246  1  0.05820000  0.52430000  0.81320000  1
  C  C247  1  0.05820000  0.97570000  0.31320000  1
  C  C248  1  0.06030000  0.74140000  0.24710000  1
  C  C249  1  0.06030000  0.75860000  0.74710000  1
  C  C250  1  0.06440000  0.69820000  0.67740000  1
  C  C251  1  0.06440000  0.80180000  0.17740000  1
  C  C252  1  0.06910000  0.09380000  0.61590000  1
  C  C253  1  0.06910000  0.40620000  0.11590000  1
  C  C254  1  0.07780000  0.05910000  0.53170000  1
  C  C255  1  0.07780000  0.44090000  0.03170000  1
  C  C256  1  0.08120000  0.63690000  0.08920000  1
  C  C257  1  0.08120000  0.86310000  0.58920000  1
  C  C258  1  0.08190000  0.18830000  0.33730000  1
  C  C259  1  0.08190000  0.31170000  0.83730000  1
  C  C260  1  0.08740000  0.56530000  0.78060000  1
  C  C261  1  0.08740000  0.93470000  0.28060000  1
  C  C262  1  0.08850000  0.51710000  0.86130000  1
  C  C263  1  0.08850000  0.98290000  0.36130000  1
  C  C264  1  0.10330000  0.67830000  0.05570000  1
  C  C265  1  0.10330000  0.82170000  0.55570000  1
  C  C266  1  0.11760000  0.63450000  0.13750000  1
  C  C267  1  0.11760000  0.86550000  0.63750000  1
  C  C268  1  0.13280000  0.02000000  0.54530000  1
  C  C269  1  0.13280000  0.48000000  0.04530000  1
  C  C270  1  0.13420000  0.22630000  0.48440000  1
  C  C271  1  0.13420000  0.27370000  0.98440000  1
  C  C272  1  0.14550000  0.23000000  0.53560000  1
  C  C273  1  0.14550000  0.27000000  0.03560000  1
  C  C274  1  0.14710000  0.55760000  0.87530000  1
  C  C275  1  0.14710000  0.94240000  0.37530000  1
  C  C276  1  0.15380000  0.16700000  0.40310000  1
  C  C277  1  0.15380000  0.33300000  0.90310000  1
  C  C278  1  0.15460000  0.02270000  0.59540000  1
  C  C279  1  0.15460000  0.47730000  0.09540000  1
  C  C280  1  0.15570000  0.72200000  0.07120000  1
  C  C281  1  0.15570000  0.77800000  0.57120000  1
  C  C282  1  0.16230000  0.17920000  0.45740000  1
  C  C283  1  0.16230000  0.32080000  0.95740000  1
  C  C284  1  0.16750000  0.67170000  0.14470000  1
  C  C285  1  0.16750000  0.82830000  0.64470000  1
  C  C286  1  0.17040000  0.59800000  0.84260000  1
  C  C287  1  0.17040000  0.90200000  0.34260000  1
  C  C288  1  0.17260000  0.12160000  0.33120000  1
  C  C289  1  0.17260000  0.37840000  0.83120000  1
  C  C290  1  0.19130000  0.50470000  0.28280000  1
  C  C291  1  0.19130000  0.99530000  0.78280000  1
  C  C292  1  0.19680000  0.07340000  0.24680000  1
  C  C293  1  0.19680000  0.42660000  0.74680000  1
  C  C294  1  0.21470000  0.08170000  0.29560000  1
  C  C295  1  0.21470000  0.41830000  0.79560000  1
  C  C296  1  0.21690000  0.14170000  0.47970000  1
  C  C297  1  0.21690000  0.35830000  0.97970000  1
  C  C298  1  0.22880000  0.54930000  0.31760000  1
  C  C299  1  0.22880000  0.95070000  0.81760000  1
  C  C300  1  0.23400000  0.15180000  0.53180000  1
  C  C301  1  0.23400000  0.34820000  0.03180000  1
  C  C302  1  0.23460000  0.03210000  0.21910000  1
  C  C303  1  0.23460000  0.46790000  0.71910000  1
  C  C304  1  0.26540000  0.53210000  0.21910000  1
  C  C305  1  0.26540000  0.96790000  0.71910000  1
  C  C306  1  0.26600000  0.65180000  0.53180000  1
  C  C307  1  0.26600000  0.84820000  0.03180000  1
  C  C308  1  0.27120000  0.04930000  0.31760000  1
  C  C309  1  0.27120000  0.45070000  0.81760000  1
  C  C310  1  0.28310000  0.64170000  0.47970000  1
  C  C311  1  0.28310000  0.85830000  0.97970000  1
  C  C312  1  0.28530000  0.58170000  0.29560000  1
  C  C313  1  0.28530000  0.91830000  0.79560000  1
  C  C314  1  0.30320000  0.57340000  0.24680000  1
  C  C315  1  0.30320000  0.92660000  0.74680000  1
  C  C316  1  0.30870000  0.00470000  0.28280000  1
  C  C317  1  0.30870000  0.49530000  0.78280000  1
  C  C318  1  0.32740000  0.62160000  0.33120000  1
  C  C319  1  0.32740000  0.87840000  0.83120000  1
  C  C320  1  0.32960000  0.09800000  0.84260000  1
  C  C321  1  0.32960000  0.40200000  0.34260000  1
  C  C322  1  0.33250000  0.17170000  0.14470000  1
  C  C323  1  0.33250000  0.32830000  0.64470000  1
  C  C324  1  0.33770000  0.67920000  0.45740000  1
  C  C325  1  0.33770000  0.82080000  0.95740000  1
  C  C326  1  0.34430000  0.22200000  0.07120000  1
  C  C327  1  0.34430000  0.27800000  0.57120000  1
  C  C328  1  0.34540000  0.52270000  0.59540000  1
  C  C329  1  0.34540000  0.97730000  0.09540000  1
  C  C330  1  0.34620000  0.66700000  0.40310000  1
  C  C331  1  0.34620000  0.83300000  0.90310000  1
  C  C332  1  0.35290000  0.05760000  0.87530000  1
  C  C333  1  0.35290000  0.44240000  0.37530000  1
  C  C334  1  0.35450000  0.73000000  0.53560000  1
  C  C335  1  0.35450000  0.77000000  0.03560000  1
  C  C336  1  0.36580000  0.72630000  0.48440000  1
  C  C337  1  0.36580000  0.77370000  0.98440000  1
  C  C338  1  0.36720000  0.52000000  0.54530000  1
  C  C339  1  0.36720000  0.98000000  0.04530000  1
  C  C340  1  0.38240000  0.13450000  0.13750000  1
  C  C341  1  0.38240000  0.36550000  0.63750000  1
  C  C342  1  0.39670000  0.17830000  0.05570000  1
  C  C343  1  0.39670000  0.32170000  0.55570000  1
  C  C344  1  0.41150000  0.01710000  0.86130000  1
  C  C345  1  0.41150000  0.48290000  0.36130000  1
  C  C346  1  0.41260000  0.06530000  0.78060000  1
  C  C347  1  0.41260000  0.43470000  0.28060000  1
  C  C348  1  0.41810000  0.68830000  0.33730000  1
  C  C349  1  0.41810000  0.81170000  0.83730000  1
  C  C350  1  0.41880000  0.13690000  0.08920000  1
  C  C351  1  0.41880000  0.36310000  0.58920000  1
  C  C352  1  0.42220000  0.55910000  0.53170000  1
  C  C353  1  0.42220000  0.94090000  0.03170000  1
  C  C354  1  0.43090000  0.59380000  0.61590000  1
  C  C355  1  0.43090000  0.90620000  0.11590000  1
  C  C356  1  0.43560000  0.19820000  0.67740000  1
  C  C357  1  0.43560000  0.30180000  0.17740000  1
  C  C358  1  0.43970000  0.24140000  0.24710000  1
  C  C359  1  0.43970000  0.25860000  0.74710000  1
  C  C360  1  0.44180000  0.02430000  0.81320000  1
  C  C361  1  0.44180000  0.47570000  0.31320000  1
  C  C362  1  0.44420000  0.55980000  0.47790000  1
  C  C363  1  0.44420000  0.94020000  0.97790000  1
  C  C364  1  0.44490000  0.52230000  0.39780000  1
  C  C365  1  0.44490000  0.97770000  0.89780000  1
  C  C366  1  0.45670000  0.59350000  0.56990000  1
  C  C367  1  0.45670000  0.90650000  0.06990000  1
  C  C368  1  0.47680000  0.72200000  0.31760000  1
  C  C369  1  0.47680000  0.77800000  0.81760000  1
  C  C370  1  0.47980000  0.09580000  0.07690000  1
  C  C371  1  0.47980000  0.40420000  0.57690000  1
  C  C372  1  0.49310000  0.22950000  0.65710000  1
  C  C373  1  0.49310000  0.27050000  0.15710000  1
  C  C374  1  0.49570000  0.20970000  0.23140000  1
  C  C375  1  0.49570000  0.29030000  0.73140000  1
  C  C376  1  0.50430000  0.70970000  0.26860000  1
  C  C377  1  0.50430000  0.79030000  0.76860000  1
  C  C378  1  0.50690000  0.72950000  0.84290000  1
  C  C379  1  0.50690000  0.77050000  0.34290000  1
  C  C380  1  0.52020000  0.59580000  0.42310000  1
  C  C381  1  0.52020000  0.90420000  0.92310000  1
  C  C382  1  0.52320000  0.22200000  0.18240000  1
  C  C383  1  0.52320000  0.27800000  0.68240000  1
  C  C384  1  0.54330000  0.09350000  0.93010000  1
  C  C385  1  0.54330000  0.40650000  0.43010000  1
  C  C386  1  0.55510000  0.02230000  0.10220000  1
  C  C387  1  0.55510000  0.47770000  0.60220000  1
  C  C388  1  0.55580000  0.05980000  0.02210000  1
  C  C389  1  0.55580000  0.44020000  0.52210000  1
  C  C390  1  0.55820000  0.52430000  0.68680000  1
  C  C391  1  0.55820000  0.97570000  0.18680000  1
  C  C392  1  0.56030000  0.74140000  0.25290000  1
  C  C393  1  0.56030000  0.75860000  0.75290000  1
  C  C394  1  0.56440000  0.69820000  0.82260000  1
  C  C395  1  0.56440000  0.80180000  0.32260000  1
  C  C396  1  0.56910000  0.09380000  0.88410000  1
  C  C397  1  0.56910000  0.40620000  0.38410000  1
  C  C398  1  0.57780000  0.05910000  0.96830000  1
  C  C399  1  0.57780000  0.44090000  0.46830000  1
  C  C400  1  0.58120000  0.63690000  0.41080000  1
  C  C401  1  0.58120000  0.86310000  0.91080000  1
  C  C402  1  0.58190000  0.18830000  0.16270000  1
  C  C403  1  0.58190000  0.31170000  0.66270000  1
  C  C404  1  0.58740000  0.56530000  0.71940000  1
  C  C405  1  0.58740000  0.93470000  0.21940000  1
  C  C406  1  0.58850000  0.51710000  0.63870000  1
  C  C407  1  0.58850000  0.98290000  0.13870000  1
  C  C408  1  0.60330000  0.67830000  0.44430000  1
  C  C409  1  0.60330000  0.82170000  0.94430000  1
  C  C410  1  0.61760000  0.63450000  0.36250000  1
  C  C411  1  0.61760000  0.86550000  0.86250000  1
  C  C412  1  0.63280000  0.02000000  0.95470000  1
  C  C413  1  0.63280000  0.48000000  0.45470000  1
  C  C414  1  0.63420000  0.22630000  0.01560000  1
  C  C415  1  0.63420000  0.27370000  0.51560000  1
  C  C416  1  0.64550000  0.23000000  0.96440000  1
  C  C417  1  0.64550000  0.27000000  0.46440000  1
  C  C418  1  0.64710000  0.55760000  0.62470000  1
  C  C419  1  0.64710000  0.94240000  0.12470000  1
  C  C420  1  0.65380000  0.16700000  0.09690000  1
  C  C421  1  0.65380000  0.33300000  0.59690000  1
  C  C422  1  0.65460000  0.02270000  0.90460000  1
  C  C423  1  0.65460000  0.47730000  0.40460000  1
  C  C424  1  0.65570000  0.72200000  0.42880000  1
  C  C425  1  0.65570000  0.77800000  0.92880000  1
  C  C426  1  0.66230000  0.17920000  0.04260000  1
  C  C427  1  0.66230000  0.32080000  0.54260000  1
  C  C428  1  0.66750000  0.67170000  0.35530000  1
  C  C429  1  0.66750000  0.82830000  0.85530000  1
  C  C430  1  0.67040000  0.59800000  0.65740000  1
  C  C431  1  0.67040000  0.90200000  0.15740000  1
  C  C432  1  0.67260000  0.12160000  0.16880000  1
  C  C433  1  0.67260000  0.37840000  0.66880000  1
  C  C434  1  0.69130000  0.50470000  0.21720000  1
  C  C435  1  0.69130000  0.99530000  0.71720000  1
  C  C436  1  0.69680000  0.07340000  0.25320000  1
  C  C437  1  0.69680000  0.42660000  0.75320000  1
  C  C438  1  0.71470000  0.08170000  0.20440000  1
  C  C439  1  0.71470000  0.41830000  0.70440000  1
  C  C440  1  0.71690000  0.14170000  0.02030000  1
  C  C441  1  0.71690000  0.35830000  0.52030000  1
  C  C442  1  0.72880000  0.54930000  0.18240000  1
  C  C443  1  0.72880000  0.95070000  0.68240000  1
  C  C444  1  0.73400000  0.15180000  0.96820000  1
  C  C445  1  0.73400000  0.34820000  0.46820000  1
  C  C446  1  0.73460000  0.03210000  0.28090000  1
  C  C447  1  0.73460000  0.46790000  0.78090000  1
  C  C448  1  0.76540000  0.53210000  0.28090000  1
  C  C449  1  0.76540000  0.96790000  0.78090000  1
  C  C450  1  0.76600000  0.65180000  0.96820000  1
  C  C451  1  0.76600000  0.84820000  0.46820000  1
  C  C452  1  0.77120000  0.04930000  0.18240000  1
  C  C453  1  0.77120000  0.45070000  0.68240000  1
  C  C454  1  0.78310000  0.64170000  0.02030000  1
  C  C455  1  0.78310000  0.85830000  0.52030000  1
  C  C456  1  0.78530000  0.58170000  0.20440000  1
  C  C457  1  0.78530000  0.91830000  0.70440000  1
  C  C458  1  0.80320000  0.57340000  0.25320000  1
  C  C459  1  0.80320000  0.92660000  0.75320000  1
  C  C460  1  0.80870000  0.00470000  0.21720000  1
  C  C461  1  0.80870000  0.49530000  0.71720000  1
  C  C462  1  0.82740000  0.62160000  0.16880000  1
  C  C463  1  0.82740000  0.87840000  0.66880000  1
  C  C464  1  0.82960000  0.09800000  0.65740000  1
  C  C465  1  0.82960000  0.40200000  0.15740000  1
  C  C466  1  0.83250000  0.17170000  0.35530000  1
  C  C467  1  0.83250000  0.32830000  0.85530000  1
  C  C468  1  0.83770000  0.67920000  0.04260000  1
  C  C469  1  0.83770000  0.82080000  0.54260000  1
  C  C470  1  0.84430000  0.22200000  0.42880000  1
  C  C471  1  0.84430000  0.27800000  0.92880000  1
  C  C472  1  0.84540000  0.52270000  0.90460000  1
  C  C473  1  0.84540000  0.97730000  0.40460000  1
  C  C474  1  0.84620000  0.66700000  0.09690000  1
  C  C475  1  0.84620000  0.83300000  0.59690000  1
  C  C476  1  0.85290000  0.05760000  0.62470000  1
  C  C477  1  0.85290000  0.44240000  0.12470000  1
  C  C478  1  0.85450000  0.73000000  0.96440000  1
  C  C479  1  0.85450000  0.77000000  0.46440000  1
  C  C480  1  0.86580000  0.72630000  0.01560000  1
  C  C481  1  0.86580000  0.77370000  0.51560000  1
  C  C482  1  0.86720000  0.52000000  0.95470000  1
  C  C483  1  0.86720000  0.98000000  0.45470000  1
  C  C484  1  0.88240000  0.13450000  0.36250000  1
  C  C485  1  0.88240000  0.36550000  0.86250000  1
  C  C486  1  0.89670000  0.17830000  0.44430000  1
  C  C487  1  0.89670000  0.32170000  0.94430000  1
  C  C488  1  0.91150000  0.01710000  0.63870000  1
  C  C489  1  0.91150000  0.48290000  0.13870000  1
  C  C490  1  0.91260000  0.06530000  0.71940000  1
  C  C491  1  0.91260000  0.43470000  0.21940000  1
  C  C492  1  0.91810000  0.68830000  0.16270000  1
  C  C493  1  0.91810000  0.81170000  0.66270000  1
  C  C494  1  0.91880000  0.13690000  0.41080000  1
  C  C495  1  0.91880000  0.36310000  0.91080000  1
  C  C496  1  0.92220000  0.55910000  0.96830000  1
  C  C497  1  0.92220000  0.94090000  0.46830000  1
  C  C498  1  0.93090000  0.59380000  0.88410000  1
  C  C499  1  0.93090000  0.90620000  0.38410000  1
  C  C500  1  0.93560000  0.19820000  0.82260000  1
  C  C501  1  0.93560000  0.30180000  0.32260000  1
  C  C502  1  0.93970000  0.24140000  0.25290000  1
  C  C503  1  0.93970000  0.25860000  0.75290000  1
  C  C504  1  0.94180000  0.02430000  0.68680000  1
  C  C505  1  0.94180000  0.47570000  0.18680000  1
  C  C506  1  0.94420000  0.55980000  0.02210000  1
  C  C507  1  0.94420000  0.94020000  0.52210000  1
  C  C508  1  0.94490000  0.52230000  0.10220000  1
  C  C509  1  0.94490000  0.97770000  0.60220000  1
  C  C510  1  0.95670000  0.59350000  0.93010000  1
  C  C511  1  0.95670000  0.90650000  0.43010000  1
  C  C512  1  0.97680000  0.72200000  0.18240000  1
  C  C513  1  0.97680000  0.77800000  0.68240000  1
  C  C514  1  0.97980000  0.09580000  0.42310000  1
  C  C515  1  0.97980000  0.40420000  0.92310000  1
  C  C516  1  0.99310000  0.22950000  0.84290000  1
  C  C517  1  0.99310000  0.27050000  0.34290000  1
  C  C518  1  0.99570000  0.20970000  0.26860000  1
  C  C519  1  0.99570000  0.29030000  0.76860000  1
  S  S520  1  0.10281000  0.13725000  0.74746000  1
  S  S521  1  0.10281000  0.36275000  0.24746000  1
  S  S522  1  0.14801000  0.22610000  0.17553000  1
  S  S523  1  0.14801000  0.27390000  0.67553000  1
  S  S524  1  0.23795000  0.63894000  0.67624000  1
  S  S525  1  0.23795000  0.86106000  0.17624000  1
  S  S526  1  0.24317000  0.23566000  0.78789000  1
  S  S527  1  0.24317000  0.26434000  0.28789000  1
  S  S528  1  0.25683000  0.73566000  0.78789000  1
  S  S529  1  0.25683000  0.76434000  0.28789000  1
  S  S530  1  0.26205000  0.13894000  0.67624000  1
  S  S531  1  0.26205000  0.36106000  0.17624000  1
  S  S532  1  0.35199000  0.72610000  0.17553000  1
  S  S533  1  0.35199000  0.77390000  0.67553000  1
  S  S534  1  0.39719000  0.63725000  0.74746000  1
  S  S535  1  0.39719000  0.86275000  0.24746000  1
  S  S536  1  0.60281000  0.13725000  0.75254000  1
  S  S537  1  0.60281000  0.36275000  0.25254000  1
  S  S538  1  0.64801000  0.22610000  0.32447000  1
  S  S539  1  0.64801000  0.27390000  0.82447000  1
  S  S540  1  0.73795000  0.63894000  0.82376000  1
  S  S541  1  0.73795000  0.86106000  0.32376000  1
  S  S542  1  0.74317000  0.23566000  0.71211000  1
  S  S543  1  0.74317000  0.26434000  0.21211000  1
  S  S544  1  0.75683000  0.73566000  0.71211000  1
  S  S545  1  0.75683000  0.76434000  0.21211000  1
  S  S546  1  0.76205000  0.13894000  0.82376000  1
  S  S547  1  0.76205000  0.36106000  0.32376000  1
  S  S548  1  0.85199000  0.72610000  0.32447000  1
  S  S549  1  0.85199000  0.77390000  0.82447000  1
  S  S550  1  0.89719000  0.63725000  0.75254000  1
  S  S551  1  0.89719000  0.86275000  0.25254000  1
  I  I552  1  0.15129000  0.13036000  0.89937000  1
  I  I553  1  0.15129000  0.36964000  0.39937000  1
  I  I554  1  0.34871000  0.63036000  0.89937000  1
  I  I555  1  0.34871000  0.86964000  0.39937000  1
  I  I556  1  0.65129000  0.13036000  0.60063000  1
  I  I557  1  0.65129000  0.36964000  0.10063000  1
  I  I558  1  0.84871000  0.63036000  0.60063000  1
  I  I559  1  0.84871000  0.86964000  0.10063000  1
  N  N560  1  0.00300000  0.59650000  0.03120000  1
  N  N561  1  0.00300000  0.90350000  0.53120000  1
  N  N562  1  0.00310000  0.06010000  0.38510000  1
  N  N563  1  0.00310000  0.43990000  0.88510000  1
  N  N564  1  0.08250000  0.02080000  0.44560000  1
  N  N565  1  0.08250000  0.47920000  0.94560000  1
  N  N566  1  0.09310000  0.71760000  0.72400000  1
  N  N567  1  0.09310000  0.78240000  0.22400000  1
  N  N568  1  0.09620000  0.19990000  0.38420000  1
  N  N569  1  0.09620000  0.30010000  0.88420000  1
  N  N570  1  0.11700000  0.15040000  0.30880000  1
  N  N571  1  0.11700000  0.34960000  0.80880000  1
  N  N572  1  0.12470000  0.05910000  0.63170000  1
  N  N573  1  0.12470000  0.44090000  0.13170000  1
  N  N574  1  0.14350000  0.60470000  0.79400000  1
  N  N575  1  0.14350000  0.89530000  0.29400000  1
  N  N576  1  0.19140000  0.71520000  0.11310000  1
  N  N577  1  0.19140000  0.78480000  0.61310000  1
  N  N578  1  0.19330000  0.12860000  0.37650000  1
  N  N579  1  0.19330000  0.37140000  0.87650000  1
  N  N580  1  0.19910000  0.19880000  0.55990000  1
  N  N581  1  0.19910000  0.30120000  0.05990000  1
  N  N582  1  0.20920000  0.00030000  0.73350000  1
  N  N583  1  0.20920000  0.49970000  0.23350000  1
  N  N584  1  0.29080000  0.50030000  0.73350000  1
  N  N585  1  0.29080000  0.99970000  0.23350000  1
  N  N586  1  0.30090000  0.69880000  0.55990000  1
  N  N587  1  0.30090000  0.80120000  0.05990000  1
  N  N588  1  0.30670000  0.62860000  0.37650000  1
  N  N589  1  0.30670000  0.87140000  0.87650000  1
  N  N590  1  0.30860000  0.21520000  0.11310000  1
  N  N591  1  0.30860000  0.28480000  0.61310000  1
  N  N592  1  0.35650000  0.10470000  0.79400000  1
  N  N593  1  0.35650000  0.39530000  0.29400000  1
  N  N594  1  0.37530000  0.55910000  0.63170000  1
  N  N595  1  0.37530000  0.94090000  0.13170000  1
  N  N596  1  0.38300000  0.65040000  0.30880000  1
  N  N597  1  0.38300000  0.84960000  0.80880000  1
  N  N598  1  0.40380000  0.69990000  0.38420000  1
  N  N599  1  0.40380000  0.80010000  0.88420000  1
  N  N600  1  0.40690000  0.21760000  0.72400000  1
  N  N601  1  0.40690000  0.28240000  0.22400000  1
  N  N602  1  0.41750000  0.52080000  0.44560000  1
  N  N603  1  0.41750000  0.97920000  0.94560000  1
  N  N604  1  0.49690000  0.56010000  0.38510000  1
  N  N605  1  0.49690000  0.93990000  0.88510000  1
  N  N606  1  0.49700000  0.09650000  0.03120000  1
  N  N607  1  0.49700000  0.40350000  0.53120000  1
  N  N608  1  0.50300000  0.59650000  0.46880000  1
  N  N609  1  0.50300000  0.90350000  0.96880000  1
  N  N610  1  0.50310000  0.06010000  0.11490000  1
  N  N611  1  0.50310000  0.43990000  0.61490000  1
  N  N612  1  0.58250000  0.02080000  0.05440000  1
  N  N613  1  0.58250000  0.47920000  0.55440000  1
  N  N614  1  0.59310000  0.71760000  0.77600000  1
  N  N615  1  0.59310000  0.78240000  0.27600000  1
  N  N616  1  0.59620000  0.19990000  0.11580000  1
  N  N617  1  0.59620000  0.30010000  0.61580000  1
  N  N618  1  0.61700000  0.15040000  0.19120000  1
  N  N619  1  0.61700000  0.34960000  0.69120000  1
  N  N620  1  0.62470000  0.05910000  0.86830000  1
  N  N621  1  0.62470000  0.44090000  0.36830000  1
  N  N622  1  0.64350000  0.60470000  0.70600000  1
  N  N623  1  0.64350000  0.89530000  0.20600000  1
  N  N624  1  0.69140000  0.71520000  0.38690000  1
  N  N625  1  0.69140000  0.78480000  0.88690000  1
  N  N626  1  0.69330000  0.12860000  0.12350000  1
  N  N627  1  0.69330000  0.37140000  0.62350000  1
  N  N628  1  0.69910000  0.19880000  0.94010000  1
  N  N629  1  0.69910000  0.30120000  0.44010000  1
  N  N630  1  0.70920000  0.00030000  0.76650000  1
  N  N631  1  0.70920000  0.49970000  0.26650000  1
  N  N632  1  0.79080000  0.50030000  0.76650000  1
  N  N633  1  0.79080000  0.99970000  0.26650000  1
  N  N634  1  0.80090000  0.69880000  0.94010000  1
  N  N635  1  0.80090000  0.80120000  0.44010000  1
  N  N636  1  0.80670000  0.62860000  0.12350000  1
  N  N637  1  0.80670000  0.87140000  0.62350000  1
  N  N638  1  0.80860000  0.21520000  0.38690000  1
  N  N639  1  0.80860000  0.28480000  0.88690000  1
  N  N640  1  0.85650000  0.10470000  0.70600000  1
  N  N641  1  0.85650000  0.39530000  0.20600000  1
  N  N642  1  0.87530000  0.55910000  0.86830000  1
  N  N643  1  0.87530000  0.94090000  0.36830000  1
  N  N644  1  0.88300000  0.65040000  0.19120000  1
  N  N645  1  0.88300000  0.84960000  0.69120000  1
  N  N646  1  0.90380000  0.69990000  0.11580000  1
  N  N647  1  0.90380000  0.80010000  0.61580000  1
  N  N648  1  0.90690000  0.21760000  0.77600000  1
  N  N649  1  0.90690000  0.28240000  0.27600000  1
  N  N650  1  0.91750000  0.52080000  0.05440000  1
  N  N651  1  0.91750000  0.97920000  0.55440000  1
  N  N652  1  0.99690000  0.56010000  0.11490000  1
  N  N653  1  0.99690000  0.93990000  0.61490000  1
  N  N654  1  0.99700000  0.09650000  0.46880000  1
  N  N655  1  0.99700000  0.40350000  0.96880000  1
