# generated using pymatgen
data_Zn3H23C42N5O12
_symmetry_space_group_name_H-M   'P 1'
_cell_length_a   10.06270000
_cell_length_b   23.06080000
_cell_length_c   26.84320000
_cell_angle_alpha   90.00000000
_cell_angle_beta   95.11600000
_cell_angle_gamma   90.00000000
_symmetry_Int_Tables_number   1
_chemical_formula_structural   Zn3H23C42N5O12
_chemical_formula_sum   'Zn12 H92 C168 N20 O48'
_cell_volume   6204.25422374
_cell_formula_units_Z   4
loop_
 _symmetry_equiv_pos_site_id
 _symmetry_equiv_pos_as_xyz
  1  'x, y, z'
loop_
 _atom_site_type_symbol
 _atom_site_label
 _atom_site_symmetry_multiplicity
 _atom_site_fract_x
 _atom_site_fract_y
 _atom_site_fract_z
 _atom_site_occupancy
  Zn  Zn0  1  0.03815000  0.24475000  0.18301000  1
  Zn  Zn1  1  0.14327000  0.00827000  0.49190000  1
  Zn  Zn2  1  0.15104000  0.69271000  0.22804000  1
  Zn  Zn3  1  0.34896000  0.19271000  0.27196000  1
  Zn  Zn4  1  0.35673000  0.50827000  0.00810000  1
  Zn  Zn5  1  0.46185000  0.74475000  0.31699000  1
  Zn  Zn6  1  0.53815000  0.25525000  0.68301000  1
  Zn  Zn7  1  0.64327000  0.49173000  0.99190000  1
  Zn  Zn8  1  0.65104000  0.80729000  0.72804000  1
  Zn  Zn9  1  0.84896000  0.30729000  0.77196000  1
  Zn  Zn10  1  0.85673000  0.99173000  0.50810000  1
  Zn  Zn11  1  0.96185000  0.75525000  0.81699000  1
  H  H12  1  0.01260000  0.34560000  0.68430000  1
  H  H13  1  0.01750000  0.88310000  0.81180000  1
  H  H14  1  0.01950000  0.03060000  0.14590000  1
  H  H15  1  0.02100000  0.47990000  0.38910000  1
  H  H16  1  0.04370000  0.25120000  0.69190000  1
  H  H17  1  0.07940000  0.11490000  0.36490000  1
  H  H18  1  0.09410000  0.53060000  0.53820000  1
  H  H19  1  0.12080000  0.49350000  0.31760000  1
  H  H20  1  0.13160000  0.83040000  0.22750000  1
  H  H21  1  0.14910000  0.90890000  0.17440000  1
  H  H22  1  0.16000000  0.36170000  0.63610000  1
  H  H23  1  0.16740000  0.20450000  0.09330000  1
  H  H24  1  0.17850000  0.86380000  0.38860000  1
  H  H25  1  0.19150000  0.38670000  0.89220000  1
  H  H26  1  0.20080000  0.79770000  0.72630000  1
  H  H27  1  0.20320000  0.04580000  0.00380000  1
  H  H28  1  0.20820000  0.72490000  0.12160000  1
  H  H29  1  0.21340000  0.11800000  0.05140000  1
  H  H30  1  0.21870000  0.14270000  0.59870000  1
  H  H31  1  0.22010000  0.80000000  0.06590000  1
  H  H32  1  0.22540000  0.55030000  0.25170000  1
  H  H33  1  0.23410000  0.87710000  0.93870000  1
  H  H34  1  0.24500000  0.37010000  0.47990000  1
  H  H35  1  0.25500000  0.87010000  0.02010000  1
  H  H36  1  0.26590000  0.37710000  0.56130000  1
  H  H37  1  0.27460000  0.05030000  0.24830000  1
  H  H38  1  0.27990000  0.30000000  0.43410000  1
  H  H39  1  0.28130000  0.64270000  0.90130000  1
  H  H40  1  0.28660000  0.61800000  0.44860000  1
  H  H41  1  0.29180000  0.22490000  0.37840000  1
  H  H42  1  0.29680000  0.54580000  0.49620000  1
  H  H43  1  0.29920000  0.29770000  0.77370000  1
  H  H44  1  0.30850000  0.88670000  0.60780000  1
  H  H45  1  0.32150000  0.36380000  0.11140000  1
  H  H46  1  0.33260000  0.70450000  0.40670000  1
  H  H47  1  0.34000000  0.86170000  0.86390000  1
  H  H48  1  0.35090000  0.40890000  0.32560000  1
  H  H49  1  0.36840000  0.33040000  0.27250000  1
  H  H50  1  0.37920000  0.99350000  0.18240000  1
  H  H51  1  0.40590000  0.03060000  0.96180000  1
  H  H52  1  0.42060000  0.61490000  0.13510000  1
  H  H53  1  0.45630000  0.75120000  0.80810000  1
  H  H54  1  0.47900000  0.97990000  0.11090000  1
  H  H55  1  0.48050000  0.53060000  0.35410000  1
  H  H56  1  0.48250000  0.38310000  0.68820000  1
  H  H57  1  0.48740000  0.84560000  0.81570000  1
  H  H58  1  0.51260000  0.15440000  0.18430000  1
  H  H59  1  0.51750000  0.61690000  0.31180000  1
  H  H60  1  0.51950000  0.46940000  0.64590000  1
  H  H61  1  0.52100000  0.02010000  0.88910000  1
  H  H62  1  0.54370000  0.24880000  0.19190000  1
  H  H63  1  0.57940000  0.38510000  0.86490000  1
  H  H64  1  0.59410000  0.96940000  0.03820000  1
  H  H65  1  0.62080000  0.00650000  0.81760000  1
  H  H66  1  0.63160000  0.66960000  0.72750000  1
  H  H67  1  0.64910000  0.59110000  0.67440000  1
  H  H68  1  0.66000000  0.13830000  0.13610000  1
  H  H69  1  0.66740000  0.29550000  0.59330000  1
  H  H70  1  0.67850000  0.63620000  0.88860000  1
  H  H71  1  0.69150000  0.11330000  0.39220000  1
  H  H72  1  0.70080000  0.70230000  0.22630000  1
  H  H73  1  0.70320000  0.45420000  0.50380000  1
  H  H74  1  0.70820000  0.77510000  0.62160000  1
  H  H75  1  0.71340000  0.38200000  0.55140000  1
  H  H76  1  0.71870000  0.35730000  0.09870000  1
  H  H77  1  0.72010000  0.70000000  0.56590000  1
  H  H78  1  0.72540000  0.94970000  0.75170000  1
  H  H79  1  0.73410000  0.62290000  0.43870000  1
  H  H80  1  0.74500000  0.12990000  0.97990000  1
  H  H81  1  0.75500000  0.62990000  0.52010000  1
  H  H82  1  0.76590000  0.12290000  0.06130000  1
  H  H83  1  0.77460000  0.44970000  0.74830000  1
  H  H84  1  0.77990000  0.20000000  0.93410000  1
  H  H85  1  0.78130000  0.85730000  0.40130000  1
  H  H86  1  0.78660000  0.88200000  0.94860000  1
  H  H87  1  0.79180000  0.27510000  0.87840000  1
  H  H88  1  0.79680000  0.95420000  0.99620000  1
  H  H89  1  0.79920000  0.20230000  0.27370000  1
  H  H90  1  0.80850000  0.61330000  0.10780000  1
  H  H91  1  0.82150000  0.13620000  0.61140000  1
  H  H92  1  0.83260000  0.79550000  0.90670000  1
  H  H93  1  0.84000000  0.63830000  0.36390000  1
  H  H94  1  0.85090000  0.09110000  0.82560000  1
  H  H95  1  0.86840000  0.16960000  0.77250000  1
  H  H96  1  0.87920000  0.50650000  0.68240000  1
  H  H97  1  0.90590000  0.46940000  0.46180000  1
  H  H98  1  0.92060000  0.88510000  0.63510000  1
  H  H99  1  0.95630000  0.74880000  0.30810000  1
  H  H100  1  0.97900000  0.52010000  0.61090000  1
  H  H101  1  0.98050000  0.96940000  0.85410000  1
  H  H102  1  0.98250000  0.11690000  0.18820000  1
  H  H103  1  0.98740000  0.65440000  0.31570000  1
  C  C104  1  0.00830000  0.08320000  0.56300000  1
  C  C105  1  0.00870000  0.87400000  0.64330000  1
  C  C106  1  0.01820000  0.13380000  0.60030000  1
  C  C107  1  0.02580000  0.11840000  0.15910000  1
  C  C108  1  0.03420000  0.62140000  0.30790000  1
  C  C109  1  0.03510000  0.49130000  0.60060000  1
  C  C110  1  0.03670000  0.22140000  0.66850000  1
  C  C111  1  0.04580000  0.83610000  0.68450000  1
  C  C112  1  0.05140000  0.06560000  0.13440000  1
  C  C113  1  0.05680000  0.43800000  0.62750000  1
  C  C114  1  0.05930000  0.18570000  0.28290000  1
  C  C115  1  0.07420000  0.93380000  0.57130000  1
  C  C116  1  0.07900000  0.32810000  0.81590000  1
  C  C117  1  0.08870000  0.80350000  0.34490000  1
  C  C118  1  0.09640000  0.84680000  0.37890000  1
  C  C119  1  0.10500000  0.49700000  0.55740000  1
  C  C120  1  0.10620000  0.53240000  0.30950000  1
  C  C121  1  0.11350000  0.89370000  0.61580000  1
  C  C122  1  0.12130000  0.06680000  0.09480000  1
  C  C123  1  0.13400000  0.16960000  0.10420000  1
  C  C124  1  0.14360000  0.15660000  0.61260000  1
  C  C125  1  0.14410000  0.39450000  0.61640000  1
  C  C126  1  0.15110000  0.20240000  0.64770000  1
  C  C127  1  0.15170000  0.82350000  0.19490000  1
  C  C128  1  0.15880000  0.87130000  0.16270000  1
  C  C129  1  0.16020000  0.01250000  0.07250000  1
  C  C130  1  0.16390000  0.11680000  0.07900000  1
  C  C131  1  0.16470000  0.56460000  0.27280000  1
  C  C132  1  0.17820000  0.82130000  0.69870000  1
  C  C133  1  0.17980000  0.86140000  0.11460000  1
  C  C134  1  0.18700000  0.91080000  0.08300000  1
  C  C135  1  0.18870000  0.45420000  0.54300000  1
  C  C136  1  0.19530000  0.76240000  0.13320000  1
  C  C137  1  0.20160000  0.80720000  0.09860000  1
  C  C138  1  0.20260000  0.01240000  0.02310000  1
  C  C139  1  0.20790000  0.40520000  0.57160000  1
  C  C140  1  0.20790000  0.77970000  0.32430000  1
  C  C141  1  0.21870000  0.73330000  0.83820000  1
  C  C142  1  0.22390000  0.34350000  0.83040000  1
  C  C143  1  0.23320000  0.90580000  0.03320000  1
  C  C144  1  0.24250000  0.87610000  0.62820000  1
  C  C145  1  0.24350000  0.95790000  0.00550000  1
  C  C146  1  0.25650000  0.45790000  0.49450000  1
  C  C147  1  0.25750000  0.37610000  0.87180000  1
  C  C148  1  0.26680000  0.40580000  0.46680000  1
  C  C149  1  0.27610000  0.84350000  0.66960000  1
  C  C150  1  0.28130000  0.23330000  0.66180000  1
  C  C151  1  0.29210000  0.27970000  0.17570000  1
  C  C152  1  0.29210000  0.90520000  0.92840000  1
  C  C153  1  0.29740000  0.51240000  0.47690000  1
  C  C154  1  0.29840000  0.30720000  0.40140000  1
  C  C155  1  0.30470000  0.26240000  0.36680000  1
  C  C156  1  0.31130000  0.95420000  0.95700000  1
  C  C157  1  0.31300000  0.41080000  0.41700000  1
  C  C158  1  0.32020000  0.36140000  0.38540000  1
  C  C159  1  0.32180000  0.32130000  0.80130000  1
  C  C160  1  0.33530000  0.06460000  0.22720000  1
  C  C161  1  0.33610000  0.61680000  0.42100000  1
  C  C162  1  0.33980000  0.51250000  0.42750000  1
  C  C163  1  0.34120000  0.37130000  0.33730000  1
  C  C164  1  0.34830000  0.32350000  0.30510000  1
  C  C165  1  0.34890000  0.70240000  0.85230000  1
  C  C166  1  0.35590000  0.89450000  0.88360000  1
  C  C167  1  0.35640000  0.65660000  0.88740000  1
  C  C168  1  0.36600000  0.66960000  0.39580000  1
  C  C169  1  0.37870000  0.56680000  0.40520000  1
  C  C170  1  0.38650000  0.39370000  0.88420000  1
  C  C171  1  0.39380000  0.03240000  0.19050000  1
  C  C172  1  0.39500000  0.99700000  0.94260000  1
  C  C173  1  0.40360000  0.34680000  0.12110000  1
  C  C174  1  0.41130000  0.30350000  0.15510000  1
  C  C175  1  0.42100000  0.82810000  0.68410000  1
  C  C176  1  0.42580000  0.43380000  0.92870000  1
  C  C177  1  0.44070000  0.68570000  0.21710000  1
  C  C178  1  0.44320000  0.93800000  0.87250000  1
  C  C179  1  0.44860000  0.56560000  0.36560000  1
  C  C180  1  0.45420000  0.33610000  0.81550000  1
  C  C181  1  0.46330000  0.72140000  0.83150000  1
  C  C182  1  0.46490000  0.99130000  0.89940000  1
  C  C183  1  0.46580000  0.12140000  0.19210000  1
  C  C184  1  0.47420000  0.61840000  0.34090000  1
  C  C185  1  0.48180000  0.63380000  0.89970000  1
  C  C186  1  0.49130000  0.37400000  0.85670000  1
  C  C187  1  0.49170000  0.58320000  0.93700000  1
  C  C188  1  0.50830000  0.41680000  0.06300000  1
  C  C189  1  0.50870000  0.62600000  0.14330000  1
  C  C190  1  0.51820000  0.36620000  0.10030000  1
  C  C191  1  0.52580000  0.38160000  0.65910000  1
  C  C192  1  0.53420000  0.87860000  0.80790000  1
  C  C193  1  0.53510000  0.00870000  0.10060000  1
  C  C194  1  0.53670000  0.27860000  0.16850000  1
  C  C195  1  0.54580000  0.66390000  0.18450000  1
  C  C196  1  0.55140000  0.43440000  0.63440000  1
  C  C197  1  0.55680000  0.06200000  0.12750000  1
  C  C198  1  0.55930000  0.31430000  0.78290000  1
  C  C199  1  0.57420000  0.56620000  0.07130000  1
  C  C200  1  0.57900000  0.17190000  0.31590000  1
  C  C201  1  0.58870000  0.69650000  0.84490000  1
  C  C202  1  0.59640000  0.65320000  0.87890000  1
  C  C203  1  0.60500000  0.00300000  0.05740000  1
  C  C204  1  0.60620000  0.96760000  0.80950000  1
  C  C205  1  0.61350000  0.60630000  0.11580000  1
  C  C206  1  0.62130000  0.43320000  0.59480000  1
  C  C207  1  0.63400000  0.33040000  0.60420000  1
  C  C208  1  0.64360000  0.34340000  0.11260000  1
  C  C209  1  0.64410000  0.10550000  0.11640000  1
  C  C210  1  0.65110000  0.29760000  0.14770000  1
  C  C211  1  0.65170000  0.67650000  0.69490000  1
  C  C212  1  0.65880000  0.62870000  0.66270000  1
  C  C213  1  0.66020000  0.48750000  0.57250000  1
  C  C214  1  0.66390000  0.38320000  0.57900000  1
  C  C215  1  0.66470000  0.93540000  0.77280000  1
  C  C216  1  0.67820000  0.67870000  0.19870000  1
  C  C217  1  0.67980000  0.63860000  0.61460000  1
  C  C218  1  0.68700000  0.58920000  0.58300000  1
  C  C219  1  0.68870000  0.04580000  0.04300000  1
  C  C220  1  0.69530000  0.73760000  0.63320000  1
  C  C221  1  0.70160000  0.69280000  0.59860000  1
  C  C222  1  0.70260000  0.48760000  0.52310000  1
  C  C223  1  0.70790000  0.09480000  0.07160000  1
  C  C224  1  0.70790000  0.72030000  0.82430000  1
  C  C225  1  0.71870000  0.76670000  0.33820000  1
  C  C226  1  0.72390000  0.15650000  0.33040000  1
  C  C227  1  0.73320000  0.59420000  0.53320000  1
  C  C228  1  0.74250000  0.62390000  0.12820000  1
  C  C229  1  0.74350000  0.54210000  0.50550000  1
  C  C230  1  0.75650000  0.04210000  0.99450000  1
  C  C231  1  0.75750000  0.12390000  0.37180000  1
  C  C232  1  0.76680000  0.09420000  0.96680000  1
  C  C233  1  0.77610000  0.65650000  0.16960000  1
  C  C234  1  0.78130000  0.26670000  0.16180000  1
  C  C235  1  0.79210000  0.22030000  0.67570000  1
  C  C236  1  0.79210000  0.59480000  0.42840000  1
  C  C237  1  0.79740000  0.98760000  0.97690000  1
  C  C238  1  0.79840000  0.19280000  0.90140000  1
  C  C239  1  0.80470000  0.23760000  0.86680000  1
  C  C240  1  0.81130000  0.54580000  0.45700000  1
  C  C241  1  0.81300000  0.08920000  0.91700000  1
  C  C242  1  0.82020000  0.13860000  0.88540000  1
  C  C243  1  0.82180000  0.17870000  0.30130000  1
  C  C244  1  0.83530000  0.43540000  0.72720000  1
  C  C245  1  0.83610000  0.88320000  0.92100000  1
  C  C246  1  0.83980000  0.98750000  0.92750000  1
  C  C247  1  0.84120000  0.12870000  0.83730000  1
  C  C248  1  0.84830000  0.17650000  0.80510000  1
  C  C249  1  0.84890000  0.79760000  0.35230000  1
  C  C250  1  0.85590000  0.60550000  0.38360000  1
  C  C251  1  0.85640000  0.84340000  0.38740000  1
  C  C252  1  0.86600000  0.83040000  0.89580000  1
  C  C253  1  0.87870000  0.93320000  0.90520000  1
  C  C254  1  0.88650000  0.10630000  0.38420000  1
  C  C255  1  0.89380000  0.46760000  0.69050000  1
  C  C256  1  0.89500000  0.50300000  0.44260000  1
  C  C257  1  0.90360000  0.15320000  0.62110000  1
  C  C258  1  0.91130000  0.19650000  0.65510000  1
  C  C259  1  0.92100000  0.67190000  0.18410000  1
  C  C260  1  0.92580000  0.06620000  0.42870000  1
  C  C261  1  0.94070000  0.81430000  0.71710000  1
  C  C262  1  0.94320000  0.56200000  0.37250000  1
  C  C263  1  0.94860000  0.93440000  0.86560000  1
  C  C264  1  0.95420000  0.16390000  0.31550000  1
  C  C265  1  0.96330000  0.77860000  0.33150000  1
  C  C266  1  0.96490000  0.50870000  0.39940000  1
  C  C267  1  0.96580000  0.37860000  0.69210000  1
  C  C268  1  0.97420000  0.88160000  0.84090000  1
  C  C269  1  0.98180000  0.86620000  0.39970000  1
  C  C270  1  0.99130000  0.12600000  0.35670000  1
  C  C271  1  0.99170000  0.91680000  0.43700000  1
  N  N272  1  0.02360000  0.57000000  0.33070000  1
  N  N273  1  0.06080000  0.16960000  0.14240000  1
  N  N274  1  0.11940000  0.61950000  0.27280000  1
  N  N275  1  0.14840000  0.96420000  0.09940000  1
  N  N276  1  0.17270000  0.76770000  0.18090000  1
  N  N277  1  0.32730000  0.26770000  0.31910000  1
  N  N278  1  0.35160000  0.46420000  0.40060000  1
  N  N279  1  0.38060000  0.11950000  0.22720000  1
  N  N280  1  0.43920000  0.66960000  0.35760000  1
  N  N281  1  0.47640000  0.07000000  0.16930000  1
  N  N282  1  0.52360000  0.93000000  0.83070000  1
  N  N283  1  0.56080000  0.33040000  0.64240000  1
  N  N284  1  0.61940000  0.88050000  0.77280000  1
  N  N285  1  0.64840000  0.53580000  0.59940000  1
  N  N286  1  0.67270000  0.73230000  0.68090000  1
  N  N287  1  0.82730000  0.23230000  0.81910000  1
  N  N288  1  0.85160000  0.03580000  0.90060000  1
  N  N289  1  0.88060000  0.38050000  0.72720000  1
  N  N290  1  0.93920000  0.83040000  0.85760000  1
  N  N291  1  0.97640000  0.43000000  0.66930000  1
  O  O292  1  0.01150000  0.64880000  0.16240000  1
  O  O293  1  0.03220000  0.22790000  0.25300000  1
  O  O294  1  0.04490000  0.05930000  0.43920000  1
  O  O295  1  0.05720000  0.29400000  0.77840000  1
  O  O296  1  0.10560000  0.94000000  0.44510000  1
  O  O297  1  0.11110000  0.70570000  0.84230000  1
  O  O298  1  0.11210000  0.07190000  0.54350000  1
  O  O299  1  0.16710000  0.95100000  0.54930000  1
  O  O300  1  0.17330000  0.16220000  0.29140000  1
  O  O301  1  0.17910000  0.29690000  0.15880000  1
  O  O302  1  0.19550000  0.73870000  0.29270000  1
  O  O303  1  0.21660000  0.78440000  0.82210000  1
  O  O304  1  0.28340000  0.28440000  0.67790000  1
  O  O305  1  0.30450000  0.23870000  0.20730000  1
  O  O306  1  0.32090000  0.79690000  0.34120000  1
  O  O307  1  0.32670000  0.66220000  0.20860000  1
  O  O308  1  0.33290000  0.45100000  0.95070000  1
  O  O309  1  0.38790000  0.57190000  0.95650000  1
  O  O310  1  0.38890000  0.20570000  0.65770000  1
  O  O311  1  0.39440000  0.44000000  0.05490000  1
  O  O312  1  0.44280000  0.79400000  0.72160000  1
  O  O313  1  0.45510000  0.55930000  0.06080000  1
  O  O314  1  0.46780000  0.72790000  0.24700000  1
  O  O315  1  0.48850000  0.14880000  0.33760000  1
  O  O316  1  0.51150000  0.85120000  0.66240000  1
  O  O317  1  0.53220000  0.27210000  0.75300000  1
  O  O318  1  0.54490000  0.44070000  0.93920000  1
  O  O319  1  0.55720000  0.20600000  0.27840000  1
  O  O320  1  0.60560000  0.56000000  0.94510000  1
  O  O321  1  0.61110000  0.79430000  0.34230000  1
  O  O322  1  0.61210000  0.42810000  0.04350000  1
  O  O323  1  0.66710000  0.54900000  0.04930000  1
  O  O324  1  0.67330000  0.33780000  0.79140000  1
  O  O325  1  0.67910000  0.20310000  0.65880000  1
  O  O326  1  0.69550000  0.76130000  0.79270000  1
  O  O327  1  0.71660000  0.71560000  0.32210000  1
  O  O328  1  0.78340000  0.21560000  0.17790000  1
  O  O329  1  0.80450000  0.26130000  0.70730000  1
  O  O330  1  0.82090000  0.70310000  0.84120000  1
  O  O331  1  0.82670000  0.83780000  0.70860000  1
  O  O332  1  0.83290000  0.04900000  0.45070000  1
  O  O333  1  0.88790000  0.92810000  0.45650000  1
  O  O334  1  0.88890000  0.29430000  0.15770000  1
  O  O335  1  0.89440000  0.06000000  0.55490000  1
  O  O336  1  0.94280000  0.70600000  0.22160000  1
  O  O337  1  0.95510000  0.94070000  0.56080000  1
  O  O338  1  0.96780000  0.77210000  0.74700000  1
  O  O339  1  0.98850000  0.35120000  0.83760000  1
