# generated using pymatgen
data_EuPH3C3O8
_symmetry_space_group_name_H-M   'P 1'
_cell_length_a   7.22930000
_cell_length_b   10.19800000
_cell_length_c   13.04290000
_cell_angle_alpha   90.00000000
_cell_angle_beta   90.00000000
_cell_angle_gamma   100.54100000
_symmetry_Int_Tables_number   1
_chemical_formula_structural   EuPH3C3O8
_chemical_formula_sum   'Eu4 P4 H12 C12 O32'
_cell_volume   945.35261221
_cell_formula_units_Z   4
loop_
 _symmetry_equiv_pos_site_id
 _symmetry_equiv_pos_as_xyz
  1  'x, y, z'
loop_
 _atom_site_type_symbol
 _atom_site_label
 _atom_site_symmetry_multiplicity
 _atom_site_fract_x
 _atom_site_fract_y
 _atom_site_fract_z
 _atom_site_occupancy
  Eu  Eu0  1  0.16377000  0.28214000  0.90609000  1
  Eu  Eu1  1  0.16377000  0.78214000  0.59391000  1
  Eu  Eu2  1  0.83623000  0.21786000  0.40609000  1
  Eu  Eu3  1  0.83623000  0.71786000  0.09391000  1
  P  P4  1  0.21135000  0.43108000  0.54897000  1
  P  P5  1  0.21135000  0.93108000  0.95103000  1
  P  P6  1  0.78865000  0.06892000  0.04897000  1
  P  P7  1  0.78865000  0.56892000  0.45103000  1
  H  H8  1  0.05770000  0.08440000  0.15130000  1
  H  H9  1  0.05770000  0.58440000  0.34870000  1
  H  H10  1  0.13540000  0.00100000  0.73930000  1
  H  H11  1  0.13540000  0.50100000  0.76070000  1
  H  H12  1  0.40710000  0.31480000  0.54380000  1
  H  H13  1  0.40710000  0.81480000  0.95620000  1
  H  H14  1  0.59290000  0.18520000  0.04380000  1
  H  H15  1  0.59290000  0.68520000  0.45620000  1
  H  H16  1  0.86460000  0.49900000  0.23930000  1
  H  H17  1  0.86460000  0.99900000  0.26070000  1
  H  H18  1  0.94230000  0.41560000  0.65130000  1
  H  H19  1  0.94230000  0.91560000  0.84870000  1
  C  C20  1  0.00040000  0.22600000  0.66380000  1
  C  C21  1  0.00040000  0.72600000  0.83620000  1
  C  C22  1  0.05600000  0.37650000  0.65730000  1
  C  C23  1  0.05600000  0.87650000  0.84270000  1
  C  C24  1  0.45240000  0.05520000  0.52440000  1
  C  C25  1  0.45240000  0.55520000  0.97560000  1
  C  C26  1  0.54760000  0.44480000  0.02440000  1
  C  C27  1  0.54760000  0.94480000  0.47560000  1
  C  C28  1  0.94400000  0.12350000  0.15730000  1
  C  C29  1  0.94400000  0.62350000  0.34270000  1
  C  C30  1  0.99960000  0.27400000  0.16380000  1
  C  C31  1  0.99960000  0.77400000  0.33620000  1
  O  O32  1  0.03860000  0.16940000  0.74540000  1
  O  O33  1  0.03860000  0.66940000  0.75460000  1
  O  O34  1  0.08130000  0.33350000  0.08750000  1
  O  O35  1  0.08130000  0.83350000  0.41250000  1
  O  O36  1  0.12760000  0.36800000  0.45130000  1
  O  O37  1  0.12760000  0.86800000  0.04870000  1
  O  O38  1  0.15620000  0.42640000  0.74770000  1
  O  O39  1  0.15620000  0.92640000  0.75230000  1
  O  O40  1  0.25290000  0.08010000  0.94670000  1
  O  O41  1  0.25290000  0.58010000  0.55330000  1
  O  O42  1  0.30280000  0.01800000  0.57140000  1
  O  O43  1  0.30280000  0.51800000  0.92860000  1
  O  O44  1  0.39640000  0.37900000  0.57970000  1
  O  O45  1  0.39640000  0.87900000  0.92030000  1
  O  O46  1  0.46650000  0.32750000  0.00900000  1
  O  O47  1  0.46650000  0.82750000  0.49100000  1
  O  O48  1  0.53350000  0.17250000  0.50900000  1
  O  O49  1  0.53350000  0.67250000  0.99100000  1
  O  O50  1  0.60360000  0.12100000  0.07970000  1
  O  O51  1  0.60360000  0.62100000  0.42030000  1
  O  O52  1  0.69720000  0.48200000  0.07140000  1
  O  O53  1  0.69720000  0.98200000  0.42860000  1
  O  O54  1  0.74710000  0.41990000  0.44670000  1
  O  O55  1  0.74710000  0.91990000  0.05330000  1
  O  O56  1  0.84380000  0.07360000  0.24770000  1
  O  O57  1  0.84380000  0.57360000  0.25230000  1
  O  O58  1  0.87240000  0.13200000  0.95130000  1
  O  O59  1  0.87240000  0.63200000  0.54870000  1
  O  O60  1  0.91870000  0.16650000  0.58750000  1
  O  O61  1  0.91870000  0.66650000  0.91250000  1
  O  O62  1  0.96140000  0.33060000  0.24540000  1
  O  O63  1  0.96140000  0.83060000  0.25460000  1
