# generated using pymatgen
data_Nd(CO2)4
_symmetry_space_group_name_H-M   'P 1'
_cell_length_a   8.62220000
_cell_length_b   9.56830000
_cell_length_c   9.57120000
_cell_angle_alpha   109.38800000
_cell_angle_beta   98.50800000
_cell_angle_gamma   102.36100000
_symmetry_Int_Tables_number   1
_chemical_formula_structural   Nd(CO2)4
_chemical_formula_sum   'Nd2 C8 O16'
_cell_volume   706.72637403
_cell_formula_units_Z   2
loop_
 _symmetry_equiv_pos_site_id
 _symmetry_equiv_pos_as_xyz
  1  'x, y, z'
loop_
 _atom_site_type_symbol
 _atom_site_label
 _atom_site_symmetry_multiplicity
 _atom_site_fract_x
 _atom_site_fract_y
 _atom_site_fract_z
 _atom_site_occupancy
  Nd  Nd0  1  0.16140000  0.22834000  0.34985000  1
  Nd  Nd1  1  0.83860000  0.77166000  0.65015000  1
  C  C2  1  0.02860000  0.06990000  0.97670000  1
  C  C3  1  0.04480000  0.51230000  0.58050000  1
  C  C4  1  0.08260000  0.98360000  0.51930000  1
  C  C5  1  0.47490000  0.53560000  0.44200000  1
  C  C6  1  0.52510000  0.46440000  0.55800000  1
  C  C7  1  0.91740000  0.01640000  0.48070000  1
  C  C8  1  0.95520000  0.48770000  0.41950000  1
  C  C9  1  0.97140000  0.93010000  0.02330000  1
  O  O10  1  0.00130000  0.04000000  0.83470000  1
  O  O11  1  0.01760000  0.60800000  0.68970000  1
  O  O12  1  0.08360000  0.87800000  0.56800000  1
  O  O13  1  0.09760000  0.19890000  0.07950000  1
  O  O14  1  0.13820000  0.42800000  0.58820000  1
  O  O15  1  0.20390000  0.06780000  0.49850000  1
  O  O16  1  0.34400000  0.46510000  0.34530000  1
  O  O17  1  0.43150000  0.34030000  0.54400000  1
  O  O18  1  0.56850000  0.65970000  0.45600000  1
  O  O19  1  0.65600000  0.53490000  0.65470000  1
  O  O20  1  0.79610000  0.93220000  0.50150000  1
  O  O21  1  0.86180000  0.57200000  0.41180000  1
  O  O22  1  0.90240000  0.80110000  0.92050000  1
  O  O23  1  0.91640000  0.12200000  0.43200000  1
  O  O24  1  0.98240000  0.39200000  0.31030000  1
  O  O25  1  0.99870000  0.96000000  0.16530000  1
