# generated using pymatgen
data_CoH6(C5N2)2
_symmetry_space_group_name_H-M   'P 1'
_cell_length_a   15.46250000
_cell_length_b   15.46250000
_cell_length_c   20.04740000
_cell_angle_alpha   90.00000000
_cell_angle_beta   90.00000000
_cell_angle_gamma   90.00000000
_symmetry_Int_Tables_number   1
_chemical_formula_structural   CoH6(C5N2)2
_chemical_formula_sum   'Co12 H72 C120 N48'
_cell_volume   4793.11093916
_cell_formula_units_Z   12
loop_
 _symmetry_equiv_pos_site_id
 _symmetry_equiv_pos_as_xyz
  1  'x, y, z'
loop_
 _atom_site_type_symbol
 _atom_site_label
 _atom_site_symmetry_multiplicity
 _atom_site_fract_x
 _atom_site_fract_y
 _atom_site_fract_z
 _atom_site_occupancy
  Co  Co0  1  0.08575000  0.58575000  0.50000000  1
  Co  Co1  1  0.08575000  0.91425000  0.00000000  1
  Co  Co2  1  0.25000000  0.75000000  0.00000000  1
  Co  Co3  1  0.25000000  0.75000000  0.50000000  1
  Co  Co4  1  0.41425000  0.58575000  0.00000000  1
  Co  Co5  1  0.41425000  0.91425000  0.50000000  1
  Co  Co6  1  0.58575000  0.08575000  0.50000000  1
  Co  Co7  1  0.58575000  0.41425000  0.00000000  1
  Co  Co8  1  0.75000000  0.25000000  0.00000000  1
  Co  Co9  1  0.75000000  0.25000000  0.50000000  1
  Co  Co10  1  0.91425000  0.08575000  0.00000000  1
  Co  Co11  1  0.91425000  0.41425000  0.50000000  1
  H  H12  1  0.03223000  0.65307000  0.75898000  1
  H  H13  1  0.03223000  0.84693000  0.25898000  1
  H  H14  1  0.04601000  0.63712000  0.65167000  1
  H  H15  1  0.04601000  0.86288000  0.15167000  1
  H  H16  1  0.05342000  0.22060000  0.07682000  1
  H  H17  1  0.05342000  0.27940000  0.57682000  1
  H  H18  1  0.08492000  0.08492000  0.56794000  1
  H  H19  1  0.08492000  0.41508000  0.06794000  1
  H  H20  1  0.13712000  0.54601000  0.34833000  1
  H  H21  1  0.13712000  0.95399000  0.84833000  1
  H  H22  1  0.14491000  0.65925000  0.12474000  1
  H  H23  1  0.14491000  0.84075000  0.62474000  1
  H  H24  1  0.15307000  0.53223000  0.24102000  1
  H  H25  1  0.15307000  0.96777000  0.74102000  1
  H  H26  1  0.15925000  0.64491000  0.87526000  1
  H  H27  1  0.15925000  0.85509000  0.37526000  1
  H  H28  1  0.22060000  0.05342000  0.07682000  1
  H  H29  1  0.22060000  0.44658000  0.57682000  1
  H  H30  1  0.27940000  0.05342000  0.57682000  1
  H  H31  1  0.27940000  0.44658000  0.07682000  1
  H  H32  1  0.34075000  0.64491000  0.37526000  1
  H  H33  1  0.34075000  0.85509000  0.87526000  1
  H  H34  1  0.34693000  0.53223000  0.74102000  1
  H  H35  1  0.34693000  0.96777000  0.24102000  1
  H  H36  1  0.35509000  0.65925000  0.62474000  1
  H  H37  1  0.35509000  0.84075000  0.12474000  1
  H  H38  1  0.36288000  0.54601000  0.84833000  1
  H  H39  1  0.36288000  0.95399000  0.34833000  1
  H  H40  1  0.41508000  0.08492000  0.06794000  1
  H  H41  1  0.41508000  0.41508000  0.56794000  1
  H  H42  1  0.44658000  0.22060000  0.57682000  1
  H  H43  1  0.44658000  0.27940000  0.07682000  1
  H  H44  1  0.45399000  0.63712000  0.15167000  1
  H  H45  1  0.45399000  0.86288000  0.65167000  1
  H  H46  1  0.46777000  0.65307000  0.25898000  1
  H  H47  1  0.46777000  0.84693000  0.75898000  1
  H  H48  1  0.53223000  0.15307000  0.24102000  1
  H  H49  1  0.53223000  0.34693000  0.74102000  1
  H  H50  1  0.54601000  0.13712000  0.34833000  1
  H  H51  1  0.54601000  0.36288000  0.84833000  1
  H  H52  1  0.55342000  0.72060000  0.92318000  1
  H  H53  1  0.55342000  0.77940000  0.42318000  1
  H  H54  1  0.58492000  0.58492000  0.43206000  1
  H  H55  1  0.58492000  0.91508000  0.93206000  1
  H  H56  1  0.63712000  0.04601000  0.65167000  1
  H  H57  1  0.63712000  0.45399000  0.15167000  1
  H  H58  1  0.64491000  0.15925000  0.87526000  1
  H  H59  1  0.64491000  0.34075000  0.37526000  1
  H  H60  1  0.65307000  0.03223000  0.75898000  1
  H  H61  1  0.65307000  0.46777000  0.25898000  1
  H  H62  1  0.65925000  0.14491000  0.12474000  1
  H  H63  1  0.65925000  0.35509000  0.62474000  1
  H  H64  1  0.72060000  0.55342000  0.92318000  1
  H  H65  1  0.72060000  0.94658000  0.42318000  1
  H  H66  1  0.77940000  0.55342000  0.42318000  1
  H  H67  1  0.77940000  0.94658000  0.92318000  1
  H  H68  1  0.84075000  0.14491000  0.62474000  1
  H  H69  1  0.84075000  0.35509000  0.12474000  1
  H  H70  1  0.84693000  0.03223000  0.25898000  1
  H  H71  1  0.84693000  0.46777000  0.75898000  1
  H  H72  1  0.85509000  0.15925000  0.37526000  1
  H  H73  1  0.85509000  0.34075000  0.87526000  1
  H  H74  1  0.86288000  0.04601000  0.15167000  1
  H  H75  1  0.86288000  0.45399000  0.65167000  1
  H  H76  1  0.91508000  0.58492000  0.93206000  1
  H  H77  1  0.91508000  0.91508000  0.43206000  1
  H  H78  1  0.94658000  0.72060000  0.42318000  1
  H  H79  1  0.94658000  0.77940000  0.92318000  1
  H  H80  1  0.95399000  0.13712000  0.84833000  1
  H  H81  1  0.95399000  0.36288000  0.34833000  1
  H  H82  1  0.96777000  0.15307000  0.74102000  1
  H  H83  1  0.96777000  0.34693000  0.24102000  1
  C  C84  1  0.00522000  0.73835000  0.41962000  1
  C  C85  1  0.00522000  0.76165000  0.91962000  1
  C  C86  1  0.00646000  0.59402000  0.63717000  1
  C  C87  1  0.00646000  0.90598000  0.13717000  1
  C  C88  1  0.00884000  0.11891000  0.71761000  1
  C  C89  1  0.00884000  0.38109000  0.21761000  1
  C  C90  1  0.01831000  0.12843000  0.64905000  1
  C  C91  1  0.01831000  0.37157000  0.14905000  1
  C  C92  1  0.03450000  0.69050000  0.88674000  1
  C  C93  1  0.03450000  0.80950000  0.38674000  1
  C  C94  1  0.04953000  0.04953000  0.82343000  1
  C  C95  1  0.04953000  0.45048000  0.32343000  1
  C  C96  1  0.05943000  0.05943000  0.75191000  1
  C  C97  1  0.05943000  0.44057000  0.25191000  1
  C  C98  1  0.07843000  0.07843000  0.61480000  1
  C  C99  1  0.07843000  0.42157000  0.11480000  1
  C  C100  1  0.09402000  0.50646000  0.36283000  1
  C  C101  1  0.09402000  0.99354000  0.86283000  1
  C  C102  1  0.11891000  0.00884000  0.71761000  1
  C  C103  1  0.11891000  0.49116000  0.21761000  1
  C  C104  1  0.12199000  0.68780000  0.89331000  1
  C  C105  1  0.12199000  0.81220000  0.39331000  1
  C  C106  1  0.12843000  0.01831000  0.64905000  1
  C  C107  1  0.12843000  0.48169000  0.14905000  1
  C  C108  1  0.18780000  0.62199000  0.10669000  1
  C  C109  1  0.18780000  0.87801000  0.60669000  1
  C  C110  1  0.19050000  0.53450000  0.11326000  1
  C  C111  1  0.19050000  0.96550000  0.61326000  1
  C  C112  1  0.23835000  0.50522000  0.58038000  1
  C  C113  1  0.23835000  0.99478000  0.08038000  1
  C  C114  1  0.26165000  0.50522000  0.08038000  1
  C  C115  1  0.26165000  0.99478000  0.58038000  1
  C  C116  1  0.30950000  0.53450000  0.61326000  1
  C  C117  1  0.30950000  0.96550000  0.11326000  1
  C  C118  1  0.31220000  0.62199000  0.60669000  1
  C  C119  1  0.31220000  0.87801000  0.10669000  1
  C  C120  1  0.37157000  0.01831000  0.14905000  1
  C  C121  1  0.37157000  0.48169000  0.64905000  1
  C  C122  1  0.37801000  0.68780000  0.39331000  1
  C  C123  1  0.37801000  0.81220000  0.89331000  1
  C  C124  1  0.38109000  0.00884000  0.21761000  1
  C  C125  1  0.38109000  0.49116000  0.71761000  1
  C  C126  1  0.40598000  0.50646000  0.86283000  1
  C  C127  1  0.40598000  0.99354000  0.36283000  1
  C  C128  1  0.42157000  0.07843000  0.11480000  1
  C  C129  1  0.42157000  0.42157000  0.61480000  1
  C  C130  1  0.44057000  0.05943000  0.25191000  1
  C  C131  1  0.44057000  0.44057000  0.75191000  1
  C  C132  1  0.45047000  0.04953000  0.32343000  1
  C  C133  1  0.45048000  0.45047000  0.82343000  1
  C  C134  1  0.46550000  0.69050000  0.38674000  1
  C  C135  1  0.46550000  0.80950000  0.88674000  1
  C  C136  1  0.48169000  0.12843000  0.14905000  1
  C  C137  1  0.48169000  0.37157000  0.64905000  1
  C  C138  1  0.49116000  0.11891000  0.21761000  1
  C  C139  1  0.49116000  0.38109000  0.71761000  1
  C  C140  1  0.49354000  0.59402000  0.13717000  1
  C  C141  1  0.49354000  0.90598000  0.63717000  1
  C  C142  1  0.49478000  0.73835000  0.91962000  1
  C  C143  1  0.49478000  0.76165000  0.41962000  1
  C  C144  1  0.50522000  0.23835000  0.58038000  1
  C  C145  1  0.50522000  0.26165000  0.08038000  1
  C  C146  1  0.50646000  0.09402000  0.36283000  1
  C  C147  1  0.50646000  0.40598000  0.86283000  1
  C  C148  1  0.50884000  0.61891000  0.28239000  1
  C  C149  1  0.50884000  0.88109000  0.78239000  1
  C  C150  1  0.51831000  0.62843000  0.35095000  1
  C  C151  1  0.51831000  0.87157000  0.85095000  1
  C  C152  1  0.53450000  0.19050000  0.11326000  1
  C  C153  1  0.53450000  0.30950000  0.61326000  1
  C  C154  1  0.54952000  0.54953000  0.17657000  1
  C  C155  1  0.54953000  0.95048000  0.67657000  1
  C  C156  1  0.55943000  0.55943000  0.24809000  1
  C  C157  1  0.55943000  0.94057000  0.74809000  1
  C  C158  1  0.57843000  0.57843000  0.38520000  1
  C  C159  1  0.57843000  0.92157000  0.88520000  1
  C  C160  1  0.59402000  0.00646000  0.63717000  1
  C  C161  1  0.59402000  0.49354000  0.13717000  1
  C  C162  1  0.61891000  0.50884000  0.28239000  1
  C  C163  1  0.61891000  0.99116000  0.78239000  1
  C  C164  1  0.62199000  0.18780000  0.10669000  1
  C  C165  1  0.62199000  0.31220000  0.60669000  1
  C  C166  1  0.62843000  0.51831000  0.35095000  1
  C  C167  1  0.62843000  0.98169000  0.85095000  1
  C  C168  1  0.68780000  0.12199000  0.89331000  1
  C  C169  1  0.68780000  0.37801000  0.39331000  1
  C  C170  1  0.69050000  0.03450000  0.88674000  1
  C  C171  1  0.69050000  0.46550000  0.38674000  1
  C  C172  1  0.73835000  0.00522000  0.41962000  1
  C  C173  1  0.73835000  0.49478000  0.91962000  1
  C  C174  1  0.76165000  0.00522000  0.91962000  1
  C  C175  1  0.76165000  0.49478000  0.41962000  1
  C  C176  1  0.80950000  0.03450000  0.38674000  1
  C  C177  1  0.80950000  0.46550000  0.88674000  1
  C  C178  1  0.81220000  0.12199000  0.39331000  1
  C  C179  1  0.81220000  0.37801000  0.89331000  1
  C  C180  1  0.87157000  0.51831000  0.85095000  1
  C  C181  1  0.87157000  0.98169000  0.35095000  1
  C  C182  1  0.87801000  0.18780000  0.60669000  1
  C  C183  1  0.87801000  0.31220000  0.10669000  1
  C  C184  1  0.88109000  0.50884000  0.78239000  1
  C  C185  1  0.88109000  0.99116000  0.28239000  1
  C  C186  1  0.90598000  0.00646000  0.13717000  1
  C  C187  1  0.90598000  0.49354000  0.63717000  1
  C  C188  1  0.92157000  0.57843000  0.88520000  1
  C  C189  1  0.92157000  0.92157000  0.38520000  1
  C  C190  1  0.94057000  0.55943000  0.74809000  1
  C  C191  1  0.94057000  0.94057000  0.24809000  1
  C  C192  1  0.95047000  0.54952000  0.67657000  1
  C  C193  1  0.95048000  0.95047000  0.17657000  1
  C  C194  1  0.96550000  0.19050000  0.61326000  1
  C  C195  1  0.96550000  0.30950000  0.11326000  1
  C  C196  1  0.98169000  0.62843000  0.85095000  1
  C  C197  1  0.98169000  0.87157000  0.35095000  1
  C  C198  1  0.99116000  0.61891000  0.78239000  1
  C  C199  1  0.99116000  0.88109000  0.28239000  1
  C  C200  1  0.99354000  0.09402000  0.86283000  1
  C  C201  1  0.99354000  0.40598000  0.36283000  1
  C  C202  1  0.99478000  0.23835000  0.08038000  1
  C  C203  1  0.99478000  0.26165000  0.58038000  1
  N  N204  1  0.00405000  0.06605000  0.92663000  1
  N  N205  1  0.00405000  0.43395000  0.42663000  1
  N  N206  1  0.06605000  0.00405000  0.92663000  1
  N  N207  1  0.06605000  0.49595000  0.42663000  1
  N  N208  1  0.07463000  0.69709000  0.44652000  1
  N  N209  1  0.07463000  0.80291000  0.94652000  1
  N  N210  1  0.14680000  0.74273000  0.43025000  1
  N  N211  1  0.14680000  0.75727000  0.93025000  1
  N  N212  1  0.19709000  0.57463000  0.55348000  1
  N  N213  1  0.19709000  0.92537000  0.05348000  1
  N  N214  1  0.24273000  0.64680000  0.56975000  1
  N  N215  1  0.24273000  0.85320000  0.06975000  1
  N  N216  1  0.25727000  0.64680000  0.06975000  1
  N  N217  1  0.25727000  0.85320000  0.56975000  1
  N  N218  1  0.30291000  0.57463000  0.05348000  1
  N  N219  1  0.30291000  0.92537000  0.55348000  1
  N  N220  1  0.35320000  0.74273000  0.93025000  1
  N  N221  1  0.35320000  0.75727000  0.43025000  1
  N  N222  1  0.42537000  0.69709000  0.94652000  1
  N  N223  1  0.42537000  0.80291000  0.44652000  1
  N  N224  1  0.43395000  0.00405000  0.42663000  1
  N  N225  1  0.43395000  0.49595000  0.92663000  1
  N  N226  1  0.49595000  0.06605000  0.42663000  1
  N  N227  1  0.49595000  0.43395000  0.92663000  1
  N  N228  1  0.50405000  0.56605000  0.07337000  1
  N  N229  1  0.50405000  0.93395000  0.57337000  1
  N  N230  1  0.56605000  0.50405000  0.07337000  1
  N  N231  1  0.56605000  0.99595000  0.57337000  1
  N  N232  1  0.57463000  0.19709000  0.55348000  1
  N  N233  1  0.57463000  0.30291000  0.05348000  1
  N  N234  1  0.64680000  0.24273000  0.56975000  1
  N  N235  1  0.64680000  0.25727000  0.06975000  1
  N  N236  1  0.69709000  0.07463000  0.44652000  1
  N  N237  1  0.69709000  0.42537000  0.94652000  1
  N  N238  1  0.74273000  0.14680000  0.43025000  1
  N  N239  1  0.74273000  0.35320000  0.93025000  1
  N  N240  1  0.75727000  0.14680000  0.93025000  1
  N  N241  1  0.75727000  0.35320000  0.43025000  1
  N  N242  1  0.80291000  0.07463000  0.94652000  1
  N  N243  1  0.80291000  0.42537000  0.44652000  1
  N  N244  1  0.85320000  0.24273000  0.06975000  1
  N  N245  1  0.85320000  0.25727000  0.56975000  1
  N  N246  1  0.92537000  0.19709000  0.05348000  1
  N  N247  1  0.92537000  0.30291000  0.55348000  1
  N  N248  1  0.93395000  0.50405000  0.57337000  1
  N  N249  1  0.93395000  0.99595000  0.07337000  1
  N  N250  1  0.99595000  0.56605000  0.57337000  1
  N  N251  1  0.99595000  0.93395000  0.07337000  1
