# generated using pymatgen
data_Na2Co3H132C132S8(N2O7)4
_symmetry_space_group_name_H-M   'P 1'
_cell_length_a   12.72590000
_cell_length_b   18.74860000
_cell_length_c   36.79320000
_cell_angle_alpha   90.00000000
_cell_angle_beta   90.00000000
_cell_angle_gamma   101.45200000
_symmetry_Int_Tables_number   1
_chemical_formula_structural   Na2Co3H132C132S8(N2O7)4
_chemical_formula_sum   'Na4 Co6 H264 C264 S16 N16 O56'
_cell_volume   8603.82328447
_cell_formula_units_Z   2
loop_
 _symmetry_equiv_pos_site_id
 _symmetry_equiv_pos_as_xyz
  1  'x, y, z'
loop_
 _atom_site_type_symbol
 _atom_site_label
 _atom_site_symmetry_multiplicity
 _atom_site_fract_x
 _atom_site_fract_y
 _atom_site_fract_z
 _atom_site_occupancy
  Na  Na0  1  0.03406000  0.01926000  0.84611000  1
  Na  Na1  1  0.46594000  0.48074000  0.34611000  1
  Na  Na2  1  0.53406000  0.51926000  0.65389000  1
  Na  Na3  1  0.96594000  0.98074000  0.15389000  1
  Co  Co4  1  0.00000000  0.00000000  0.00000000  1
  Co  Co5  1  0.08053000  0.32891000  0.78931000  1
  Co  Co6  1  0.41947000  0.17109000  0.28931000  1
  Co  Co7  1  0.50000000  0.50000000  0.50000000  1
  Co  Co8  1  0.58053000  0.82891000  0.71069000  1
  Co  Co9  1  0.91947000  0.67109000  0.21069000  1
  H  H10  1  0.00120000  0.84480000  0.23650000  1
  H  H11  1  0.01060000  0.84150000  0.90810000  1
  H  H12  1  0.01820000  0.48550000  0.12790000  1
  H  H13  1  0.02010000  0.29300000  0.41930000  1
  H  H14  1  0.02200000  0.29790000  0.20340000  1
  H  H15  1  0.02320000  0.06930000  0.37000000  1
  H  H16  1  0.02500000  0.29830000  0.54870000  1
  H  H17  1  0.03220000  0.69220000  0.73590000  1
  H  H18  1  0.03560000  0.37740000  0.40890000  1
  H  H19  1  0.03660000  0.59880000  0.78090000  1
  H  H20  1  0.04140000  0.83980000  0.66790000  1
  H  H21  1  0.04250000  0.58190000  0.16790000  1
  H  H22  1  0.04420000  0.50990000  0.27140000  1
  H  H23  1  0.04630000  0.05460000  0.31440000  1
  H  H24  1  0.04820000  0.43630000  0.63320000  1
  H  H25  1  0.05870000  0.00020000  0.61480000  1
  H  H26  1  0.05920000  0.47910000  0.59530000  1
  H  H27  1  0.05940000  0.92120000  0.59850000  1
  H  H28  1  0.06650000  0.57790000  0.29860000  1
  H  H29  1  0.06850000  0.21420000  0.26320000  1
  H  H30  1  0.07510000  0.68050000  0.93650000  1
  H  H31  1  0.07570000  0.77180000  0.97890000  1
  H  H32  1  0.08940000  0.35340000  0.44500000  1
  H  H33  1  0.09260000  0.23730000  0.38220000  1
  H  H34  1  0.09500000  0.47030000  0.50560000  1
  H  H35  1  0.09760000  0.59520000  0.90820000  1
  H  H36  1  0.10240000  0.76120000  0.42830000  1
  H  H37  1  0.10520000  0.55500000  0.66490000  1
  H  H38  1  0.11540000  0.59500000  0.62630000  1
  H  H39  1  0.12170000  0.41390000  0.60150000  1
  H  H40  1  0.12230000  0.82860000  0.63600000  1
  H  H41  1  0.12310000  0.66430000  0.71300000  1
  H  H42  1  0.12380000  0.17930000  0.77300000  1
  H  H43  1  0.12570000  0.14650000  0.02940000  1
  H  H44  1  0.12880000  0.57050000  0.75890000  1
  H  H45  1  0.13710000  0.87280000  0.91060000  1
  H  H46  1  0.13930000  0.74810000  0.72460000  1
  H  H47  1  0.14590000  0.59190000  0.80080000  1
  H  H48  1  0.14960000  0.23360000  0.22980000  1
  H  H49  1  0.16190000  0.14720000  0.91260000  1
  H  H50  1  0.16680000  0.84870000  0.67620000  1
  H  H51  1  0.16790000  0.92890000  0.10630000  1
  H  H52  1  0.18320000  0.82330000  0.28320000  1
  H  H53  1  0.18640000  0.76240000  0.25300000  1
  H  H54  1  0.19040000  0.47950000  0.39890000  1
  H  H55  1  0.19830000  0.32370000  0.32400000  1
  H  H56  1  0.19960000  0.97690000  0.36620000  1
  H  H57  1  0.20110000  0.23290000  0.40330000  1
  H  H58  1  0.20480000  0.54480000  0.15230000  1
  H  H59  1  0.20530000  0.29490000  0.54310000  1
  H  H60  1  0.20550000  0.25870000  0.36180000  1
  H  H61  1  0.20580000  0.00430000  0.08520000  1
  H  H62  1  0.20610000  0.71630000  0.30760000  1
  H  H63  1  0.20660000  0.84650000  0.24170000  1
  H  H64  1  0.21490000  0.60800000  0.65380000  1
  H  H65  1  0.22630000  0.11480000  0.12300000  1
  H  H66  1  0.22760000  0.09410000  0.93260000  1
  H  H67  1  0.22820000  0.48100000  0.19540000  1
  H  H68  1  0.22960000  0.97590000  0.99430000  1
  H  H69  1  0.23290000  0.56140000  0.57880000  1
  H  H70  1  0.23380000  0.07800000  0.32950000  1
  H  H71  1  0.23450000  0.84860000  0.99470000  1
  H  H72  1  0.23460000  0.95520000  0.19580000  1
  H  H73  1  0.24220000  0.17720000  0.94510000  1
  H  H74  1  0.24640000  0.48640000  0.12720000  1
  H  H75  1  0.24810000  0.56680000  0.11220000  1
  H  H76  1  0.25190000  0.93320000  0.61220000  1
  H  H77  1  0.25360000  0.01360000  0.62720000  1
  H  H78  1  0.25780000  0.32280000  0.44510000  1
  H  H79  1  0.26540000  0.54480000  0.69580000  1
  H  H80  1  0.26550000  0.65140000  0.49470000  1
  H  H81  1  0.26620000  0.42200000  0.82950000  1
  H  H82  1  0.26710000  0.93860000  0.07880000  1
  H  H83  1  0.27040000  0.52410000  0.49430000  1
  H  H84  1  0.27180000  0.01900000  0.69540000  1
  H  H85  1  0.27240000  0.40590000  0.43260000  1
  H  H86  1  0.27370000  0.38520000  0.62300000  1
  H  H87  1  0.28510000  0.89200000  0.15380000  1
  H  H88  1  0.29340000  0.65350000  0.74170000  1
  H  H89  1  0.29390000  0.78370000  0.80760000  1
  H  H90  1  0.29420000  0.49570000  0.58520000  1
  H  H91  1  0.29450000  0.24130000  0.86180000  1
  H  H92  1  0.29470000  0.20510000  0.04310000  1
  H  H93  1  0.29520000  0.95520000  0.65230000  1
  H  H94  1  0.29890000  0.26710000  0.90330000  1
  H  H95  1  0.30040000  0.52310000  0.86620000  1
  H  H96  1  0.30170000  0.17630000  0.82400000  1
  H  H97  1  0.30960000  0.02050000  0.89890000  1
  H  H98  1  0.31360000  0.73760000  0.75300000  1
  H  H99  1  0.31680000  0.67670000  0.78320000  1
  H  H100  1  0.33210000  0.57110000  0.60630000  1
  H  H101  1  0.33320000  0.65130000  0.17620000  1
  H  H102  1  0.33810000  0.35280000  0.41260000  1
  H  H103  1  0.35040000  0.26640000  0.72980000  1
  H  H104  1  0.35410000  0.90810000  0.30080000  1
  H  H105  1  0.36070000  0.75190000  0.22460000  1
  H  H106  1  0.36290000  0.62720000  0.41060000  1
  H  H107  1  0.37120000  0.92950000  0.25890000  1
  H  H108  1  0.37430000  0.35350000  0.52940000  1
  H  H109  1  0.37620000  0.32070000  0.27300000  1
  H  H110  1  0.37690000  0.83570000  0.21300000  1
  H  H111  1  0.37770000  0.67140000  0.13600000  1
  H  H112  1  0.37830000  0.08610000  0.10150000  1
  H  H113  1  0.38460000  0.90500000  0.12630000  1
  H  H114  1  0.39480000  0.94500000  0.16490000  1
  H  H115  1  0.39760000  0.73880000  0.92830000  1
  H  H116  1  0.40240000  0.90480000  0.40820000  1
  H  H117  1  0.40500000  0.02970000  0.00560000  1
  H  H118  1  0.40740000  0.26270000  0.88220000  1
  H  H119  1  0.41060000  0.14660000  0.94500000  1
  H  H120  1  0.42430000  0.72820000  0.47890000  1
  H  H121  1  0.42490000  0.81950000  0.43650000  1
  H  H122  1  0.43150000  0.28580000  0.76320000  1
  H  H123  1  0.43350000  0.92210000  0.79860000  1
  H  H124  1  0.44060000  0.57880000  0.09850000  1
  H  H125  1  0.44080000  0.02090000  0.09530000  1
  H  H126  1  0.44130000  0.49980000  0.11480000  1
  H  H127  1  0.45180000  0.06370000  0.13320000  1
  H  H128  1  0.45370000  0.44540000  0.81440000  1
  H  H129  1  0.45580000  0.99010000  0.77140000  1
  H  H130  1  0.45750000  0.91810000  0.66790000  1
  H  H131  1  0.45860000  0.66020000  0.16790000  1
  H  H132  1  0.46340000  0.90120000  0.28090000  1
  H  H133  1  0.46440000  0.12260000  0.90890000  1
  H  H134  1  0.46780000  0.80780000  0.23590000  1
  H  H135  1  0.47500000  0.20170000  0.04870000  1
  H  H136  1  0.47680000  0.43070000  0.87000000  1
  H  H137  1  0.47800000  0.20210000  0.70340000  1
  H  H138  1  0.47990000  0.20700000  0.91930000  1
  H  H139  1  0.48180000  0.01450000  0.62790000  1
  H  H140  1  0.48940000  0.65850000  0.40810000  1
  H  H141  1  0.49880000  0.65520000  0.73650000  1
  H  H142  1  0.50120000  0.34480000  0.26350000  1
  H  H143  1  0.51060000  0.34150000  0.59190000  1
  H  H144  1  0.51820000  0.98550000  0.37210000  1
  H  H145  1  0.52010000  0.79300000  0.08070000  1
  H  H146  1  0.52200000  0.79790000  0.29660000  1
  H  H147  1  0.52320000  0.56930000  0.13000000  1
  H  H148  1  0.52500000  0.79830000  0.95130000  1
  H  H149  1  0.53220000  0.19220000  0.76410000  1
  H  H150  1  0.53560000  0.87740000  0.09110000  1
  H  H151  1  0.53660000  0.09880000  0.71910000  1
  H  H152  1  0.54140000  0.33980000  0.83210000  1
  H  H153  1  0.54250000  0.08190000  0.33210000  1
  H  H154  1  0.54420000  0.00990000  0.22860000  1
  H  H155  1  0.54630000  0.55460000  0.18560000  1
  H  H156  1  0.54820000  0.93630000  0.86680000  1
  H  H157  1  0.55870000  0.50020000  0.88520000  1
  H  H158  1  0.55920000  0.97910000  0.90470000  1
  H  H159  1  0.55940000  0.42120000  0.90150000  1
  H  H160  1  0.56650000  0.07790000  0.20140000  1
  H  H161  1  0.56850000  0.71420000  0.23680000  1
  H  H162  1  0.57510000  0.18050000  0.56350000  1
  H  H163  1  0.57570000  0.27180000  0.52110000  1
  H  H164  1  0.58940000  0.85340000  0.05500000  1
  H  H165  1  0.59260000  0.73730000  0.11780000  1
  H  H166  1  0.59500000  0.97030000  0.99440000  1
  H  H167  1  0.59760000  0.09520000  0.59180000  1
  H  H168  1  0.60240000  0.26120000  0.07170000  1
  H  H169  1  0.60520000  0.05500000  0.83510000  1
  H  H170  1  0.61540000  0.09500000  0.87370000  1
  H  H171  1  0.62170000  0.91390000  0.89850000  1
  H  H172  1  0.62230000  0.32860000  0.86400000  1
  H  H173  1  0.62310000  0.16430000  0.78700000  1
  H  H174  1  0.62380000  0.67930000  0.72700000  1
  H  H175  1  0.62570000  0.64650000  0.47060000  1
  H  H176  1  0.62880000  0.07050000  0.74110000  1
  H  H177  1  0.63710000  0.37280000  0.58940000  1
  H  H178  1  0.63930000  0.24810000  0.77540000  1
  H  H179  1  0.64590000  0.09190000  0.69920000  1
  H  H180  1  0.64960000  0.73360000  0.27020000  1
  H  H181  1  0.66190000  0.64720000  0.58740000  1
  H  H182  1  0.66680000  0.34870000  0.82380000  1
  H  H183  1  0.66790000  0.42890000  0.39370000  1
  H  H184  1  0.68320000  0.32330000  0.21680000  1
  H  H185  1  0.68640000  0.26240000  0.24700000  1
  H  H186  1  0.69040000  0.97950000  0.10110000  1
  H  H187  1  0.69830000  0.82370000  0.17600000  1
  H  H188  1  0.69960000  0.47690000  0.13380000  1
  H  H189  1  0.70110000  0.73290000  0.09670000  1
  H  H190  1  0.70480000  0.04480000  0.34770000  1
  H  H191  1  0.70530000  0.79490000  0.95690000  1
  H  H192  1  0.70550000  0.75870000  0.13820000  1
  H  H193  1  0.70580000  0.50430000  0.41480000  1
  H  H194  1  0.70610000  0.21630000  0.19240000  1
  H  H195  1  0.70660000  0.34650000  0.25830000  1
  H  H196  1  0.71490000  0.10800000  0.84620000  1
  H  H197  1  0.72630000  0.61480000  0.37700000  1
  H  H198  1  0.72760000  0.59410000  0.56740000  1
  H  H199  1  0.72820000  0.98100000  0.30460000  1
  H  H200  1  0.72960000  0.47590000  0.50570000  1
  H  H201  1  0.73290000  0.06140000  0.92120000  1
  H  H202  1  0.73380000  0.57800000  0.17050000  1
  H  H203  1  0.73450000  0.34860000  0.50530000  1
  H  H204  1  0.73460000  0.45520000  0.30420000  1
  H  H205  1  0.74220000  0.67720000  0.55490000  1
  H  H206  1  0.74640000  0.98640000  0.37280000  1
  H  H207  1  0.74810000  0.06680000  0.38780000  1
  H  H208  1  0.75190000  0.43320000  0.88780000  1
  H  H209  1  0.75360000  0.51360000  0.87280000  1
  H  H210  1  0.75780000  0.82280000  0.05490000  1
  H  H211  1  0.76540000  0.04480000  0.80420000  1
  H  H212  1  0.76550000  0.15140000  0.00530000  1
  H  H213  1  0.76620000  0.92200000  0.67050000  1
  H  H214  1  0.76710000  0.43860000  0.42120000  1
  H  H215  1  0.77040000  0.02410000  0.00570000  1
  H  H216  1  0.77180000  0.51900000  0.80460000  1
  H  H217  1  0.77240000  0.90590000  0.06740000  1
  H  H218  1  0.77370000  0.88520000  0.87700000  1
  H  H219  1  0.78510000  0.39200000  0.34620000  1
  H  H220  1  0.79340000  0.15350000  0.75830000  1
  H  H221  1  0.79390000  0.28370000  0.69240000  1
  H  H222  1  0.79420000  0.99570000  0.91480000  1
  H  H223  1  0.79450000  0.74130000  0.63820000  1
  H  H224  1  0.79470000  0.70510000  0.45690000  1
  H  H225  1  0.79520000  0.45520000  0.84770000  1
  H  H226  1  0.79890000  0.76710000  0.59670000  1
  H  H227  1  0.80040000  0.02310000  0.63380000  1
  H  H228  1  0.80170000  0.67630000  0.67600000  1
  H  H229  1  0.80960000  0.52050000  0.60110000  1
  H  H230  1  0.81360000  0.23760000  0.74700000  1
  H  H231  1  0.81680000  0.17670000  0.71680000  1
  H  H232  1  0.83210000  0.07110000  0.89370000  1
  H  H233  1  0.83320000  0.15130000  0.32380000  1
  H  H234  1  0.83810000  0.85280000  0.08740000  1
  H  H235  1  0.85040000  0.76640000  0.77020000  1
  H  H236  1  0.85410000  0.40810000  0.19920000  1
  H  H237  1  0.86070000  0.25190000  0.27540000  1
  H  H238  1  0.86290000  0.12720000  0.08940000  1
  H  H239  1  0.87120000  0.42950000  0.24110000  1
  H  H240  1  0.87430000  0.85350000  0.97060000  1
  H  H241  1  0.87620000  0.82070000  0.22700000  1
  H  H242  1  0.87690000  0.33570000  0.28700000  1
  H  H243  1  0.87770000  0.17140000  0.36400000  1
  H  H244  1  0.87830000  0.58610000  0.39850000  1
  H  H245  1  0.88460000  0.40500000  0.37370000  1
  H  H246  1  0.89480000  0.44500000  0.33510000  1
  H  H247  1  0.89760000  0.23880000  0.57170000  1
  H  H248  1  0.90240000  0.40480000  0.09180000  1
  H  H249  1  0.90500000  0.52970000  0.49440000  1
  H  H250  1  0.90740000  0.76270000  0.61780000  1
  H  H251  1  0.91060000  0.64660000  0.55500000  1
  H  H252  1  0.92430000  0.22820000  0.02110000  1
  H  H253  1  0.92490000  0.31950000  0.06350000  1
  H  H254  1  0.93150000  0.78580000  0.73680000  1
  H  H255  1  0.93350000  0.42210000  0.70140000  1
  H  H256  1  0.94060000  0.07880000  0.40150000  1
  H  H257  1  0.94080000  0.52090000  0.40470000  1
  H  H258  1  0.94130000  0.99980000  0.38520000  1
  H  H259  1  0.95180000  0.56370000  0.36680000  1
  H  H260  1  0.95370000  0.94540000  0.68560000  1
  H  H261  1  0.95580000  0.49010000  0.72860000  1
  H  H262  1  0.95750000  0.41810000  0.83210000  1
  H  H263  1  0.95860000  0.16020000  0.33210000  1
  H  H264  1  0.96340000  0.40120000  0.21910000  1
  H  H265  1  0.96440000  0.62260000  0.59110000  1
  H  H266  1  0.96780000  0.30780000  0.26410000  1
  H  H267  1  0.97500000  0.70170000  0.45130000  1
  H  H268  1  0.97680000  0.93070000  0.63000000  1
  H  H269  1  0.97800000  0.70210000  0.79660000  1
  H  H270  1  0.97990000  0.70700000  0.58070000  1
  H  H271  1  0.98180000  0.51450000  0.87210000  1
  H  H272  1  0.98940000  0.15850000  0.09190000  1
  H  H273  1  0.99880000  0.15520000  0.76350000  1
  C  C274  1  0.00474000  0.99434000  0.26951000  1
  C  C275  1  0.01078000  0.79108000  0.82938000  1
  C  C276  1  0.01310000  0.97260000  0.69845000  1
  C  C277  1  0.02640000  0.17640000  0.81792000  1
  C  C278  1  0.02830000  0.43920000  0.83960000  1
  C  C279  1  0.03502000  0.73772000  0.80614000  1
  C  C280  1  0.04210000  0.49730000  0.86296000  1
  C  C281  1  0.04740000  0.94810000  0.92405000  1
  C  C282  1  0.04920000  0.94830000  0.62056000  1
  C  C283  1  0.05471000  0.14981000  0.78138000  1
  C  C284  1  0.06780000  0.88440000  0.90297000  1
  C  C285  1  0.06840000  0.64840000  0.47609000  1
  C  C286  1  0.06990000  0.34010000  0.41980000  1
  C  C287  1  0.08096000  0.04446000  0.75059000  1
  C  C288  1  0.08810000  0.60820000  0.24474000  1
  C  C289  1  0.09260000  0.55710000  0.27639000  1
  C  C290  1  0.09407000  0.84287000  0.84388000  1
  C  C291  1  0.09700000  0.45470000  0.61317000  1
  C  C292  1  0.10970000  0.69800000  0.73208000  1
  C  C293  1  0.11370000  0.85630000  0.65804000  1
  C  C294  1  0.11430000  0.60380000  0.77789000  1
  C  C295  1  0.11570000  0.97770000  0.68410000  1
  C  C296  1  0.12330000  0.19650000  0.24855000  1
  C  C297  1  0.12860000  0.37490000  0.52566000  1
  C  C298  1  0.13040000  0.93710000  0.64877000  1
  C  C299  1  0.13204000  0.10014000  0.20577000  1
  C  C300  1  0.14023000  0.73493000  0.79648000  1
  C  C301  1  0.14090000  0.71090000  0.94359000  1
  C  C302  1  0.14120000  0.76520000  0.96833000  1
  C  C303  1  0.14450000  0.53040000  0.87309000  1
  C  C304  1  0.15100000  0.44510000  0.51089000  1
  C  C305  1  0.15370000  0.57230000  0.64473000  1
  C  C306  1  0.15501000  0.12921000  0.17105000  1
  C  C307  1  0.15985000  0.03385000  0.21420000  1
  C  C308  1  0.16290000  0.68130000  0.76721000  1
  C  C309  1  0.16800000  0.69920000  0.46371000  1
  C  C310  1  0.16830000  0.75470000  0.43867000  1
  C  C311  1  0.16850000  0.25980000  0.38510000  1
  C  C312  1  0.17790000  0.33460000  0.39678000  1
  C  C313  1  0.18340000  0.12240000  0.02476000  1
  C  C314  1  0.18423000  0.04963000  0.73694000  1
  C  C315  1  0.18840000  0.39170000  0.36656000  1
  C  C316  1  0.19190000  0.46460000  0.37423000  1
  C  C317  1  0.19320000  0.50870000  0.62801000  1
  C  C318  1  0.19660000  0.37270000  0.33010000  1
  C  C319  1  0.19767000  0.51657000  0.34691000  1
  C  C320  1  0.19908000  0.83828000  0.83651000  1
  C  C321  1  0.19916000  0.49586000  0.31075000  1
  C  C322  1  0.20070000  0.01580000  0.70414000  1
  C  C323  1  0.20230000  0.42370000  0.30261000  1
  C  C324  1  0.20730000  0.44200000  0.83760000  1
  C  C325  1  0.21120000  0.09440000  0.14654000  1
  C  C326  1  0.21554000  0.18834000  0.27295000  1
  C  C327  1  0.21610000  0.00020000  0.18938000  1
  C  C328  1  0.21650000  0.34220000  0.53271000  1
  C  C329  1  0.21770000  0.81210000  0.26070000  1
  C  C330  1  0.22130000  0.78540000  0.81282000  1
  C  C331  1  0.22850000  0.50170000  0.85990000  1
  C  C332  1  0.22990000  0.96320000  0.09676000  1
  C  C333  1  0.23010000  0.14400000  0.92430000  1
  C  C334  1  0.23560000  0.81020000  0.97790000  1
  C  C335  1  0.23850000  0.70000000  0.92863000  1
  C  C336  1  0.24280000  0.96200000  0.63381000  1
  C  C337  1  0.24390000  0.02360000  0.00426000  1
  C  C338  1  0.24460000  0.64110000  0.90242000  1
  C  C339  1  0.24630000  0.03000000  0.15539000  1
  C  C340  1  0.25370000  0.47000000  0.65539000  1
  C  C341  1  0.25540000  0.85890000  0.40242000  1
  C  C342  1  0.25610000  0.47640000  0.50426000  1
  C  C343  1  0.25720000  0.53800000  0.13381000  1
  C  C344  1  0.26150000  0.80000000  0.42863000  1
  C  C345  1  0.26440000  0.68980000  0.47790000  1
  C  C346  1  0.26990000  0.35600000  0.42430000  1
  C  C347  1  0.27010000  0.53680000  0.59676000  1
  C  C348  1  0.27150000  0.99830000  0.35990000  1
  C  C349  1  0.27870000  0.71460000  0.31282000  1
  C  C350  1  0.28230000  0.68790000  0.76070000  1
  C  C351  1  0.28350000  0.15780000  0.03271000  1
  C  C352  1  0.28390000  0.49980000  0.68938000  1
  C  C353  1  0.28446000  0.31166000  0.77295000  1
  C  C354  1  0.28880000  0.40560000  0.64654000  1
  C  C355  1  0.29270000  0.05800000  0.33760000  1
  C  C356  1  0.29770000  0.07630000  0.80261000  1
  C  C357  1  0.29930000  0.48420000  0.20414000  1
  C  C358  1  0.30084000  0.00414000  0.81075000  1
  C  C359  1  0.30092000  0.66172000  0.33651000  1
  C  C360  1  0.30233000  0.98343000  0.84691000  1
  C  C361  1  0.30340000  0.12730000  0.83010000  1
  C  C362  1  0.30680000  0.99130000  0.12801000  1
  C  C363  1  0.30810000  0.03540000  0.87423000  1
  C  C364  1  0.31160000  0.10830000  0.86656000  1
  C  C365  1  0.31577000  0.45037000  0.23694000  1
  C  C366  1  0.31660000  0.37760000  0.52476000  1
  C  C367  1  0.32210000  0.16540000  0.89678000  1
  C  C368  1  0.33150000  0.24020000  0.88510000  1
  C  C369  1  0.33170000  0.74530000  0.93867000  1
  C  C370  1  0.33200000  0.80080000  0.96371000  1
  C  C371  1  0.33710000  0.81870000  0.26721000  1
  C  C372  1  0.34015000  0.46615000  0.71420000  1
  C  C373  1  0.34499000  0.37079000  0.67105000  1
  C  C374  1  0.34630000  0.92770000  0.14473000  1
  C  C375  1  0.34900000  0.05490000  0.01089000  1
  C  C376  1  0.35550000  0.96960000  0.37309000  1
  C  C377  1  0.35880000  0.73480000  0.46833000  1
  C  C378  1  0.35910000  0.78910000  0.44359000  1
  C  C379  1  0.35977000  0.76507000  0.29648000  1
  C  C380  1  0.36796000  0.39986000  0.70577000  1
  C  C381  1  0.36960000  0.56290000  0.14877000  1
  C  C382  1  0.37140000  0.12510000  0.02566000  1
  C  C383  1  0.37670000  0.30350000  0.74855000  1
  C  C384  1  0.38430000  0.52230000  0.18410000  1
  C  C385  1  0.38570000  0.89620000  0.27789000  1
  C  C386  1  0.38630000  0.64370000  0.15804000  1
  C  C387  1  0.39030000  0.80200000  0.23208000  1
  C  C388  1  0.40300000  0.04530000  0.11317000  1
  C  C389  1  0.40593000  0.65713000  0.34388000  1
  C  C390  1  0.40740000  0.94290000  0.77639000  1
  C  C391  1  0.41190000  0.89180000  0.74474000  1
  C  C392  1  0.41904000  0.45554000  0.25059000  1
  C  C393  1  0.43010000  0.15990000  0.91980000  1
  C  C394  1  0.43160000  0.85160000  0.97609000  1
  C  C395  1  0.43220000  0.61560000  0.40297000  1
  C  C396  1  0.44529000  0.35019000  0.28138000  1
  C  C397  1  0.45080000  0.55170000  0.12056000  1
  C  C398  1  0.45260000  0.55190000  0.42405000  1
  C  C399  1  0.45790000  0.00270000  0.36296000  1
  C  C400  1  0.46498000  0.76228000  0.30614000  1
  C  C401  1  0.47170000  0.06080000  0.33960000  1
  C  C402  1  0.47360000  0.32360000  0.31792000  1
  C  C403  1  0.48690000  0.52740000  0.19845000  1
  C  C404  1  0.48922000  0.70892000  0.32938000  1
  C  C405  1  0.49526000  0.50566000  0.76951000  1
  C  C406  1  0.50474000  0.49434000  0.23049000  1
  C  C407  1  0.51078000  0.29108000  0.67062000  1
  C  C408  1  0.51310000  0.47260000  0.80155000  1
  C  C409  1  0.52640000  0.67640000  0.68208000  1
  C  C410  1  0.52830000  0.93920000  0.66040000  1
  C  C411  1  0.53502000  0.23772000  0.69386000  1
  C  C412  1  0.54210000  0.99730000  0.63704000  1
  C  C413  1  0.54740000  0.44810000  0.57595000  1
  C  C414  1  0.54920000  0.44830000  0.87944000  1
  C  C415  1  0.55471000  0.64981000  0.71862000  1
  C  C416  1  0.56780000  0.38440000  0.59703000  1
  C  C417  1  0.56840000  0.14840000  0.02391000  1
  C  C418  1  0.56990000  0.84010000  0.08020000  1
  C  C419  1  0.58096000  0.54446000  0.74941000  1
  C  C420  1  0.58810000  0.10820000  0.25526000  1
  C  C421  1  0.59260000  0.05710000  0.22361000  1
  C  C422  1  0.59407000  0.34287000  0.65612000  1
  C  C423  1  0.59700000  0.95470000  0.88683000  1
  C  C424  1  0.60970000  0.19800000  0.76792000  1
  C  C425  1  0.61370000  0.35630000  0.84196000  1
  C  C426  1  0.61430000  0.10380000  0.72211000  1
  C  C427  1  0.61570000  0.47770000  0.81590000  1
  C  C428  1  0.62330000  0.69650000  0.25145000  1
  C  C429  1  0.62860000  0.87490000  0.97434000  1
  C  C430  1  0.63040000  0.43710000  0.85123000  1
  C  C431  1  0.63204000  0.60014000  0.29423000  1
  C  C432  1  0.64023000  0.23493000  0.70352000  1
  C  C433  1  0.64090000  0.21090000  0.55641000  1
  C  C434  1  0.64120000  0.26520000  0.53167000  1
  C  C435  1  0.64450000  0.03040000  0.62691000  1
  C  C436  1  0.65100000  0.94510000  0.98911000  1
  C  C437  1  0.65370000  0.07230000  0.85527000  1
  C  C438  1  0.65501000  0.62921000  0.32895000  1
  C  C439  1  0.65985000  0.53385000  0.28580000  1
  C  C440  1  0.66290000  0.18130000  0.73279000  1
  C  C441  1  0.66800000  0.19920000  0.03629000  1
  C  C442  1  0.66830000  0.25470000  0.06133000  1
  C  C443  1  0.66850000  0.75980000  0.11490000  1
  C  C444  1  0.67790000  0.83460000  0.10322000  1
  C  C445  1  0.68340000  0.62240000  0.47524000  1
  C  C446  1  0.68423000  0.54963000  0.76306000  1
  C  C447  1  0.68840000  0.89170000  0.13344000  1
  C  C448  1  0.69190000  0.96460000  0.12577000  1
  C  C449  1  0.69320000  0.00870000  0.87199000  1
  C  C450  1  0.69660000  0.87270000  0.16990000  1
  C  C451  1  0.69767000  0.01657000  0.15309000  1
  C  C452  1  0.69908000  0.33828000  0.66349000  1
  C  C453  1  0.69916000  0.99586000  0.18925000  1
  C  C454  1  0.70070000  0.51580000  0.79586000  1
  C  C455  1  0.70230000  0.92370000  0.19739000  1
  C  C456  1  0.70730000  0.94200000  0.66240000  1
  C  C457  1  0.71120000  0.59440000  0.35346000  1
  C  C458  1  0.71554000  0.68834000  0.22705000  1
  C  C459  1  0.71610000  0.50020000  0.31062000  1
  C  C460  1  0.71650000  0.84220000  0.96729000  1
  C  C461  1  0.71770000  0.31210000  0.23930000  1
  C  C462  1  0.72130000  0.28540000  0.68718000  1
  C  C463  1  0.72850000  0.00170000  0.64010000  1
  C  C464  1  0.72990000  0.46320000  0.40324000  1
  C  C465  1  0.73010000  0.64400000  0.57570000  1
  C  C466  1  0.73560000  0.31020000  0.52210000  1
  C  C467  1  0.73850000  0.20000000  0.57137000  1
  C  C468  1  0.74280000  0.46200000  0.86619000  1
  C  C469  1  0.74390000  0.52360000  0.49574000  1
  C  C470  1  0.74460000  0.14110000  0.59758000  1
  C  C471  1  0.74630000  0.53000000  0.34461000  1
  C  C472  1  0.75370000  0.97000000  0.84461000  1
  C  C473  1  0.75540000  0.35890000  0.09758000  1
  C  C474  1  0.75610000  0.97640000  0.99574000  1
  C  C475  1  0.75720000  0.03800000  0.36619000  1
  C  C476  1  0.76150000  0.30000000  0.07137000  1
  C  C477  1  0.76440000  0.18980000  0.02210000  1
  C  C478  1  0.76990000  0.85600000  0.07570000  1
  C  C479  1  0.77010000  0.03680000  0.90324000  1
  C  C480  1  0.77150000  0.49830000  0.14010000  1
  C  C481  1  0.77870000  0.21460000  0.18718000  1
  C  C482  1  0.78230000  0.18790000  0.73930000  1
  C  C483  1  0.78350000  0.65780000  0.46729000  1
  C  C484  1  0.78390000  0.99980000  0.81062000  1
  C  C485  1  0.78446000  0.81166000  0.72705000  1
  C  C486  1  0.78880000  0.90560000  0.85346000  1
  C  C487  1  0.79270000  0.55800000  0.16240000  1
  C  C488  1  0.79770000  0.57630000  0.69739000  1
  C  C489  1  0.79930000  0.98420000  0.29586000  1
  C  C490  1  0.80084000  0.50414000  0.68925000  1
  C  C491  1  0.80092000  0.16172000  0.16349000  1
  C  C492  1  0.80233000  0.48343000  0.65309000  1
  C  C493  1  0.80340000  0.62730000  0.66990000  1
  C  C494  1  0.80680000  0.49130000  0.37199000  1
  C  C495  1  0.80810000  0.53540000  0.62577000  1
  C  C496  1  0.81160000  0.60830000  0.63344000  1
  C  C497  1  0.81577000  0.95037000  0.26306000  1
  C  C498  1  0.81660000  0.87760000  0.97524000  1
  C  C499  1  0.82210000  0.66540000  0.60322000  1
  C  C500  1  0.83150000  0.74020000  0.61490000  1
  C  C501  1  0.83170000  0.24530000  0.56133000  1
  C  C502  1  0.83200000  0.30080000  0.53629000  1
  C  C503  1  0.83710000  0.31870000  0.23279000  1
  C  C504  1  0.84015000  0.96615000  0.78580000  1
  C  C505  1  0.84499000  0.87079000  0.82895000  1
  C  C506  1  0.84630000  0.42770000  0.35527000  1
  C  C507  1  0.84900000  0.55490000  0.48911000  1
  C  C508  1  0.85550000  0.46960000  0.12691000  1
  C  C509  1  0.85880000  0.23480000  0.03167000  1
  C  C510  1  0.85910000  0.28910000  0.05641000  1
  C  C511  1  0.85977000  0.26507000  0.20352000  1
  C  C512  1  0.86796000  0.89986000  0.79423000  1
  C  C513  1  0.86960000  0.06290000  0.35123000  1
  C  C514  1  0.87140000  0.62510000  0.47434000  1
  C  C515  1  0.87670000  0.80350000  0.75145000  1
  C  C516  1  0.88430000  0.02230000  0.31590000  1
  C  C517  1  0.88570000  0.39620000  0.22211000  1
  C  C518  1  0.88630000  0.14370000  0.34196000  1
  C  C519  1  0.89030000  0.30200000  0.26792000  1
  C  C520  1  0.90300000  0.54530000  0.38683000  1
  C  C521  1  0.90593000  0.15713000  0.15612000  1
  C  C522  1  0.90740000  0.44290000  0.72361000  1
  C  C523  1  0.91190000  0.39180000  0.75526000  1
  C  C524  1  0.91904000  0.95554000  0.24941000  1
  C  C525  1  0.93010000  0.65990000  0.58020000  1
  C  C526  1  0.93160000  0.35160000  0.52391000  1
  C  C527  1  0.93220000  0.11560000  0.09703000  1
  C  C528  1  0.94529000  0.85019000  0.21862000  1
  C  C529  1  0.95080000  0.05170000  0.37944000  1
  C  C530  1  0.95260000  0.05190000  0.07595000  1
  C  C531  1  0.95790000  0.50270000  0.13704000  1
  C  C532  1  0.96498000  0.26228000  0.19386000  1
  C  C533  1  0.97170000  0.56080000  0.16040000  1
  C  C534  1  0.97360000  0.82360000  0.18208000  1
  C  C535  1  0.98690000  0.02740000  0.30155000  1
  C  C536  1  0.98922000  0.20892000  0.17062000  1
  C  C537  1  0.99526000  0.00566000  0.73049000  1
  S  S538  1  0.12452000  0.21360000  0.15733000  1
  S  S539  1  0.14019000  0.99491000  0.25788000  1
  S  S540  1  0.19191000  0.60682000  0.36006000  1
  S  S541  1  0.20199000  0.39383000  0.25708000  1
  S  S542  1  0.29801000  0.10617000  0.75708000  1
  S  S543  1  0.30809000  0.89318000  0.86006000  1
  S  S544  1  0.35981000  0.50509000  0.75788000  1
  S  S545  1  0.37548000  0.28640000  0.65733000  1
  S  S546  1  0.62452000  0.71360000  0.34267000  1
  S  S547  1  0.64019000  0.49491000  0.24212000  1
  S  S548  1  0.69191000  0.10682000  0.13994000  1
  S  S549  1  0.70199000  0.89383000  0.24292000  1
  S  S550  1  0.79801000  0.60617000  0.74292000  1
  S  S551  1  0.80809000  0.39318000  0.63994000  1
  S  S552  1  0.85981000  0.00509000  0.74212000  1
  S  S553  1  0.87548000  0.78640000  0.84267000  1
  N  N554  1  0.02760000  0.33650000  0.53460000  1
  N  N555  1  0.11024000  0.41034000  0.82665000  1
  N  N556  1  0.15550000  0.59010000  0.89621000  1
  N  N557  1  0.16008000  0.05468000  0.01067000  1
  N  N558  1  0.33992000  0.44532000  0.51067000  1
  N  N559  1  0.34450000  0.90990000  0.39621000  1
  N  N560  1  0.38976000  0.08966000  0.32665000  1
  N  N561  1  0.47240000  0.16350000  0.03460000  1
  N  N562  1  0.52760000  0.83650000  0.96540000  1
  N  N563  1  0.61024000  0.91034000  0.67335000  1
  N  N564  1  0.65550000  0.09010000  0.60379000  1
  N  N565  1  0.66008000  0.55468000  0.48933000  1
  N  N566  1  0.83992000  0.94532000  0.98933000  1
  N  N567  1  0.84450000  0.40990000  0.10379000  1
  N  N568  1  0.88976000  0.58966000  0.17335000  1
  N  N569  1  0.97240000  0.66350000  0.46540000  1
  O  O570  1  0.00581000  0.13461000  0.84371000  1
  O  O571  1  0.00627000  0.63747000  0.24734000  1
  O  O572  1  0.02355000  0.24405000  0.81892000  1
  O  O573  1  0.02726000  0.00226000  0.90784000  1
  O  O574  1  0.05135000  0.94025000  0.95790000  1
  O  O575  1  0.06313000  0.07403000  0.78393000  1
  O  O576  1  0.07042000  0.89962000  0.86456000  1
  O  O577  1  0.07280000  0.59800000  0.49687000  1
  O  O578  1  0.07396000  0.12986000  0.23082000  1
  O  O579  1  0.15430000  0.61650000  0.22058000  1
  O  O580  1  0.16940000  0.86180000  0.38735000  1
  O  O581  1  0.19839000  0.54509000  0.28277000  1
  O  O582  1  0.20051000  0.32161000  0.75715000  1
  O  O583  1  0.20611000  0.19261000  0.30603000  1
  O  O584  1  0.29389000  0.30739000  0.80603000  1
  O  O585  1  0.29949000  0.17839000  0.25715000  1
  O  O586  1  0.30161000  0.95491000  0.78277000  1
  O  O587  1  0.33060000  0.63820000  0.88735000  1
  O  O588  1  0.34570000  0.88350000  0.72058000  1
  O  O589  1  0.42604000  0.37014000  0.73082000  1
  O  O590  1  0.42720000  0.90200000  0.99687000  1
  O  O591  1  0.42958000  0.60038000  0.36456000  1
  O  O592  1  0.43687000  0.42597000  0.28393000  1
  O  O593  1  0.44865000  0.55975000  0.45790000  1
  O  O594  1  0.47274000  0.49774000  0.40784000  1
  O  O595  1  0.47645000  0.25595000  0.31892000  1
  O  O596  1  0.49373000  0.86253000  0.74734000  1
  O  O597  1  0.49419000  0.36539000  0.34371000  1
  O  O598  1  0.50581000  0.63461000  0.65629000  1
  O  O599  1  0.50627000  0.13747000  0.25266000  1
  O  O600  1  0.52355000  0.74405000  0.68108000  1
  O  O601  1  0.52726000  0.50226000  0.59216000  1
  O  O602  1  0.55135000  0.44025000  0.54210000  1
  O  O603  1  0.56313000  0.57403000  0.71607000  1
  O  O604  1  0.57042000  0.39962000  0.63544000  1
  O  O605  1  0.57280000  0.09800000  0.00313000  1
  O  O606  1  0.57396000  0.62986000  0.26918000  1
  O  O607  1  0.65430000  0.11650000  0.27942000  1
  O  O608  1  0.66940000  0.36180000  0.11265000  1
  O  O609  1  0.69839000  0.04509000  0.21723000  1
  O  O610  1  0.70051000  0.82161000  0.74285000  1
  O  O611  1  0.70611000  0.69261000  0.19397000  1
  O  O612  1  0.79389000  0.80739000  0.69397000  1
  O  O613  1  0.79949000  0.67839000  0.24285000  1
  O  O614  1  0.80161000  0.45491000  0.71723000  1
  O  O615  1  0.83060000  0.13820000  0.61265000  1
  O  O616  1  0.84570000  0.38350000  0.77942000  1
  O  O617  1  0.92604000  0.87014000  0.76918000  1
  O  O618  1  0.92720000  0.40200000  0.50313000  1
  O  O619  1  0.92958000  0.10038000  0.13544000  1
  O  O620  1  0.93687000  0.92597000  0.21607000  1
  O  O621  1  0.94865000  0.05975000  0.04210000  1
  O  O622  1  0.97274000  0.99774000  0.09216000  1
  O  O623  1  0.97645000  0.75595000  0.18108000  1
  O  O624  1  0.99373000  0.36253000  0.75266000  1
  O  O625  1  0.99419000  0.86539000  0.15629000  1
