# generated using pymatgen
data_NdH7C19(O4F3)2
_symmetry_space_group_name_H-M   'P 1'
_cell_length_a   7.36540000
_cell_length_b   23.48080000
_cell_length_c   29.02840000
_cell_angle_alpha   90.00000000
_cell_angle_beta   90.00000000
_cell_angle_gamma   90.96900000
_symmetry_Int_Tables_number   1
_chemical_formula_structural   NdH7C19(O4F3)2
_chemical_formula_sum   'Nd8 H56 C152 O64 F48'
_cell_volume   5019.61274692
_cell_formula_units_Z   8
loop_
 _symmetry_equiv_pos_site_id
 _symmetry_equiv_pos_as_xyz
  1  'x, y, z'
loop_
 _atom_site_type_symbol
 _atom_site_label
 _atom_site_symmetry_multiplicity
 _atom_site_fract_x
 _atom_site_fract_y
 _atom_site_fract_z
 _atom_site_occupancy
  Nd  Nd0  1  0.21046000  0.32792000  0.70271000  1
  Nd  Nd1  1  0.21046000  0.82792000  0.79729000  1
  Nd  Nd2  1  0.28631000  0.24295000  0.23782000  1
  Nd  Nd3  1  0.28631000  0.74295000  0.26218000  1
  Nd  Nd4  1  0.71369000  0.25705000  0.73782000  1
  Nd  Nd5  1  0.71369000  0.75705000  0.76218000  1
  Nd  Nd6  1  0.78954000  0.17208000  0.20271000  1
  Nd  Nd7  1  0.78954000  0.67208000  0.29729000  1
  H  H8  1  0.02260000  0.22410000  0.56830000  1
  H  H9  1  0.02260000  0.72410000  0.93170000  1
  H  H10  1  0.03450000  0.46220000  0.82220000  1
  H  H11  1  0.03450000  0.96220000  0.67780000  1
  H  H12  1  0.07110000  0.37980000  0.42340000  1
  H  H13  1  0.07110000  0.87980000  0.07660000  1
  H  H14  1  0.10320000  0.15640000  0.79460000  1
  H  H15  1  0.10320000  0.65640000  0.70540000  1
  H  H16  1  0.11710000  0.42090000  0.18300000  1
  H  H17  1  0.11710000  0.92090000  0.31700000  1
  H  H18  1  0.12910000  0.30500000  0.00200000  1
  H  H19  1  0.12910000  0.80500000  0.49800000  1
  H  H20  1  0.23150000  0.21270000  0.94980000  1
  H  H21  1  0.23150000  0.71270000  0.55020000  1
  H  H22  1  0.24100000  0.34770000  0.83400000  1
  H  H23  1  0.24100000  0.84770000  0.66600000  1
  H  H24  1  0.25070000  0.06740000  0.58170000  1
  H  H25  1  0.25070000  0.56740000  0.91830000  1
  H  H26  1  0.41110000  0.44360000  0.82740000  1
  H  H27  1  0.41110000  0.94360000  0.67260000  1
  H  H28  1  0.41120000  0.25860000  0.55170000  1
  H  H29  1  0.41120000  0.75860000  0.94830000  1
  H  H30  1  0.41790000  0.36100000  0.89930000  1
  H  H31  1  0.41790000  0.86100000  0.60070000  1
  H  H32  1  0.43110000  0.13490000  0.61860000  1
  H  H33  1  0.43110000  0.63490000  0.88140000  1
  H  H34  1  0.44080000  0.00350000  0.38210000  1
  H  H35  1  0.44080000  0.50350000  0.11790000  1
  H  H36  1  0.55920000  0.49650000  0.88210000  1
  H  H37  1  0.55920000  0.99650000  0.61790000  1
  H  H38  1  0.56890000  0.36510000  0.11860000  1
  H  H39  1  0.56890000  0.86510000  0.38140000  1
  H  H40  1  0.58210000  0.13900000  0.39930000  1
  H  H41  1  0.58210000  0.63900000  0.10070000  1
  H  H42  1  0.58880000  0.24140000  0.05170000  1
  H  H43  1  0.58880000  0.74140000  0.44830000  1
  H  H44  1  0.58890000  0.05640000  0.32740000  1
  H  H45  1  0.58890000  0.55640000  0.17260000  1
  H  H46  1  0.74930000  0.43260000  0.08170000  1
  H  H47  1  0.74930000  0.93260000  0.41830000  1
  H  H48  1  0.75900000  0.15230000  0.33400000  1
  H  H49  1  0.75900000  0.65230000  0.16600000  1
  H  H50  1  0.76850000  0.28730000  0.44980000  1
  H  H51  1  0.76850000  0.78730000  0.05020000  1
  H  H52  1  0.87090000  0.19500000  0.50200000  1
  H  H53  1  0.87090000  0.69500000  0.99800000  1
  H  H54  1  0.88290000  0.07910000  0.68300000  1
  H  H55  1  0.88290000  0.57910000  0.81700000  1
  H  H56  1  0.89680000  0.34360000  0.29460000  1
  H  H57  1  0.89680000  0.84360000  0.20540000  1
  H  H58  1  0.92890000  0.12020000  0.92340000  1
  H  H59  1  0.92890000  0.62020000  0.57660000  1
  H  H60  1  0.96550000  0.03780000  0.32220000  1
  H  H61  1  0.96550000  0.53780000  0.17780000  1
  H  H62  1  0.97740000  0.27590000  0.06830000  1
  H  H63  1  0.97740000  0.77590000  0.43170000  1
  C  C64  1  0.00530000  0.41040000  0.17040000  1
  C  C65  1  0.00530000  0.91040000  0.32960000  1
  C  C66  1  0.00810000  0.27000000  0.81120000  1
  C  C67  1  0.00810000  0.77000000  0.68880000  1
  C  C68  1  0.01790000  0.17750000  0.88570000  1
  C  C69  1  0.01790000  0.67750000  0.61430000  1
  C  C70  1  0.04170000  0.15100000  0.73860000  1
  C  C71  1  0.04170000  0.65100000  0.76140000  1
  C  C72  1  0.04380000  0.47530000  0.92060000  1
  C  C73  1  0.04380000  0.97530000  0.57940000  1
  C  C74  1  0.05120000  0.06470000  0.63010000  1
  C  C75  1  0.05120000  0.56470000  0.86990000  1
  C  C76  1  0.06660000  0.10860000  0.25770000  1
  C  C77  1  0.06660000  0.60860000  0.24230000  1
  C  C78  1  0.07020000  0.48070000  0.10620000  1
  C  C79  1  0.07020000  0.98070000  0.39380000  1
  C  C80  1  0.08160000  0.21480000  0.13870000  1
  C  C81  1  0.08160000  0.71480000  0.36130000  1
  C  C82  1  0.09090000  0.04270000  0.32390000  1
  C  C83  1  0.09090000  0.54270000  0.17610000  1
  C  C84  1  0.10010000  0.26820000  0.06490000  1
  C  C85  1  0.10010000  0.76820000  0.43510000  1
  C  C86  1  0.10230000  0.13020000  0.69270000  1
  C  C87  1  0.10230000  0.63020000  0.80730000  1
  C  C88  1  0.12690000  0.23090000  0.88730000  1
  C  C89  1  0.12690000  0.73090000  0.61270000  1
  C  C90  1  0.12850000  0.27230000  0.85280000  1
  C  C91  1  0.12850000  0.77230000  0.64720000  1
  C  C92  1  0.17950000  0.07770000  0.29170000  1
  C  C93  1  0.17950000  0.57770000  0.20830000  1
  C  C94  1  0.18590000  0.01530000  0.35820000  1
  C  C95  1  0.18590000  0.51530000  0.14180000  1
  C  C96  1  0.18910000  0.44920000  0.07130000  1
  C  C97  1  0.18910000  0.94920000  0.42870000  1
  C  C98  1  0.19100000  0.28530000  0.02470000  1
  C  C99  1  0.19100000  0.78530000  0.47530000  1
  C  C100  1  0.19130000  0.23970000  0.09980000  1
  C  C101  1  0.19130000  0.73970000  0.40020000  1
  C  C102  1  0.21450000  0.08260000  0.60980000  1
  C  C103  1  0.21450000  0.58260000  0.89020000  1
  C  C104  1  0.23430000  0.23980000  0.92640000  1
  C  C105  1  0.23430000  0.73980000  0.57360000  1
  C  C106  1  0.23850000  0.32050000  0.85730000  1
  C  C107  1  0.23850000  0.82050000  0.64270000  1
  C  C108  1  0.27090000  0.14650000  0.67340000  1
  C  C109  1  0.27090000  0.64650000  0.82660000  1
  C  C110  1  0.32210000  0.12320000  0.63200000  1
  C  C111  1  0.32210000  0.62320000  0.86800000  1
  C  C112  1  0.34560000  0.32830000  0.89660000  1
  C  C113  1  0.34560000  0.82830000  0.60340000  1
  C  C114  1  0.34570000  0.28820000  0.93150000  1
  C  C115  1  0.34570000  0.78820000  0.56850000  1
  C  C116  1  0.36480000  0.24330000  0.46220000  1
  C  C117  1  0.36480000  0.74330000  0.03780000  1
  C  C118  1  0.37060000  0.08310000  0.29210000  1
  C  C119  1  0.37060000  0.58310000  0.20790000  1
  C  C120  1  0.37450000  0.02150000  0.35920000  1
  C  C121  1  0.37450000  0.52150000  0.14080000  1
  C  C122  1  0.37470000  0.27290000  0.01870000  1
  C  C123  1  0.37470000  0.77290000  0.48130000  1
  C  C124  1  0.37960000  0.23130000  0.09510000  1
  C  C125  1  0.37960000  0.73130000  0.40490000  1
  C  C126  1  0.39690000  0.18990000  0.69450000  1
  C  C127  1  0.39690000  0.68990000  0.80550000  1
  C  C128  1  0.46280000  0.05390000  0.32650000  1
  C  C129  1  0.46280000  0.55390000  0.17350000  1
  C  C130  1  0.46500000  0.24770000  0.05470000  1
  C  C131  1  0.46500000  0.74770000  0.44530000  1
  C  C132  1  0.46730000  0.14410000  0.48200000  1
  C  C133  1  0.46730000  0.64410000  0.01800000  1
  C  C134  1  0.46830000  0.29330000  0.97380000  1
  C  C135  1  0.46830000  0.79330000  0.52620000  1
  C  C136  1  0.47770000  0.11860000  0.25830000  1
  C  C137  1  0.47770000  0.61860000  0.24170000  1
  C  C138  1  0.48580000  0.20530000  0.13260000  1
  C  C139  1  0.48580000  0.70530000  0.36740000  1
  C  C140  1  0.51420000  0.29470000  0.63260000  1
  C  C141  1  0.51420000  0.79470000  0.86740000  1
  C  C142  1  0.52230000  0.38140000  0.75830000  1
  C  C143  1  0.52230000  0.88140000  0.74170000  1
  C  C144  1  0.53170000  0.20670000  0.47380000  1
  C  C145  1  0.53170000  0.70670000  0.02620000  1
  C  C146  1  0.53270000  0.35590000  0.98200000  1
  C  C147  1  0.53270000  0.85590000  0.51800000  1
  C  C148  1  0.53500000  0.25230000  0.55470000  1
  C  C149  1  0.53500000  0.75230000  0.94530000  1
  C  C150  1  0.53720000  0.44610000  0.82650000  1
  C  C151  1  0.53720000  0.94610000  0.67350000  1
  C  C152  1  0.60310000  0.31010000  0.19450000  1
  C  C153  1  0.60310000  0.81010000  0.30550000  1
  C  C154  1  0.62040000  0.26870000  0.59510000  1
  C  C155  1  0.62040000  0.76870000  0.90490000  1
  C  C156  1  0.62530000  0.22710000  0.51870000  1
  C  C157  1  0.62530000  0.72710000  0.98130000  1
  C  C158  1  0.62550000  0.47850000  0.85920000  1
  C  C159  1  0.62550000  0.97850000  0.64080000  1
  C  C160  1  0.62940000  0.41690000  0.79210000  1
  C  C161  1  0.62940000  0.91690000  0.70790000  1
  C  C162  1  0.63520000  0.25670000  0.96220000  1
  C  C163  1  0.63520000  0.75670000  0.53780000  1
  C  C164  1  0.65430000  0.21180000  0.43150000  1
  C  C165  1  0.65430000  0.71180000  0.06850000  1
  C  C166  1  0.65440000  0.17170000  0.39660000  1
  C  C167  1  0.65440000  0.67170000  0.10340000  1
  C  C168  1  0.67790000  0.37680000  0.13200000  1
  C  C169  1  0.67790000  0.87680000  0.36800000  1
  C  C170  1  0.72910000  0.35350000  0.17340000  1
  C  C171  1  0.72910000  0.85350000  0.32660000  1
  C  C172  1  0.76150000  0.17950000  0.35730000  1
  C  C173  1  0.76150000  0.67950000  0.14270000  1
  C  C174  1  0.76570000  0.26020000  0.42640000  1
  C  C175  1  0.76570000  0.76020000  0.07360000  1
  C  C176  1  0.78550000  0.41740000  0.10980000  1
  C  C177  1  0.78550000  0.91740000  0.39020000  1
  C  C178  1  0.80870000  0.26030000  0.59980000  1
  C  C179  1  0.80870000  0.76030000  0.90020000  1
  C  C180  1  0.80900000  0.21470000  0.52470000  1
  C  C181  1  0.80900000  0.71470000  0.97530000  1
  C  C182  1  0.81090000  0.05080000  0.57130000  1
  C  C183  1  0.81090000  0.55080000  0.92870000  1
  C  C184  1  0.81410000  0.48470000  0.85820000  1
  C  C185  1  0.81410000  0.98470000  0.64180000  1
  C  C186  1  0.82050000  0.42230000  0.79170000  1
  C  C187  1  0.82050000  0.92230000  0.70830000  1
  C  C188  1  0.87150000  0.22770000  0.35280000  1
  C  C189  1  0.87150000  0.72770000  0.14720000  1
  C  C190  1  0.87310000  0.26910000  0.38730000  1
  C  C191  1  0.87310000  0.76910000  0.11270000  1
  C  C192  1  0.89770000  0.36980000  0.19270000  1
  C  C193  1  0.89770000  0.86980000  0.30730000  1
  C  C194  1  0.89990000  0.23180000  0.56490000  1
  C  C195  1  0.89990000  0.73180000  0.93510000  1
  C  C196  1  0.90910000  0.45730000  0.82390000  1
  C  C197  1  0.90910000  0.95730000  0.67610000  1
  C  C198  1  0.91840000  0.28520000  0.63870000  1
  C  C199  1  0.91840000  0.78520000  0.86130000  1
  C  C200  1  0.92980000  0.01930000  0.60620000  1
  C  C201  1  0.92980000  0.51930000  0.89380000  1
  C  C202  1  0.93340000  0.39140000  0.75770000  1
  C  C203  1  0.93340000  0.89140000  0.74230000  1
  C  C204  1  0.94880000  0.43530000  0.13010000  1
  C  C205  1  0.94880000  0.93530000  0.36990000  1
  C  C206  1  0.95620000  0.02470000  0.42060000  1
  C  C207  1  0.95620000  0.52470000  0.07940000  1
  C  C208  1  0.95830000  0.34900000  0.23860000  1
  C  C209  1  0.95830000  0.84900000  0.26140000  1
  C  C210  1  0.98210000  0.32250000  0.38570000  1
  C  C211  1  0.98210000  0.82250000  0.11430000  1
  C  C212  1  0.99190000  0.23000000  0.31120000  1
  C  C213  1  0.99190000  0.73000000  0.18880000  1
  C  C214  1  0.99470000  0.08960000  0.67040000  1
  C  C215  1  0.99470000  0.58960000  0.82960000  1
  O  O216  1  0.00640000  0.34890000  0.34770000  1
  O  O217  1  0.00640000  0.84890000  0.15230000  1
  O  O218  1  0.00680000  0.16820000  0.13350000  1
  O  O219  1  0.00680000  0.66820000  0.36650000  1
  O  O220  1  0.04070000  0.34260000  0.42300000  1
  O  O221  1  0.04070000  0.84260000  0.07700000  1
  O  O222  1  0.05620000  0.24480000  0.17567000  1
  O  O223  1  0.05620000  0.74480000  0.32433000  1
  O  O224  1  0.07930000  0.27740000  0.77181000  1
  O  O225  1  0.07930000  0.77740000  0.72819000  1
  O  O226  1  0.10490000  0.39930000  0.75840000  1
  O  O227  1  0.10490000  0.89930000  0.74160000  1
  O  O228  1  0.11390000  0.33270000  0.24501000  1
  O  O229  1  0.11390000  0.83270000  0.25499000  1
  O  O230  1  0.13930000  0.14410000  0.23013000  1
  O  O231  1  0.13930000  0.64410000  0.26987000  1
  O  O232  1  0.15960000  0.14670000  0.77169000  1
  O  O233  1  0.15960000  0.64670000  0.72831000  1
  O  O234  1  0.15970000  0.23610000  0.31560000  1
  O  O235  1  0.15970000  0.73610000  0.18440000  1
  O  O236  1  0.33540000  0.23440000  0.71240000  1
  O  O237  1  0.33540000  0.73440000  0.78760000  1
  O  O238  1  0.34890000  0.30120000  0.62690000  1
  O  O239  1  0.34890000  0.80120000  0.87310000  1
  O  O240  1  0.40640000  0.19230000  0.16983000  1
  O  O241  1  0.40640000  0.69230000  0.33017000  1
  O  O242  1  0.43660000  0.31940000  0.19310000  1
  O  O243  1  0.43660000  0.81940000  0.30690000  1
  O  O244  1  0.44740000  0.40690000  0.72530000  1
  O  O245  1  0.44740000  0.90690000  0.77470000  1
  O  O246  1  0.49600000  0.32840000  0.76512000  1
  O  O247  1  0.49600000  0.82840000  0.73488000  1
  O  O248  1  0.50400000  0.17160000  0.26512000  1
  O  O249  1  0.50400000  0.67160000  0.23488000  1
  O  O250  1  0.55260000  0.09310000  0.22530000  1
  O  O251  1  0.55260000  0.59310000  0.27470000  1
  O  O252  1  0.56340000  0.18060000  0.69310000  1
  O  O253  1  0.56340000  0.68060000  0.80690000  1
  O  O254  1  0.59360000  0.30770000  0.66983000  1
  O  O255  1  0.59360000  0.80770000  0.83017000  1
  O  O256  1  0.65110000  0.19880000  0.12690000  1
  O  O257  1  0.65110000  0.69880000  0.37310000  1
  O  O258  1  0.66460000  0.26560000  0.21240000  1
  O  O259  1  0.66460000  0.76560000  0.28760000  1
  O  O260  1  0.84030000  0.26390000  0.81560000  1
  O  O261  1  0.84030000  0.76390000  0.68440000  1
  O  O262  1  0.84040000  0.35330000  0.27169000  1
  O  O263  1  0.84040000  0.85330000  0.22831000  1
  O  O264  1  0.86070000  0.35590000  0.73013000  1
  O  O265  1  0.86070000  0.85590000  0.76987000  1
  O  O266  1  0.88610000  0.16730000  0.74501000  1
  O  O267  1  0.88610000  0.66730000  0.75499000  1
  O  O268  1  0.89510000  0.10070000  0.25840000  1
  O  O269  1  0.89510000  0.60070000  0.24160000  1
  O  O270  1  0.92070000  0.22260000  0.27181000  1
  O  O271  1  0.92070000  0.72260000  0.22819000  1
  O  O272  1  0.94380000  0.25520000  0.67567000  1
  O  O273  1  0.94380000  0.75520000  0.82433000  1
  O  O274  1  0.95930000  0.15740000  0.92300000  1
  O  O275  1  0.95930000  0.65740000  0.57700000  1
  O  O276  1  0.99320000  0.33180000  0.63350000  1
  O  O277  1  0.99320000  0.83180000  0.86650000  1
  O  O278  1  0.99360000  0.15110000  0.84770000  1
  O  O279  1  0.99360000  0.65110000  0.65230000  1
  F  F280  1  0.05210000  0.07120000  0.43161000  1
  F  F281  1  0.05210000  0.57120000  0.06839000  1
  F  F282  1  0.09190000  0.41730000  0.04221000  1
  F  F283  1  0.09190000  0.91730000  0.45779000  1
  F  F284  1  0.11530000  0.49530000  0.95998000  1
  F  F285  1  0.11530000  0.99530000  0.54002000  1
  F  F286  1  0.18460000  0.45780000  0.89522000  1
  F  F287  1  0.18460000  0.95780000  0.60478000  1
  F  F288  1  0.22180000  0.23470000  0.49121000  1
  F  F289  1  0.22180000  0.73470000  0.00879000  1
  F  F290  1  0.29240000  0.48460000  0.04593000  1
  F  F291  1  0.29240000  0.98460000  0.45407000  1
  F  F292  1  0.30220000  0.41390000  0.09270000  1
  F  F293  1  0.30220000  0.91390000  0.40730000  1
  F  F294  1  0.30330000  0.23420000  0.42012000  1
  F  F295  1  0.30330000  0.73420000  0.07988000  1
  F  F296  1  0.34940000  0.12620000  0.45043000  1
  F  F297  1  0.34940000  0.62620000  0.04957000  1
  F  F298  1  0.37910000  0.13940000  0.52247000  1
  F  F299  1  0.37910000  0.63940000  0.97753000  1
  F  F300  1  0.39500000  0.39090000  0.98268000  1
  F  F301  1  0.39500000  0.89090000  0.51732000  1
  F  F302  1  0.40810000  0.29930000  0.46573000  1
  F  F303  1  0.40810000  0.79930000  0.03427000  1
  F  F304  1  0.59190000  0.20070000  0.96573000  1
  F  F305  1  0.59190000  0.70070000  0.53427000  1
  F  F306  1  0.60500000  0.10910000  0.48268000  1
  F  F307  1  0.60500000  0.60910000  0.01732000  1
  F  F308  1  0.62090000  0.36060000  0.02247000  1
  F  F309  1  0.62090000  0.86060000  0.47753000  1
  F  F310  1  0.65060000  0.37380000  0.95043000  1
  F  F311  1  0.65060000  0.87380000  0.54957000  1
  F  F312  1  0.69670000  0.26580000  0.92012000  1
  F  F313  1  0.69670000  0.76580000  0.57988000  1
  F  F314  1  0.69780000  0.08610000  0.59270000  1
  F  F315  1  0.69780000  0.58610000  0.90730000  1
  F  F316  1  0.70760000  0.01540000  0.54593000  1
  F  F317  1  0.70760000  0.51540000  0.95407000  1
  F  F318  1  0.77820000  0.26530000  0.99121000  1
  F  F319  1  0.77820000  0.76530000  0.50879000  1
  F  F320  1  0.81540000  0.04220000  0.39522000  1
  F  F321  1  0.81540000  0.54220000  0.10478000  1
  F  F322  1  0.88470000  0.00470000  0.45998000  1
  F  F323  1  0.88470000  0.50470000  0.04002000  1
  F  F324  1  0.90810000  0.08270000  0.54221000  1
  F  F325  1  0.90810000  0.58270000  0.95779000  1
  F  F326  1  0.94790000  0.42880000  0.93161000  1
  F  F327  1  0.94790000  0.92880000  0.56839000  1
