# generated using pymatgen
data_Zn3H26C38(NO3)3
_symmetry_space_group_name_H-M   'P 1'
_cell_length_a   12.88000000
_cell_length_b   16.86100000
_cell_length_c   17.32500000
_cell_angle_alpha   75.74000000
_cell_angle_beta   73.26000000
_cell_angle_gamma   68.59000000
_symmetry_Int_Tables_number   1
_chemical_formula_structural   Zn3H26C38(NO3)3
_chemical_formula_sum   'Zn6 H52 C76 N6 O18'
_cell_volume   3312.05567994
_cell_formula_units_Z   2
loop_
 _symmetry_equiv_pos_site_id
 _symmetry_equiv_pos_as_xyz
  1  'x, y, z'
loop_
 _atom_site_type_symbol
 _atom_site_label
 _atom_site_symmetry_multiplicity
 _atom_site_fract_x
 _atom_site_fract_y
 _atom_site_fract_z
 _atom_site_occupancy
  Zn  Zn0  1  0.35095000  0.44506000  0.17775000  1
  Zn  Zn1  1  0.38429000  0.62491000  0.86133000  1
  Zn  Zn2  1  0.46949000  0.31808000  0.04999000  1
  Zn  Zn3  1  0.53051000  0.68192000  0.95001000  1
  Zn  Zn4  1  0.61571000  0.37509000  0.13867000  1
  Zn  Zn5  1  0.64905000  0.55494000  0.82225000  1
  H  H6  1  0.00820000  0.50540000  0.22130000  1
  H  H7  1  0.00830000  0.56700000  0.99370000  1
  H  H8  1  0.01000000  0.83260000  0.23730000  1
  H  H9  1  0.02500000  0.41660000  0.28380000  1
  H  H10  1  0.03390000  0.69610000  0.76190000  1
  H  H11  1  0.03520000  0.01020000  0.80240000  1
  H  H12  1  0.03780000  0.86720000  0.99310000  1
  H  H13  1  0.11190000  0.46990000  0.26700000  1
  H  H14  1  0.15540000  0.69990000  0.23040000  1
  H  H15  1  0.16700000  0.07310000  0.95630000  1
  H  H16  1  0.18320000  0.87850000  0.79820000  1
  H  H17  1  0.18330000  0.73440000  0.98620000  1
  H  H18  1  0.19300000  0.56270000  0.99070000  1
  H  H19  1  0.19690000  0.33090000  0.95690000  1
  H  H20  1  0.20790000  0.23980000  0.01530000  1
  H  H21  1  0.21860000  0.69170000  0.75890000  1
  H  H22  1  0.29190000  0.41820000  0.57190000  1
  H  H23  1  0.29550000  0.42050000  0.43550000  1
  H  H24  1  0.30890000  0.48800000  0.79970000  1
  H  H25  1  0.31010000  0.48560000  0.66500000  1
  H  H26  1  0.31490000  0.94140000  0.95220000  1
  H  H27  1  0.31930000  0.26870000  0.97280000  1
  H  H28  1  0.36010000  0.63540000  0.62010000  1
  H  H29  1  0.36370000  0.63770000  0.48380000  1
  H  H30  1  0.38570000  0.70590000  0.35130000  1
  H  H31  1  0.38700000  0.70350000  0.21650000  1
  H  H32  1  0.61300000  0.29650000  0.78350000  1
  H  H33  1  0.61430000  0.29410000  0.64870000  1
  H  H34  1  0.63630000  0.36230000  0.51620000  1
  H  H35  1  0.63990000  0.36460000  0.37990000  1
  H  H36  1  0.68070000  0.73130000  0.02720000  1
  H  H37  1  0.68510000  0.05860000  0.04780000  1
  H  H38  1  0.68990000  0.51440000  0.33500000  1
  H  H39  1  0.69110000  0.51200000  0.20030000  1
  H  H40  1  0.70450000  0.57950000  0.56450000  1
  H  H41  1  0.70810000  0.58180000  0.42810000  1
  H  H42  1  0.78140000  0.30830000  0.24110000  1
  H  H43  1  0.79210000  0.76020000  0.98470000  1
  H  H44  1  0.80310000  0.66910000  0.04310000  1
  H  H45  1  0.80700000  0.43730000  0.00930000  1
  H  H46  1  0.81670000  0.26560000  0.01380000  1
  H  H47  1  0.81680000  0.12150000  0.20180000  1
  H  H48  1  0.83300000  0.92690000  0.04370000  1
  H  H49  1  0.84460000  0.30010000  0.76960000  1
  H  H50  1  0.88810000  0.53010000  0.73300000  1
  H  H51  1  0.96220000  0.13280000  0.00690000  1
  H  H52  1  0.96480000  0.98980000  0.19760000  1
  H  H53  1  0.96610000  0.30390000  0.23810000  1
  H  H54  1  0.97500000  0.58340000  0.71620000  1
  H  H55  1  0.99000000  0.16740000  0.76270000  1
  H  H56  1  0.99170000  0.43300000  0.00630000  1
  H  H57  1  0.99180000  0.49460000  0.77870000  1
  C  C58  1  0.00369000  0.63200000  0.87805000  1
  C  C59  1  0.01020000  0.86240000  0.11583000  1
  C  C60  1  0.04510000  0.81270000  0.18630000  1
  C  C61  1  0.05100000  0.59240000  0.94602000  1
  C  C62  1  0.06170000  0.83323000  0.04126000  1
  C  C63  1  0.06460000  0.45340000  0.24240000  1
  C  C64  1  0.06620000  0.66900000  0.80832000  1
  C  C65  1  0.08720000  0.05403000  0.87980000  1
  C  C66  1  0.09200000  0.99620000  0.83280000  1
  C  C67  1  0.11300000  0.36850000  0.12090000  1
  C  C68  1  0.13150000  0.73380000  0.18220000  1
  C  C69  1  0.14060000  0.40400000  0.17240000  1
  C  C70  1  0.14810000  0.75440000  0.03716000  1
  C  C71  1  0.16070000  0.58980000  0.94425000  1
  C  C72  1  0.17030000  0.03360000  0.92420000  1
  C  C73  1  0.17590000  0.66640000  0.80656000  1
  C  C74  1  0.17990000  0.91803000  0.83030000  1
  C  C75  1  0.18300000  0.70467000  0.10763000  1
  C  C76  1  0.21870000  0.33110000  0.07010000  1
  C  C77  1  0.23730000  0.28890000  0.99730000  1
  C  C78  1  0.25820000  0.95540000  0.92180000  1
  C  C79  1  0.26300000  0.89759000  0.87480000  1
  C  C80  1  0.27050000  0.61780000  0.10390000  1
  C  C81  1  0.35190000  0.80950000  0.87850000  1
  C  C82  1  0.36250000  0.40730000  0.53291000  1
  C  C83  1  0.36460000  0.40870000  0.45192000  1
  C  C84  1  0.37090000  0.44868000  0.76907000  1
  C  C85  1  0.37160000  0.44720000  0.68903000  1
  C  C86  1  0.43080000  0.62450000  0.58112000  1
  C  C87  1  0.43290000  0.62590000  0.50014000  1
  C  C88  1  0.44770000  0.66650000  0.32061000  1
  C  C89  1  0.44850000  0.66510000  0.24058000  1
  C  C90  1  0.46080000  0.39250000  0.80426000  1
  C  C91  1  0.46180000  0.39480000  0.88970000  1
  C  C92  1  0.46230000  0.38960000  0.64419000  1
  C  C93  1  0.46370000  0.39010000  0.55688000  1
  C  C94  1  0.46800000  0.39280000  0.39491000  1
  C  C95  1  0.47110000  0.39540000  0.30750000  1
  C  C96  1  0.52890000  0.60460000  0.69250000  1
  C  C97  1  0.53200000  0.60720000  0.60509000  1
  C  C98  1  0.53630000  0.60990000  0.44312000  1
  C  C99  1  0.53770000  0.61040000  0.35581000  1
  C  C100  1  0.53820000  0.60520000  0.11030000  1
  C  C101  1  0.53920000  0.60750000  0.19574000  1
  C  C102  1  0.55150000  0.33490000  0.75942000  1
  C  C103  1  0.55230000  0.33350000  0.67939000  1
  C  C104  1  0.56710000  0.37410000  0.49986000  1
  C  C105  1  0.56920000  0.37550000  0.41888000  1
  C  C106  1  0.62840000  0.55280000  0.31097000  1
  C  C107  1  0.62910000  0.55132000  0.23093000  1
  C  C108  1  0.63540000  0.59130000  0.54808000  1
  C  C109  1  0.63750000  0.59270000  0.46709000  1
  C  C110  1  0.64810000  0.19050000  0.12150000  1
  C  C111  1  0.72950000  0.38220000  0.89610000  1
  C  C112  1  0.73700000  0.10241000  0.12520000  1
  C  C113  1  0.74180000  0.04460000  0.07820000  1
  C  C114  1  0.76270000  0.71110000  0.00270000  1
  C  C115  1  0.78130000  0.66890000  0.92990000  1
  C  C116  1  0.81700000  0.29533000  0.89237000  1
  C  C117  1  0.82010000  0.08197000  0.16970000  1
  C  C118  1  0.82410000  0.33360000  0.19344000  1
  C  C119  1  0.82970000  0.96640000  0.07580000  1
  C  C120  1  0.83930000  0.41020000  0.05575000  1
  C  C121  1  0.85190000  0.24560000  0.96284000  1
  C  C122  1  0.85940000  0.59600000  0.82760000  1
  C  C123  1  0.86850000  0.26620000  0.81780000  1
  C  C124  1  0.88700000  0.63150000  0.87910000  1
  C  C125  1  0.90800000  0.00380000  0.16720000  1
  C  C126  1  0.91280000  0.94597000  0.12020000  1
  C  C127  1  0.93380000  0.33100000  0.19168000  1
  C  C128  1  0.93540000  0.54660000  0.75760000  1
  C  C129  1  0.93830000  0.16677000  0.95874000  1
  C  C130  1  0.94900000  0.40760000  0.05398000  1
  C  C131  1  0.95490000  0.18730000  0.81370000  1
  C  C132  1  0.98980000  0.13760000  0.88417000  1
  C  C133  1  0.99631000  0.36800000  0.12195000  1
  N  N134  1  0.22321000  0.62678000  0.87453000  1
  N  N135  1  0.25360000  0.38940000  0.15450000  1
  N  N136  1  0.29790000  0.34430000  0.09180000  1
  N  N137  1  0.70210000  0.65570000  0.90820000  1
  N  N138  1  0.74640000  0.61060000  0.84550000  1
  N  N139  1  0.77679000  0.37322000  0.12547000  1
  O  O140  1  0.28200000  0.56930000  0.17390000  1
  O  O141  1  0.32770000  0.59610000  0.03632000  1
  O  O142  1  0.34080000  0.75670000  0.84500000  1
  O  O143  1  0.37550000  0.41230000  0.28900000  1
  O  O144  1  0.42220000  0.46450000  0.91746000  1
  O  O145  1  0.42800000  0.79650000  0.91590000  1
  O  O146  1  0.43500000  0.61650000  0.74210000  1
  O  O147  1  0.48610000  0.40928000  0.09181000  1
  O  O148  1  0.49340000  0.67990000  0.06800000  1
  O  O149  1  0.50660000  0.32010000  0.93200000  1
  O  O150  1  0.51390000  0.59072000  0.90819000  1
  O  O151  1  0.56500000  0.38350000  0.25790000  1
  O  O152  1  0.57200000  0.20350000  0.08410000  1
  O  O153  1  0.57780000  0.53550000  0.08254000  1
  O  O154  1  0.62450000  0.58770000  0.71100000  1
  O  O155  1  0.65920000  0.24330000  0.15500000  1
  O  O156  1  0.67230000  0.40390000  0.96368000  1
  O  O157  1  0.71800000  0.43070000  0.82610000  1
