# generated using pymatgen
data_CoH10C17NO4
_symmetry_space_group_name_H-M   'P 1'
_cell_length_a   12.93900000
_cell_length_b   13.09200000
_cell_length_c   13.75400000
_cell_angle_alpha   85.44900000
_cell_angle_beta   70.30200000
_cell_angle_gamma   83.73100000
_symmetry_Int_Tables_number   1
_chemical_formula_structural   CoH10C17NO4
_chemical_formula_sum   'Co4 H40 C68 N4 O16'
_cell_volume   2178.18090229
_cell_formula_units_Z   4
loop_
 _symmetry_equiv_pos_site_id
 _symmetry_equiv_pos_as_xyz
  1  'x, y, z'
loop_
 _atom_site_type_symbol
 _atom_site_label
 _atom_site_symmetry_multiplicity
 _atom_site_fract_x
 _atom_site_fract_y
 _atom_site_fract_z
 _atom_site_occupancy
  Co  Co0  1  0.12776000  0.82552000  0.38169000  1
  Co  Co1  1  0.19486000  0.81682000  0.17002000  1
  Co  Co2  1  0.80514000  0.18318000  0.82998000  1
  Co  Co3  1  0.87224000  0.17448000  0.61831000  1
  H  H4  1  0.04210000  0.93890000  0.88820000  1
  H  H5  1  0.07910000  0.94570000  0.04110000  1
  H  H6  1  0.10410000  0.97100000  0.54670000  1
  H  H7  1  0.10570000  0.32520000  0.47980000  1
  H  H8  1  0.11490000  0.97030000  0.71000000  1
  H  H9  1  0.11700000  0.49950000  0.46140000  1
  H  H10  1  0.12670000  0.15530000  0.40060000  1
  H  H11  1  0.12770000  0.19660000  0.83110000  1
  H  H12  1  0.20430000  0.68480000  0.52390000  1
  H  H13  1  0.20740000  0.14490000  0.09270000  1
  H  H14  1  0.20740000  0.48620000  0.15010000  1
  H  H15  1  0.21100000  0.67080000  0.83910000  1
  H  H16  1  0.21790000  0.31950000  0.07260000  1
  H  H17  1  0.22510000  0.67330000  0.00060000  1
  H  H18  1  0.23230000  0.67910000  0.68220000  1
  H  H19  1  0.24130000  0.14220000  0.52760000  1
  H  H20  1  0.25620000  0.21840000  0.92350000  1
  H  H21  1  0.41940000  0.14880000  0.52420000  1
  H  H22  1  0.43370000  0.21720000  0.92240000  1
  H  H23  1  0.44990000  0.83240000  0.38140000  1
  H  H24  1  0.55010000  0.16760000  0.61860000  1
  H  H25  1  0.56630000  0.78280000  0.07760000  1
  H  H26  1  0.58060000  0.85120000  0.47580000  1
  H  H27  1  0.74380000  0.78160000  0.07650000  1
  H  H28  1  0.75870000  0.85780000  0.47240000  1
  H  H29  1  0.76770000  0.32090000  0.31780000  1
  H  H30  1  0.77490000  0.32670000  0.99940000  1
  H  H31  1  0.78210000  0.68050000  0.92740000  1
  H  H32  1  0.78900000  0.32920000  0.16090000  1
  H  H33  1  0.79260000  0.51380000  0.84990000  1
  H  H34  1  0.79260000  0.85510000  0.90730000  1
  H  H35  1  0.79570000  0.31520000  0.47610000  1
  H  H36  1  0.87230000  0.80340000  0.16890000  1
  H  H37  1  0.87330000  0.84470000  0.59940000  1
  H  H38  1  0.88300000  0.50050000  0.53860000  1
  H  H39  1  0.88510000  0.02970000  0.29000000  1
  H  H40  1  0.89430000  0.67480000  0.52020000  1
  H  H41  1  0.89590000  0.02900000  0.45330000  1
  H  H42  1  0.92090000  0.05430000  0.95890000  1
  H  H43  1  0.95790000  0.06110000  0.11180000  1
  C  C44  1  0.05190000  0.16920000  0.68280000  1
  C  C45  1  0.09590000  0.89110000  0.90330000  1
  C  C46  1  0.11470000  0.89170000  0.99590000  1
  C  C47  1  0.11960000  0.90700000  0.57900000  1
  C  C48  1  0.12580000  0.35740000  0.41240000  1
  C  C49  1  0.12640000  0.90700000  0.67700000  1
  C  C50  1  0.13180000  0.46050000  0.40200000  1
  C  C51  1  0.14450000  0.18930000  0.33420000  1
  C  C52  1  0.14840000  0.29560000  0.32590000  1
  C  C53  1  0.14890000  0.81950000  0.72660000  1
  C  C54  1  0.15870000  0.81720000  0.83070000  1
  C  C55  1  0.15990000  0.01860000  0.26160000  1
  C  C56  1  0.16030000  0.51000000  0.30240000  1
  C  C57  1  0.16370000  0.62340000  0.29130000  1
  C  C58  1  0.16530000  0.13290000  0.25020000  1
  C  C59  1  0.16640000  0.17120000  0.68120000  1
  C  C60  1  0.17700000  0.34520000  0.22680000  1
  C  C61  1  0.17920000  0.74310000  0.56530000  1
  C  C62  1  0.18480000  0.45300000  0.21700000  1
  C  C63  1  0.18790000  0.18660000  0.76890000  1
  C  C64  1  0.19270000  0.18390000  0.15200000  1
  C  C65  1  0.19290000  0.73330000  0.87420000  1
  C  C66  1  0.19330000  0.73750000  0.66120000  1
  C  C67  1  0.19890000  0.28690000  0.13980000  1
  C  C68  1  0.20240000  0.73610000  0.97110000  1
  C  C69  1  0.25500000  0.15490000  0.58900000  1
  C  C70  1  0.29620000  0.18830000  0.77130000  1
  C  C71  1  0.31600000  0.20640000  0.86140000  1
  C  C72  1  0.36050000  0.15750000  0.58760000  1
  C  C73  1  0.37330000  0.80930000  0.23270000  1
  C  C74  1  0.38430000  0.17270000  0.67800000  1
  C  C75  1  0.42090000  0.20660000  0.86010000  1
  C  C76  1  0.48780000  0.80840000  0.23140000  1
  C  C77  1  0.48990000  0.17630000  0.68100000  1
  C  C78  1  0.51010000  0.82370000  0.31900000  1
  C  C79  1  0.51220000  0.19160000  0.76860000  1
  C  C80  1  0.57910000  0.79340000  0.13990000  1
  C  C81  1  0.61570000  0.82730000  0.32200000  1
  C  C82  1  0.62670000  0.19070000  0.76730000  1
  C  C83  1  0.63950000  0.84250000  0.41240000  1
  C  C84  1  0.68400000  0.79360000  0.13860000  1
  C  C85  1  0.70380000  0.81170000  0.22870000  1
  C  C86  1  0.74500000  0.84510000  0.41100000  1
  C  C87  1  0.79760000  0.26390000  0.02890000  1
  C  C88  1  0.80110000  0.71310000  0.86020000  1
  C  C89  1  0.80670000  0.26250000  0.33880000  1
  C  C90  1  0.80710000  0.26670000  0.12580000  1
  C  C91  1  0.80730000  0.81610000  0.84800000  1
  C  C92  1  0.81210000  0.81340000  0.23110000  1
  C  C93  1  0.81520000  0.54700000  0.78300000  1
  C  C94  1  0.82080000  0.25690000  0.43470000  1
  C  C95  1  0.82300000  0.65480000  0.77320000  1
  C  C96  1  0.83360000  0.82880000  0.31880000  1
  C  C97  1  0.83470000  0.86710000  0.74980000  1
  C  C98  1  0.83630000  0.37660000  0.70870000  1
  C  C99  1  0.83970000  0.49000000  0.69760000  1
  C  C100  1  0.84010000  0.98140000  0.73840000  1
  C  C101  1  0.84130000  0.18280000  0.16930000  1
  C  C102  1  0.85110000  0.18050000  0.27340000  1
  C  C103  1  0.85160000  0.70440000  0.67410000  1
  C  C104  1  0.85550000  0.81070000  0.66580000  1
  C  C105  1  0.86820000  0.53950000  0.59800000  1
  C  C106  1  0.87360000  0.09300000  0.32300000  1
  C  C107  1  0.87420000  0.64260000  0.58760000  1
  C  C108  1  0.88040000  0.09300000  0.42100000  1
  C  C109  1  0.88530000  0.10830000  0.00410000  1
  C  C110  1  0.90410000  0.10890000  0.09670000  1
  C  C111  1  0.94810000  0.83080000  0.31720000  1
  N  N112  1  0.13340000  0.82400000  0.52860000  1
  N  N113  1  0.18290000  0.81750000  0.02550000  1
  N  N114  1  0.81710000  0.18250000  0.97450000  1
  N  N115  1  0.86660000  0.17600000  0.47140000  1
  O  O116  1  0.02340000  0.82539000  0.22994000  1
  O  O117  1  0.03540000  0.16256000  0.59857000  1
  O  O118  1  0.13450000  0.97822000  0.35051000  1
  O  O119  1  0.13640000  0.67197000  0.37354000  1
  O  O120  1  0.18220000  0.97140000  0.17849000  1
  O  O121  1  0.19210000  0.66542000  0.20123000  1
  O  O122  1  0.29810000  0.81093000  0.31790000  1
  O  O123  1  0.35750000  0.80850000  0.14640000  1
  O  O124  1  0.64250000  0.19150000  0.85360000  1
  O  O125  1  0.70190000  0.18907000  0.68210000  1
  O  O126  1  0.80790000  0.33458000  0.79877000  1
  O  O127  1  0.81780000  0.02860000  0.82151000  1
  O  O128  1  0.86360000  0.32803000  0.62646000  1
  O  O129  1  0.86550000  0.02178000  0.64949000  1
  O  O130  1  0.96460000  0.83744000  0.40143000  1
  O  O131  1  0.97660000  0.17461000  0.77006000  1
