# generated using pymatgen
data_Tb2Zn3H24C30(NO2)12
_symmetry_space_group_name_H-M   'P 1'
_cell_length_a   10.75350000
_cell_length_b   12.51010000
_cell_length_c   12.51010000
_cell_angle_alpha   91.96260000
_cell_angle_beta   113.77100000
_cell_angle_gamma   113.77100000
_symmetry_Int_Tables_number   1
_chemical_formula_structural   Tb2Zn3H24C30(NO2)12
_chemical_formula_sum   'Tb2 Zn3 H24 C30 N12 O24'
_cell_volume   1370.07910597
_cell_formula_units_Z   1
loop_
 _symmetry_equiv_pos_site_id
 _symmetry_equiv_pos_as_xyz
  1  'x, y, z'
loop_
 _atom_site_type_symbol
 _atom_site_label
 _atom_site_symmetry_multiplicity
 _atom_site_fract_x
 _atom_site_fract_y
 _atom_site_fract_z
 _atom_site_occupancy
  Tb  Tb0  1  0.50000000  0.20908000  0.79092000  1
  Tb  Tb1  1  0.50000000  0.79092000  0.20908000  1
  Zn  Zn2  1  0.50000000  0.00000000  0.00000000  1
  Zn  Zn3  1  0.50000000  0.00000000  0.50000000  1
  Zn  Zn4  1  0.50000000  0.50000000  0.00000000  1
  H  H5  1  0.00530000  0.28630000  0.88830000  1
  H  H6  1  0.00530000  0.88830000  0.28630000  1
  H  H7  1  0.04410000  0.41760000  0.94060000  1
  H  H8  1  0.04410000  0.94060000  0.41760000  1
  H  H9  1  0.14440000  0.16550000  0.47910000  1
  H  H10  1  0.14440000  0.47910000  0.16550000  1
  H  H11  1  0.21760000  0.23240000  0.40000000  1
  H  H12  1  0.21760000  0.40000000  0.23240000  1
  H  H13  1  0.24470000  0.01640000  0.21900000  1
  H  H14  1  0.24470000  0.21900000  0.01640000  1
  H  H15  1  0.39000000  0.13980000  0.25920000  1
  H  H16  1  0.39000000  0.25920000  0.13980000  1
  H  H17  1  0.61000000  0.74080000  0.86020000  1
  H  H18  1  0.61000000  0.86020000  0.74080000  1
  H  H19  1  0.75530000  0.78100000  0.98360000  1
  H  H20  1  0.75530000  0.98360000  0.78100000  1
  H  H21  1  0.78240000  0.60000000  0.76760000  1
  H  H22  1  0.78240000  0.76760000  0.60000000  1
  H  H23  1  0.85560000  0.52090000  0.83450000  1
  H  H24  1  0.85560000  0.83450000  0.52090000  1
  H  H25  1  0.95590000  0.05940000  0.58240000  1
  H  H26  1  0.95590000  0.58240000  0.05940000  1
  H  H27  1  0.99470000  0.11170000  0.71370000  1
  H  H28  1  0.99470000  0.71370000  0.11170000  1
  C  C29  1  0.00760000  0.05810000  0.66590000  1
  C  C30  1  0.00760000  0.66590000  0.05810000  1
  C  C31  1  0.01480000  0.08260000  0.20800000  1
  C  C32  1  0.01480000  0.20800000  0.08260000  1
  C  C33  1  0.14920000  0.98970000  0.98970000  1
  C  C34  1  0.17670000  0.10510000  0.70290000  1
  C  C35  1  0.17670000  0.70290000  0.10510000  1
  C  C36  1  0.18500000  0.15720000  0.42440000  1
  C  C37  1  0.18500000  0.42440000  0.15720000  1
  C  C38  1  0.32370000  0.13620000  0.49160000  1
  C  C39  1  0.32370000  0.49160000  0.13620000  1
  C  C40  1  0.32920000  0.06240000  0.20220000  1
  C  C41  1  0.32920000  0.20220000  0.06240000  1
  C  C42  1  0.42630000  0.22370000  0.99810000  1
  C  C43  1  0.42630000  0.99810000  0.22370000  1
  C  C44  1  0.57370000  0.00190000  0.77630000  1
  C  C45  1  0.57370000  0.77630000  0.00190000  1
  C  C46  1  0.67080000  0.79780000  0.93760000  1
  C  C47  1  0.67080000  0.93760000  0.79780000  1
  C  C48  1  0.67630000  0.50840000  0.86380000  1
  C  C49  1  0.67630000  0.86380000  0.50840000  1
  C  C50  1  0.81500000  0.57560000  0.84280000  1
  C  C51  1  0.81500000  0.84280000  0.57560000  1
  C  C52  1  0.82330000  0.29710000  0.89490000  1
  C  C53  1  0.82330000  0.89490000  0.29710000  1
  C  C54  1  0.85080000  0.01030000  0.01030000  1
  C  C55  1  0.98520000  0.79200000  0.91740000  1
  C  C56  1  0.98520000  0.91740000  0.79200000  1
  C  C57  1  0.99240000  0.33410000  0.94190000  1
  C  C58  1  0.99240000  0.94190000  0.33410000  1
  N  N59  1  0.06470000  0.06318000  0.31982000  1
  N  N60  1  0.06470000  0.31982000  0.06318000  1
  N  N61  1  0.07660000  0.19600000  0.19600000  1
  N  N62  1  0.09690000  0.01376000  0.88084000  1
  N  N63  1  0.09690000  0.88084000  0.01376000  1
  N  N64  1  0.26760000  0.08180000  0.08180000  1
  N  N65  1  0.73240000  0.91820000  0.91820000  1
  N  N66  1  0.90310000  0.11916000  0.98624000  1
  N  N67  1  0.90310000  0.98624000  0.11916000  1
  N  N68  1  0.92340000  0.80400000  0.80400000  1
  N  N69  1  0.93530000  0.68018000  0.93682000  1
  N  N70  1  0.93530000  0.93682000  0.68018000  1
  O  O71  1  0.23280000  0.03509000  0.69589000  1
  O  O72  1  0.23280000  0.69589000  0.03509000  1
  O  O73  1  0.25870000  0.21677000  0.73663000  1
  O  O74  1  0.25870000  0.73663000  0.21677000  1
  O  O75  1  0.33010000  0.05003000  0.44437000  1
  O  O76  1  0.33010000  0.44437000  0.05003000  1
  O  O77  1  0.42210000  0.20941000  0.59079000  1
  O  O78  1  0.42210000  0.59079000  0.20941000  1
  O  O79  1  0.44130000  0.13827000  0.95629000  1
  O  O80  1  0.44130000  0.95629000  0.13827000  1
  O  O81  1  0.48630000  0.32511000  0.97889000  1
  O  O82  1  0.48630000  0.97889000  0.32511000  1
  O  O83  1  0.51370000  0.02111000  0.67489000  1
  O  O84  1  0.51370000  0.67489000  0.02111000  1
  O  O85  1  0.55870000  0.04371000  0.86173000  1
  O  O86  1  0.55870000  0.86173000  0.04371000  1
  O  O87  1  0.57790000  0.40921000  0.79059000  1
  O  O88  1  0.57790000  0.79059000  0.40921000  1
  O  O89  1  0.66990000  0.55563000  0.94997000  1
  O  O90  1  0.66990000  0.94997000  0.55563000  1
  O  O91  1  0.74130000  0.26337000  0.78323000  1
  O  O92  1  0.74130000  0.78323000  0.26337000  1
  O  O93  1  0.76720000  0.30411000  0.96491000  1
  O  O94  1  0.76720000  0.96491000  0.30411000  1
