# generated using pymatgen
data_ZnH8C11NO4
_symmetry_space_group_name_H-M   'P 1'
_cell_length_a   9.84010000
_cell_length_b   11.06170000
_cell_length_c   13.53070000
_cell_angle_alpha   66.18100000
_cell_angle_beta   85.82300000
_cell_angle_gamma   69.89000000
_symmetry_Int_Tables_number   1
_chemical_formula_structural   ZnH8C11NO4
_chemical_formula_sum   'Zn4 H32 C44 N4 O16'
_cell_volume   1261.46546663
_cell_formula_units_Z   4
loop_
 _symmetry_equiv_pos_site_id
 _symmetry_equiv_pos_as_xyz
  1  'x, y, z'
loop_
 _atom_site_type_symbol
 _atom_site_label
 _atom_site_symmetry_multiplicity
 _atom_site_fract_x
 _atom_site_fract_y
 _atom_site_fract_z
 _atom_site_occupancy
  Zn  Zn0  1  0.11134000  0.47295000  0.20420000  1
  Zn  Zn1  1  0.16858000  0.44590000  0.98252000  1
  Zn  Zn2  1  0.83142000  0.55410000  0.01748000  1
  Zn  Zn3  1  0.88866000  0.52705000  0.79580000  1
  H  H4  1  0.02570000  0.31998000  0.14293000  1
  H  H5  1  0.06110000  0.75260000  0.43870000  1
  H  H6  1  0.08060000  0.26670000  0.41920000  1
  H  H7  1  0.12280000  0.90630000  0.10390000  1
  H  H8  1  0.13110000  0.32810000  0.73060000  1
  H  H9  1  0.20430000  0.67310000  0.76790000  1
  H  H10  1  0.25140000  0.65310000  0.34460000  1
  H  H11  1  0.28860000  0.33860000  0.59130000  1
  H  H12  1  0.32710000  0.13560000  0.87130000  1
  H  H13  1  0.35230000  0.70170000  0.62590000  1
  H  H14  1  0.35340000  0.75060000  0.89520000  1
  H  H15  1  0.39720000  0.70640000  0.21890000  1
  H  H16  1  0.41810000  0.83720000  0.73200000  1
  H  H17  1  0.44070000  0.38970000  0.46360000  1
  H  H18  1  0.44720000  0.27600000  0.91920000  1
  H  H19  1  0.47740000  0.08100000  0.33590000  1
  H  H20  1  0.52260000  0.91900000  0.66410000  1
  H  H21  1  0.55280000  0.72400000  0.08080000  1
  H  H22  1  0.55930000  0.61030000  0.53640000  1
  H  H23  1  0.58190000  0.16280000  0.26800000  1
  H  H24  1  0.60280000  0.29360000  0.78110000  1
  H  H25  1  0.64660000  0.24940000  0.10480000  1
  H  H26  1  0.64770000  0.29830000  0.37410000  1
  H  H27  1  0.67290000  0.86440000  0.12870000  1
  H  H28  1  0.71140000  0.66140000  0.40870000  1
  H  H29  1  0.74860000  0.34690000  0.65540000  1
  H  H30  1  0.79570000  0.32690000  0.23210000  1
  H  H31  1  0.86890000  0.67190000  0.26940000  1
  H  H32  1  0.87720000  0.09370000  0.89610000  1
  H  H33  1  0.91940000  0.73330000  0.58080000  1
  H  H34  1  0.93890000  0.24740000  0.56130000  1
  H  H35  1  0.97430000  0.68002000  0.85707000  1
  C  C36  1  0.00510000  0.34920000  0.41720000  1
  C  C37  1  0.07950000  0.66400000  0.49810000  1
  C  C38  1  0.11780000  0.41560000  0.67090000  1
  C  C39  1  0.15520000  0.16430000  0.02560000  1
  C  C40  1  0.17970000  0.91750000  0.04320000  1
  C  C41  1  0.19060000  0.54950000  0.49910000  1
  C  C42  1  0.19100000  0.68160000  0.05460000  1
  C  C43  1  0.21160000  0.42110000  0.58770000  1
  C  C44  1  0.21500000  0.04100000  0.99110000  1
  C  C45  1  0.22940000  0.81370000  0.00430000  1
  C  C46  1  0.28530000  0.56690000  0.40680000  1
  C  C47  1  0.28630000  0.59460000  0.77080000  1
  C  C48  1  0.30350000  0.05250000  0.90630000  1
  C  C49  1  0.31900000  0.82410000  0.92000000  1
  C  C50  1  0.35850000  0.94350000  0.87170000  1
  C  C51  1  0.37130000  0.25710000  0.20060000  1
  C  C52  1  0.37490000  0.61290000  0.68570000  1
  C  C53  1  0.40820000  0.47750000  0.40270000  1
  C  C54  1  0.42770000  0.36370000  0.85870000  1
  C  C55  1  0.47840000  0.62640000  0.22330000  1
  C  C56  1  0.49620000  0.50150000  0.68800000  1
  C  C57  1  0.49740000  0.87020000  0.73840000  1
  C  C58  1  0.50260000  0.12980000  0.26160000  1
  C  C59  1  0.50380000  0.49850000  0.31200000  1
  C  C60  1  0.52160000  0.37360000  0.77670000  1
  C  C61  1  0.57230000  0.63630000  0.14130000  1
  C  C62  1  0.59180000  0.52250000  0.59730000  1
  C  C63  1  0.62510000  0.38710000  0.31430000  1
  C  C64  1  0.62870000  0.74290000  0.79940000  1
  C  C65  1  0.64150000  0.05650000  0.12830000  1
  C  C66  1  0.68100000  0.17590000  0.08000000  1
  C  C67  1  0.69650000  0.94750000  0.09370000  1
  C  C68  1  0.71370000  0.40540000  0.22920000  1
  C  C69  1  0.71470000  0.43310000  0.59320000  1
  C  C70  1  0.77060000  0.18630000  0.99570000  1
  C  C71  1  0.78500000  0.95900000  0.00890000  1
  C  C72  1  0.78840000  0.57890000  0.41230000  1
  C  C73  1  0.80900000  0.31840000  0.94540000  1
  C  C74  1  0.80940000  0.45050000  0.50090000  1
  C  C75  1  0.82030000  0.08250000  0.95680000  1
  C  C76  1  0.84480000  0.83570000  0.97440000  1
  C  C77  1  0.88220000  0.58440000  0.32910000  1
  C  C78  1  0.92050000  0.33600000  0.50190000  1
  C  C79  1  0.99490000  0.65080000  0.58280000  1
  N  N80  1  0.00960000  0.53090000  0.66870000  1
  N  N81  1  0.30960000  0.47330000  0.85620000  1
  N  N82  1  0.69040000  0.52670000  0.14380000  1
  N  N83  1  0.99040000  0.46910000  0.33130000  1
  O  O84  1  0.02570000  0.41880000  0.11030000  1
  O  O85  1  0.10930000  0.14310000  0.11750000  1
  O  O86  1  0.14210000  0.65410000  0.14750000  1
  O  O87  1  0.15930000  0.27930000  0.95640000  1
  O  O88  1  0.21110000  0.60820000  0.00160000  1
  O  O89  1  0.29850000  0.31790000  0.26100000  1
  O  O90  1  0.34570000  0.29280000  0.10380000  1
  O  O91  1  0.44530000  0.96860000  0.78680000  1
  O  O92  1  0.55470000  0.03140000  0.21320000  1
  O  O93  1  0.65430000  0.70720000  0.89620000  1
  O  O94  1  0.70150000  0.68210000  0.73900000  1
  O  O95  1  0.78890000  0.39180000  0.99840000  1
  O  O96  1  0.84070000  0.72070000  0.04360000  1
  O  O97  1  0.85790000  0.34590000  0.85250000  1
  O  O98  1  0.89070000  0.85690000  0.88250000  1
  O  O99  1  0.97430000  0.58120000  0.88970000  1
