# generated using pymatgen
data_LaH9C15O8
_symmetry_space_group_name_H-M   'P 1'
_cell_length_a   9.49100000
_cell_length_b   10.05200000
_cell_length_c   11.34400000
_cell_angle_alpha   94.42900000
_cell_angle_beta   97.91400000
_cell_angle_gamma   111.38600000
_symmetry_Int_Tables_number   1
_chemical_formula_structural   LaH9C15O8
_chemical_formula_sum   'La2 H18 C30 O16'
_cell_volume   988.56725482
_cell_formula_units_Z   2
loop_
 _symmetry_equiv_pos_site_id
 _symmetry_equiv_pos_as_xyz
  1  'x, y, z'
loop_
 _atom_site_type_symbol
 _atom_site_label
 _atom_site_symmetry_multiplicity
 _atom_site_fract_x
 _atom_site_fract_y
 _atom_site_fract_z
 _atom_site_occupancy
  La  La0  1  0.21401000  0.45409000  0.01294000  1
  La  La1  1  0.78599000  0.54591000  0.98706000  1
  H  H2  1  0.04000000  0.80800000  0.13000000  1
  H  H3  1  0.07000000  0.26000000  0.81000000  1
  H  H4  1  0.18010000  0.00330000  0.96070000  1
  H  H5  1  0.25510000  0.78800000  0.38530000  1
  H  H6  1  0.31120000  0.71320000  0.78880000  1
  H  H7  1  0.34580000  0.91110000  0.57460000  1
  H  H8  1  0.35220000  0.28500000  0.37290000  1
  H  H9  1  0.41640000  0.86380000  0.15770000  1
  H  H10  1  0.43790000  0.39430000  0.57250000  1
  H  H11  1  0.56210000  0.60570000  0.42750000  1
  H  H12  1  0.58360000  0.13620000  0.84230000  1
  H  H13  1  0.64780000  0.71500000  0.62710000  1
  H  H14  1  0.65420000  0.08890000  0.42540000  1
  H  H15  1  0.68880000  0.28680000  0.21120000  1
  H  H16  1  0.74490000  0.21200000  0.61470000  1
  H  H17  1  0.81990000  0.99670000  0.03930000  1
  H  H18  1  0.93000000  0.74000000  0.19000000  1
  H  H19  1  0.96000000  0.19200000  0.87000000  1
  C  C20  1  0.07700000  0.72420000  0.89400000  1
  C  C21  1  0.22260000  0.84030000  0.87620000  1
  C  C22  1  0.25200000  0.98240000  0.92280000  1
  C  C23  1  0.32790000  0.80800000  0.81710000  1
  C  C24  1  0.33430000  0.59790000  0.26610000  1
  C  C25  1  0.33460000  0.77390000  0.43350000  1
  C  C26  1  0.38730000  0.09220000  0.91280000  1
  C  C27  1  0.38750000  0.84670000  0.54670000  1
  C  C28  1  0.39540000  0.68000000  0.38810000  1
  C  C29  1  0.41940000  0.24140000  0.96800000  1
  C  C30  1  0.42970000  0.26850000  0.42150000  1
  C  C31  1  0.45710000  0.92030000  0.80190000  1
  C  C32  1  0.48450000  0.33630000  0.54070000  1
  C  C33  1  0.49270000  0.06300000  0.85070000  1
  C  C34  1  0.49510000  0.17580000  0.37860000  1
  C  C35  1  0.50490000  0.82420000  0.62140000  1
  C  C36  1  0.50730000  0.93700000  0.14930000  1
  C  C37  1  0.51550000  0.66370000  0.45930000  1
  C  C38  1  0.54290000  0.07970000  0.19810000  1
  C  C39  1  0.57030000  0.73150000  0.57850000  1
  C  C40  1  0.58060000  0.75860000  0.03200000  1
  C  C41  1  0.60460000  0.32000000  0.61190000  1
  C  C42  1  0.61250000  0.15330000  0.45330000  1
  C  C43  1  0.61270000  0.90780000  0.08720000  1
  C  C44  1  0.66540000  0.22610000  0.56650000  1
  C  C45  1  0.66570000  0.40210000  0.73390000  1
  C  C46  1  0.67210000  0.19200000  0.18290000  1
  C  C47  1  0.74800000  0.01760000  0.07720000  1
  C  C48  1  0.77740000  0.15970000  0.12380000  1
  C  C49  1  0.92300000  0.27580000  0.10600000  1
  O  O50  1  0.00290000  0.27840000  0.84830000  1
  O  O51  1  0.04470000  0.25190000  0.11390000  1
  O  O52  1  0.08080000  0.60340000  0.92140000  1
  O  O53  1  0.22690000  0.62060000  0.20010000  1
  O  O54  1  0.31470000  0.26110000  0.00770000  1
  O  O55  1  0.38260000  0.50550000  0.22740000  1
  O  O56  1  0.43790000  0.10770000  0.26160000  1
  O  O57  1  0.44700000  0.66340000  0.02700000  1
  O  O58  1  0.55300000  0.33660000  0.97300000  1
  O  O59  1  0.56210000  0.89230000  0.73840000  1
  O  O60  1  0.61740000  0.49450000  0.77260000  1
  O  O61  1  0.68530000  0.73890000  0.99230000  1
  O  O62  1  0.77310000  0.37940000  0.79990000  1
  O  O63  1  0.91920000  0.39660000  0.07860000  1
  O  O64  1  0.95530000  0.74810000  0.88610000  1
  O  O65  1  0.99710000  0.72160000  0.15170000  1
