# generated using pymatgen
data_CuH10C20NO4
_symmetry_space_group_name_H-M   'P 1'
_cell_length_a   36.16010000
_cell_length_b   36.16010000
_cell_length_c   36.16010000
_cell_angle_alpha   90.00000000
_cell_angle_beta   90.00000000
_cell_angle_gamma   90.00000000
_symmetry_Int_Tables_number   1
_chemical_formula_structural   CuH10C20NO4
_chemical_formula_sum   'Cu48 H480 C960 N48 O192'
_cell_volume   47281.24116076
_cell_formula_units_Z   48
loop_
 _symmetry_equiv_pos_site_id
 _symmetry_equiv_pos_as_xyz
  1  'x, y, z'
loop_
 _atom_site_type_symbol
 _atom_site_label
 _atom_site_symmetry_multiplicity
 _atom_site_fract_x
 _atom_site_fract_y
 _atom_site_fract_z
 _atom_site_occupancy
  Cu  Cu0  1  0.06146000  0.62778000  0.37436000  1
  Cu  Cu1  1  0.06146000  0.87222000  0.87436000  1
  Cu  Cu2  1  0.08624000  0.67345000  0.32873000  1
  Cu  Cu3  1  0.08624000  0.82655000  0.82873000  1
  Cu  Cu4  1  0.12564000  0.56146000  0.62778000  1
  Cu  Cu5  1  0.12564000  0.93854000  0.12778000  1
  Cu  Cu6  1  0.12778000  0.12564000  0.93854000  1
  Cu  Cu7  1  0.12778000  0.37436000  0.43854000  1
  Cu  Cu8  1  0.17127000  0.58624000  0.67345000  1
  Cu  Cu9  1  0.17127000  0.91376000  0.17345000  1
  Cu  Cu10  1  0.17345000  0.17127000  0.91376000  1
  Cu  Cu11  1  0.17345000  0.32873000  0.41376000  1
  Cu  Cu12  1  0.32655000  0.67127000  0.91376000  1
  Cu  Cu13  1  0.32655000  0.82873000  0.41376000  1
  Cu  Cu14  1  0.32873000  0.08624000  0.67345000  1
  Cu  Cu15  1  0.32873000  0.41376000  0.17345000  1
  Cu  Cu16  1  0.37222000  0.62564000  0.93854000  1
  Cu  Cu17  1  0.37222000  0.87436000  0.43854000  1
  Cu  Cu18  1  0.37436000  0.06146000  0.62778000  1
  Cu  Cu19  1  0.37436000  0.43854000  0.12778000  1
  Cu  Cu20  1  0.41376000  0.17345000  0.32873000  1
  Cu  Cu21  1  0.41376000  0.32655000  0.82873000  1
  Cu  Cu22  1  0.43854000  0.12778000  0.37436000  1
  Cu  Cu23  1  0.43854000  0.37222000  0.87436000  1
  Cu  Cu24  1  0.56146000  0.62778000  0.12564000  1
  Cu  Cu25  1  0.56146000  0.87222000  0.62564000  1
  Cu  Cu26  1  0.58624000  0.67345000  0.17127000  1
  Cu  Cu27  1  0.58624000  0.82655000  0.67127000  1
  Cu  Cu28  1  0.62564000  0.56146000  0.87222000  1
  Cu  Cu29  1  0.62564000  0.93854000  0.37222000  1
  Cu  Cu30  1  0.62778000  0.12564000  0.56146000  1
  Cu  Cu31  1  0.62778000  0.37436000  0.06146000  1
  Cu  Cu32  1  0.67127000  0.58624000  0.82655000  1
  Cu  Cu33  1  0.67127000  0.91376000  0.32655000  1
  Cu  Cu34  1  0.67345000  0.17127000  0.58624000  1
  Cu  Cu35  1  0.67345000  0.32873000  0.08624000  1
  Cu  Cu36  1  0.82655000  0.67127000  0.58624000  1
  Cu  Cu37  1  0.82655000  0.82873000  0.08624000  1
  Cu  Cu38  1  0.82873000  0.08624000  0.82655000  1
  Cu  Cu39  1  0.82873000  0.41376000  0.32655000  1
  Cu  Cu40  1  0.87222000  0.62564000  0.56146000  1
  Cu  Cu41  1  0.87222000  0.87436000  0.06146000  1
  Cu  Cu42  1  0.87436000  0.06146000  0.87222000  1
  Cu  Cu43  1  0.87436000  0.43854000  0.37222000  1
  Cu  Cu44  1  0.91376000  0.17345000  0.17127000  1
  Cu  Cu45  1  0.91376000  0.32655000  0.67127000  1
  Cu  Cu46  1  0.93854000  0.12778000  0.12564000  1
  Cu  Cu47  1  0.93854000  0.37222000  0.62564000  1
  H  H48  1  0.00219000  0.17365000  0.24905000  1
  H  H49  1  0.00219000  0.32635000  0.74905000  1
  H  H50  1  0.01587000  0.73609000  0.84440000  1
  H  H51  1  0.01587000  0.76391000  0.34440000  1
  H  H52  1  0.01844000  0.19228000  0.06545000  1
  H  H53  1  0.01844000  0.30772000  0.56545000  1
  H  H54  1  0.01930000  0.07063000  0.18992000  1
  H  H55  1  0.01930000  0.42937000  0.68992000  1
  H  H56  1  0.01994000  0.71570000  0.11088000  1
  H  H57  1  0.01994000  0.78430000  0.61088000  1
  H  H58  1  0.03045000  0.63037000  0.65434000  1
  H  H59  1  0.03045000  0.86963000  0.15434000  1
  H  H60  1  0.03607000  0.14808000  0.86317000  1
  H  H61  1  0.03607000  0.35192000  0.36317000  1
  H  H62  1  0.03705000  0.19471000  0.64297000  1
  H  H63  1  0.03705000  0.30529000  0.14297000  1
  H  H64  1  0.04719000  0.21544000  0.34320000  1
  H  H65  1  0.04719000  0.28456000  0.84320000  1
  H  H66  1  0.04955000  0.15567000  0.29481000  1
  H  H67  1  0.04955000  0.34433000  0.79481000  1
  H  H68  1  0.05151000  0.70432000  0.22490000  1
  H  H69  1  0.05151000  0.79568000  0.72490000  1
  H  H70  1  0.05336000  0.10428000  0.35341000  1
  H  H71  1  0.05336000  0.39572000  0.85341000  1
  H  H72  1  0.06399000  0.66814000  0.09350000  1
  H  H73  1  0.06399000  0.83186000  0.59350000  1
  H  H74  1  0.06545000  0.01844000  0.19228000  1
  H  H75  1  0.06545000  0.48156000  0.69228000  1
  H  H76  1  0.07063000  0.18992000  0.01930000  1
  H  H77  1  0.07063000  0.31008000  0.51930000  1
  H  H78  1  0.08391000  0.13278000  0.40807000  1
  H  H79  1  0.08391000  0.36722000  0.90807000  1
  H  H80  1  0.09193000  0.58391000  0.13278000  1
  H  H81  1  0.09193000  0.91609000  0.63278000  1
  H  H82  1  0.09295000  0.74589000  0.69715000  1
  H  H83  1  0.09295000  0.75411000  0.19715000  1
  H  H84  1  0.09350000  0.06399000  0.66814000  1
  H  H85  1  0.09350000  0.43601000  0.16814000  1
  H  H86  1  0.09407000  0.65444000  0.20842000  1
  H  H87  1  0.09407000  0.84556000  0.70842000  1
  H  H88  1  0.09935000  0.24990000  0.87062000  1
  H  H89  1  0.09935000  0.25010000  0.37062000  1
  H  H90  1  0.10428000  0.14659000  0.55336000  1
  H  H91  1  0.10428000  0.35341000  0.05336000  1
  H  H92  1  0.11088000  0.01994000  0.71570000  1
  H  H93  1  0.11088000  0.48006000  0.21570000  1
  H  H94  1  0.11089000  0.20505000  0.65817000  1
  H  H95  1  0.11089000  0.29495000  0.15817000  1
  H  H96  1  0.12814000  0.68837000  0.69330000  1
  H  H97  1  0.12814000  0.81163000  0.19330000  1
  H  H98  1  0.12938000  0.59935000  0.25010000  1
  H  H99  1  0.12938000  0.90065000  0.75010000  1
  H  H100  1  0.13037000  0.65434000  0.46955000  1
  H  H101  1  0.13037000  0.84566000  0.96955000  1
  H  H102  1  0.13278000  0.09193000  0.58391000  1
  H  H103  1  0.13278000  0.40807000  0.08391000  1
  H  H104  1  0.13683000  0.53607000  0.35192000  1
  H  H105  1  0.13683000  0.96393000  0.85192000  1
  H  H106  1  0.13753000  0.15083000  0.68793000  1
  H  H107  1  0.13753000  0.34917000  0.18793000  1
  H  H108  1  0.14297000  0.03705000  0.30529000  1
  H  H109  1  0.14297000  0.46295000  0.80529000  1
  H  H110  1  0.14659000  0.55336000  0.10428000  1
  H  H111  1  0.14659000  0.94664000  0.60428000  1
  H  H112  1  0.14808000  0.63683000  0.53607000  1
  H  H113  1  0.14808000  0.86317000  0.03607000  1
  H  H114  1  0.15083000  0.68793000  0.13753000  1
  H  H115  1  0.15083000  0.81207000  0.63753000  1
  H  H116  1  0.15434000  0.03045000  0.86963000  1
  H  H117  1  0.15434000  0.46955000  0.36963000  1
  H  H118  1  0.15444000  0.20842000  0.40593000  1
  H  H119  1  0.15444000  0.29158000  0.90593000  1
  H  H120  1  0.15560000  0.51587000  0.76391000  1
  H  H121  1  0.15560000  0.98413000  0.26391000  1
  H  H122  1  0.15567000  0.20519000  0.54955000  1
  H  H123  1  0.15567000  0.29481000  0.04955000  1
  H  H124  1  0.15680000  0.54719000  0.21544000  1
  H  H125  1  0.15680000  0.95281000  0.71544000  1
  H  H126  1  0.15817000  0.11089000  0.29495000  1
  H  H127  1  0.15817000  0.38911000  0.79495000  1
  H  H128  1  0.16814000  0.09350000  0.43601000  1
  H  H129  1  0.16814000  0.40650000  0.93601000  1
  H  H130  1  0.17365000  0.24905000  0.00219000  1
  H  H131  1  0.17365000  0.25095000  0.50219000  1
  H  H132  1  0.18793000  0.13753000  0.34917000  1
  H  H133  1  0.18793000  0.36247000  0.84917000  1
  H  H134  1  0.18837000  0.69330000  0.37186000  1
  H  H135  1  0.18837000  0.80670000  0.87186000  1
  H  H136  1  0.18992000  0.01930000  0.07063000  1
  H  H137  1  0.18992000  0.48070000  0.57063000  1
  H  H138  1  0.19228000  0.06545000  0.01844000  1
  H  H139  1  0.19228000  0.43455000  0.51844000  1
  H  H140  1  0.19330000  0.12814000  0.81163000  1
  H  H141  1  0.19330000  0.37186000  0.31163000  1
  H  H142  1  0.19471000  0.64297000  0.03705000  1
  H  H143  1  0.19471000  0.85703000  0.53705000  1
  H  H144  1  0.19715000  0.09295000  0.75411000  1
  H  H145  1  0.19715000  0.40705000  0.25411000  1
  H  H146  1  0.20432000  0.22490000  0.44849000  1
  H  H147  1  0.20432000  0.27510000  0.94849000  1
  H  H148  1  0.20505000  0.65817000  0.11089000  1
  H  H149  1  0.20505000  0.84183000  0.61089000  1
  H  H150  1  0.20519000  0.54955000  0.15567000  1
  H  H151  1  0.20519000  0.95045000  0.65567000  1
  H  H152  1  0.20842000  0.09407000  0.65444000  1
  H  H153  1  0.20842000  0.40593000  0.15444000  1
  H  H154  1  0.21544000  0.15680000  0.54719000  1
  H  H155  1  0.21544000  0.34320000  0.04719000  1
  H  H156  1  0.21570000  0.11088000  0.48006000  1
  H  H157  1  0.21570000  0.38912000  0.98006000  1
  H  H158  1  0.22490000  0.05151000  0.70432000  1
  H  H159  1  0.22490000  0.44849000  0.20432000  1
  H  H160  1  0.23609000  0.65560000  0.98413000  1
  H  H161  1  0.23609000  0.84440000  0.48413000  1
  H  H162  1  0.24589000  0.69715000  0.40705000  1
  H  H163  1  0.24589000  0.80285000  0.90705000  1
  H  H164  1  0.24905000  0.00219000  0.17365000  1
  H  H165  1  0.24905000  0.49781000  0.67365000  1
  H  H166  1  0.24990000  0.62938000  0.59935000  1
  H  H167  1  0.24990000  0.87062000  0.09935000  1
  H  H168  1  0.25010000  0.12938000  0.59935000  1
  H  H169  1  0.25010000  0.37062000  0.09935000  1
  H  H170  1  0.25095000  0.50219000  0.17365000  1
  H  H171  1  0.25095000  0.99781000  0.67365000  1
  H  H172  1  0.25411000  0.19715000  0.40705000  1
  H  H173  1  0.25411000  0.30285000  0.90705000  1
  H  H174  1  0.26391000  0.15560000  0.98413000  1
  H  H175  1  0.26391000  0.34440000  0.48413000  1
  H  H176  1  0.27510000  0.55151000  0.70432000  1
  H  H177  1  0.27510000  0.94849000  0.20432000  1
  H  H178  1  0.28430000  0.61088000  0.48006000  1
  H  H179  1  0.28430000  0.88912000  0.98006000  1
  H  H180  1  0.28456000  0.65680000  0.54719000  1
  H  H181  1  0.28456000  0.84320000  0.04719000  1
  H  H182  1  0.29158000  0.59407000  0.65444000  1
  H  H183  1  0.29158000  0.90593000  0.15444000  1
  H  H184  1  0.29481000  0.04955000  0.15567000  1
  H  H185  1  0.29481000  0.45045000  0.65567000  1
  H  H186  1  0.29495000  0.15817000  0.11089000  1
  H  H187  1  0.29495000  0.34183000  0.61089000  1
  H  H188  1  0.29568000  0.72490000  0.44849000  1
  H  H189  1  0.29568000  0.77510000  0.94849000  1
  H  H190  1  0.30285000  0.59295000  0.75411000  1
  H  H191  1  0.30285000  0.90705000  0.25411000  1
  H  H192  1  0.30529000  0.14297000  0.03705000  1
  H  H193  1  0.30529000  0.35703000  0.53705000  1
  H  H194  1  0.30670000  0.62814000  0.81163000  1
  H  H195  1  0.30670000  0.87186000  0.31163000  1
  H  H196  1  0.30772000  0.56545000  0.01844000  1
  H  H197  1  0.30772000  0.93455000  0.51844000  1
  H  H198  1  0.31008000  0.51930000  0.07063000  1
  H  H199  1  0.31008000  0.98070000  0.57063000  1
  H  H200  1  0.31163000  0.19330000  0.37186000  1
  H  H201  1  0.31163000  0.30670000  0.87186000  1
  H  H202  1  0.31207000  0.63753000  0.34917000  1
  H  H203  1  0.31207000  0.86247000  0.84917000  1
  H  H204  1  0.32635000  0.74905000  0.00219000  1
  H  H205  1  0.32635000  0.75095000  0.50219000  1
  H  H206  1  0.33186000  0.59350000  0.43601000  1
  H  H207  1  0.33186000  0.90650000  0.93601000  1
  H  H208  1  0.34183000  0.61089000  0.29495000  1
  H  H209  1  0.34183000  0.88911000  0.79495000  1
  H  H210  1  0.34320000  0.04719000  0.21544000  1
  H  H211  1  0.34320000  0.45281000  0.71544000  1
  H  H212  1  0.34433000  0.70519000  0.54955000  1
  H  H213  1  0.34433000  0.79481000  0.04955000  1
  H  H214  1  0.34440000  0.01587000  0.76391000  1
  H  H215  1  0.34440000  0.48413000  0.26391000  1
  H  H216  1  0.34556000  0.70842000  0.40593000  1
  H  H217  1  0.34556000  0.79158000  0.90593000  1
  H  H218  1  0.34566000  0.53045000  0.86963000  1
  H  H219  1  0.34566000  0.96955000  0.36963000  1
  H  H220  1  0.34917000  0.18793000  0.13753000  1
  H  H221  1  0.34917000  0.31207000  0.63753000  1
  H  H222  1  0.35192000  0.13683000  0.53607000  1
  H  H223  1  0.35192000  0.36317000  0.03607000  1
  H  H224  1  0.35341000  0.05336000  0.10428000  1
  H  H225  1  0.35341000  0.44664000  0.60428000  1
  H  H226  1  0.35703000  0.53705000  0.30529000  1
  H  H227  1  0.35703000  0.96295000  0.80529000  1
  H  H228  1  0.36247000  0.65083000  0.68793000  1
  H  H229  1  0.36247000  0.84917000  0.18793000  1
  H  H230  1  0.36317000  0.03607000  0.35192000  1
  H  H231  1  0.36317000  0.46393000  0.85192000  1
  H  H232  1  0.36722000  0.59193000  0.58391000  1
  H  H233  1  0.36722000  0.90807000  0.08391000  1
  H  H234  1  0.36963000  0.15434000  0.46955000  1
  H  H235  1  0.36963000  0.34566000  0.96955000  1
  H  H236  1  0.37062000  0.09935000  0.25010000  1
  H  H237  1  0.37062000  0.40065000  0.75010000  1
  H  H238  1  0.37186000  0.18837000  0.69330000  1
  H  H239  1  0.37186000  0.31163000  0.19330000  1
  H  H240  1  0.38911000  0.70505000  0.65817000  1
  H  H241  1  0.38911000  0.79495000  0.15817000  1
  H  H242  1  0.38912000  0.51994000  0.71570000  1
  H  H243  1  0.38912000  0.98006000  0.21570000  1
  H  H244  1  0.39572000  0.64659000  0.55336000  1
  H  H245  1  0.39572000  0.85341000  0.05336000  1
  H  H246  1  0.40065000  0.74990000  0.87062000  1
  H  H247  1  0.40065000  0.75010000  0.37062000  1
  H  H248  1  0.40593000  0.15444000  0.20842000  1
  H  H249  1  0.40593000  0.34556000  0.70842000  1
  H  H250  1  0.40650000  0.56399000  0.66814000  1
  H  H251  1  0.40650000  0.93601000  0.16814000  1
  H  H252  1  0.40705000  0.24589000  0.69715000  1
  H  H253  1  0.40705000  0.25411000  0.19715000  1
  H  H254  1  0.40807000  0.08391000  0.13278000  1
  H  H255  1  0.40807000  0.41609000  0.63278000  1
  H  H256  1  0.41609000  0.63278000  0.40807000  1
  H  H257  1  0.41609000  0.86722000  0.90807000  1
  H  H258  1  0.42937000  0.68992000  0.01930000  1
  H  H259  1  0.42937000  0.81008000  0.51930000  1
  H  H260  1  0.43455000  0.51844000  0.19228000  1
  H  H261  1  0.43455000  0.98156000  0.69228000  1
  H  H262  1  0.43601000  0.16814000  0.09350000  1
  H  H263  1  0.43601000  0.33186000  0.59350000  1
  H  H264  1  0.44664000  0.60428000  0.35341000  1
  H  H265  1  0.44664000  0.89572000  0.85341000  1
  H  H266  1  0.44849000  0.20432000  0.22490000  1
  H  H267  1  0.44849000  0.29568000  0.72490000  1
  H  H268  1  0.45045000  0.65567000  0.29481000  1
  H  H269  1  0.45045000  0.84433000  0.79481000  1
  H  H270  1  0.45281000  0.71544000  0.34320000  1
  H  H271  1  0.45281000  0.78456000  0.84320000  1
  H  H272  1  0.46295000  0.69471000  0.64297000  1
  H  H273  1  0.46295000  0.80529000  0.14297000  1
  H  H274  1  0.46393000  0.64808000  0.86317000  1
  H  H275  1  0.46393000  0.85192000  0.36317000  1
  H  H276  1  0.46955000  0.13037000  0.65434000  1
  H  H277  1  0.46955000  0.36963000  0.15434000  1
  H  H278  1  0.48006000  0.21570000  0.11088000  1
  H  H279  1  0.48006000  0.28430000  0.61088000  1
  H  H280  1  0.48070000  0.57063000  0.18992000  1
  H  H281  1  0.48070000  0.92937000  0.68992000  1
  H  H282  1  0.48156000  0.69228000  0.06545000  1
  H  H283  1  0.48156000  0.80772000  0.56545000  1
  H  H284  1  0.48413000  0.23609000  0.84440000  1
  H  H285  1  0.48413000  0.26391000  0.34440000  1
  H  H286  1  0.49781000  0.67365000  0.24905000  1
  H  H287  1  0.49781000  0.82635000  0.74905000  1
  H  H288  1  0.50219000  0.17365000  0.25095000  1
  H  H289  1  0.50219000  0.32635000  0.75095000  1
  H  H290  1  0.51587000  0.73609000  0.65560000  1
  H  H291  1  0.51587000  0.76391000  0.15560000  1
  H  H292  1  0.51844000  0.19228000  0.43455000  1
  H  H293  1  0.51844000  0.30772000  0.93455000  1
  H  H294  1  0.51930000  0.07063000  0.31008000  1
  H  H295  1  0.51930000  0.42937000  0.81008000  1
  H  H296  1  0.51994000  0.71570000  0.38912000  1
  H  H297  1  0.51994000  0.78430000  0.88912000  1
  H  H298  1  0.53045000  0.63037000  0.84566000  1
  H  H299  1  0.53045000  0.86963000  0.34566000  1
  H  H300  1  0.53607000  0.14808000  0.63683000  1
  H  H301  1  0.53607000  0.35192000  0.13683000  1
  H  H302  1  0.53705000  0.19471000  0.85703000  1
  H  H303  1  0.53705000  0.30529000  0.35703000  1
  H  H304  1  0.54719000  0.21544000  0.15680000  1
  H  H305  1  0.54719000  0.28456000  0.65680000  1
  H  H306  1  0.54955000  0.15567000  0.20519000  1
  H  H307  1  0.54955000  0.34433000  0.70519000  1
  H  H308  1  0.55151000  0.70432000  0.27510000  1
  H  H309  1  0.55151000  0.79568000  0.77510000  1
  H  H310  1  0.55336000  0.10428000  0.14659000  1
  H  H311  1  0.55336000  0.39572000  0.64659000  1
  H  H312  1  0.56399000  0.66814000  0.40650000  1
  H  H313  1  0.56399000  0.83186000  0.90650000  1
  H  H314  1  0.56545000  0.01844000  0.30772000  1
  H  H315  1  0.56545000  0.48156000  0.80772000  1
  H  H316  1  0.57063000  0.18992000  0.48070000  1
  H  H317  1  0.57063000  0.31008000  0.98070000  1
  H  H318  1  0.58391000  0.13278000  0.09193000  1
  H  H319  1  0.58391000  0.36722000  0.59193000  1
  H  H320  1  0.59193000  0.58391000  0.36722000  1
  H  H321  1  0.59193000  0.91609000  0.86722000  1
  H  H322  1  0.59295000  0.74589000  0.80285000  1
  H  H323  1  0.59295000  0.75411000  0.30285000  1
  H  H324  1  0.59350000  0.06399000  0.83186000  1
  H  H325  1  0.59350000  0.43601000  0.33186000  1
  H  H326  1  0.59407000  0.65444000  0.29158000  1
  H  H327  1  0.59407000  0.84556000  0.79158000  1
  H  H328  1  0.59935000  0.24990000  0.62938000  1
  H  H329  1  0.59935000  0.25010000  0.12938000  1
  H  H330  1  0.60428000  0.14659000  0.94664000  1
  H  H331  1  0.60428000  0.35341000  0.44664000  1
  H  H332  1  0.61088000  0.01994000  0.78430000  1
  H  H333  1  0.61088000  0.48006000  0.28430000  1
  H  H334  1  0.61089000  0.20505000  0.84183000  1
  H  H335  1  0.61089000  0.29495000  0.34183000  1
  H  H336  1  0.62814000  0.68837000  0.80670000  1
  H  H337  1  0.62814000  0.81163000  0.30670000  1
  H  H338  1  0.62938000  0.59935000  0.24990000  1
  H  H339  1  0.62938000  0.90065000  0.74990000  1
  H  H340  1  0.63037000  0.65434000  0.03045000  1
  H  H341  1  0.63037000  0.84566000  0.53045000  1
  H  H342  1  0.63278000  0.09193000  0.91609000  1
  H  H343  1  0.63278000  0.40807000  0.41609000  1
  H  H344  1  0.63683000  0.53607000  0.14808000  1
  H  H345  1  0.63683000  0.96393000  0.64808000  1
  H  H346  1  0.63753000  0.15083000  0.81207000  1
  H  H347  1  0.63753000  0.34917000  0.31207000  1
  H  H348  1  0.64297000  0.03705000  0.19471000  1
  H  H349  1  0.64297000  0.46295000  0.69471000  1
  H  H350  1  0.64659000  0.55336000  0.39572000  1
  H  H351  1  0.64659000  0.94664000  0.89572000  1
  H  H352  1  0.64808000  0.63683000  0.96393000  1
  H  H353  1  0.64808000  0.86317000  0.46393000  1
  H  H354  1  0.65083000  0.68793000  0.36247000  1
  H  H355  1  0.65083000  0.81207000  0.86247000  1
  H  H356  1  0.65434000  0.03045000  0.63037000  1
  H  H357  1  0.65434000  0.46955000  0.13037000  1
  H  H358  1  0.65444000  0.20842000  0.09407000  1
  H  H359  1  0.65444000  0.29158000  0.59407000  1
  H  H360  1  0.65560000  0.51587000  0.73609000  1
  H  H361  1  0.65560000  0.98413000  0.23609000  1
  H  H362  1  0.65567000  0.20519000  0.95045000  1
  H  H363  1  0.65567000  0.29481000  0.45045000  1
  H  H364  1  0.65680000  0.54719000  0.28456000  1
  H  H365  1  0.65680000  0.95281000  0.78456000  1
  H  H366  1  0.65817000  0.11089000  0.20505000  1
  H  H367  1  0.65817000  0.38911000  0.70505000  1
  H  H368  1  0.66814000  0.09350000  0.06399000  1
  H  H369  1  0.66814000  0.40650000  0.56399000  1
  H  H370  1  0.67365000  0.24905000  0.49781000  1
  H  H371  1  0.67365000  0.25095000  0.99781000  1
  H  H372  1  0.68793000  0.13753000  0.15083000  1
  H  H373  1  0.68793000  0.36247000  0.65083000  1
  H  H374  1  0.68837000  0.69330000  0.12814000  1
  H  H375  1  0.68837000  0.80670000  0.62814000  1
  H  H376  1  0.68992000  0.01930000  0.42937000  1
  H  H377  1  0.68992000  0.48070000  0.92937000  1
  H  H378  1  0.69228000  0.06545000  0.48156000  1
  H  H379  1  0.69228000  0.43455000  0.98156000  1
  H  H380  1  0.69330000  0.12814000  0.68837000  1
  H  H381  1  0.69330000  0.37186000  0.18837000  1
  H  H382  1  0.69471000  0.64297000  0.46295000  1
  H  H383  1  0.69471000  0.85703000  0.96295000  1
  H  H384  1  0.69715000  0.09295000  0.74589000  1
  H  H385  1  0.69715000  0.40705000  0.24589000  1
  H  H386  1  0.70432000  0.22490000  0.05151000  1
  H  H387  1  0.70432000  0.27510000  0.55151000  1
  H  H388  1  0.70505000  0.65817000  0.38911000  1
  H  H389  1  0.70505000  0.84183000  0.88911000  1
  H  H390  1  0.70519000  0.54955000  0.34433000  1
  H  H391  1  0.70519000  0.95045000  0.84433000  1
  H  H392  1  0.70842000  0.09407000  0.84556000  1
  H  H393  1  0.70842000  0.40593000  0.34556000  1
  H  H394  1  0.71544000  0.15680000  0.95281000  1
  H  H395  1  0.71544000  0.34320000  0.45281000  1
  H  H396  1  0.71570000  0.11088000  0.01994000  1
  H  H397  1  0.71570000  0.38912000  0.51994000  1
  H  H398  1  0.72490000  0.05151000  0.79568000  1
  H  H399  1  0.72490000  0.44849000  0.29568000  1
  H  H400  1  0.73609000  0.65560000  0.51587000  1
  H  H401  1  0.73609000  0.84440000  0.01587000  1
  H  H402  1  0.74589000  0.69715000  0.09295000  1
  H  H403  1  0.74589000  0.80285000  0.59295000  1
  H  H404  1  0.74905000  0.00219000  0.32635000  1
  H  H405  1  0.74905000  0.49781000  0.82635000  1
  H  H406  1  0.74990000  0.62938000  0.90065000  1
  H  H407  1  0.74990000  0.87062000  0.40065000  1
  H  H408  1  0.75010000  0.12938000  0.90065000  1
  H  H409  1  0.75010000  0.37062000  0.40065000  1
  H  H410  1  0.75095000  0.50219000  0.32635000  1
  H  H411  1  0.75095000  0.99781000  0.82635000  1
  H  H412  1  0.75411000  0.19715000  0.09295000  1
  H  H413  1  0.75411000  0.30285000  0.59295000  1
  H  H414  1  0.76391000  0.15560000  0.51587000  1
  H  H415  1  0.76391000  0.34440000  0.01587000  1
  H  H416  1  0.77510000  0.55151000  0.79568000  1
  H  H417  1  0.77510000  0.94849000  0.29568000  1
  H  H418  1  0.78430000  0.61088000  0.01994000  1
  H  H419  1  0.78430000  0.88912000  0.51994000  1
  H  H420  1  0.78456000  0.65680000  0.95281000  1
  H  H421  1  0.78456000  0.84320000  0.45281000  1
  H  H422  1  0.79158000  0.59407000  0.84556000  1
  H  H423  1  0.79158000  0.90593000  0.34556000  1
  H  H424  1  0.79481000  0.04955000  0.34433000  1
  H  H425  1  0.79481000  0.45045000  0.84433000  1
  H  H426  1  0.79495000  0.15817000  0.38911000  1
  H  H427  1  0.79495000  0.34183000  0.88911000  1
  H  H428  1  0.79568000  0.72490000  0.05151000  1
  H  H429  1  0.79568000  0.77510000  0.55151000  1
  H  H430  1  0.80285000  0.59295000  0.74589000  1
  H  H431  1  0.80285000  0.90705000  0.24589000  1
  H  H432  1  0.80529000  0.14297000  0.46295000  1
  H  H433  1  0.80529000  0.35703000  0.96295000  1
  H  H434  1  0.80670000  0.62814000  0.68837000  1
  H  H435  1  0.80670000  0.87186000  0.18837000  1
  H  H436  1  0.80772000  0.56545000  0.48156000  1
  H  H437  1  0.80772000  0.93455000  0.98156000  1
  H  H438  1  0.81008000  0.51930000  0.42937000  1
  H  H439  1  0.81008000  0.98070000  0.92937000  1
  H  H440  1  0.81163000  0.19330000  0.12814000  1
  H  H441  1  0.81163000  0.30670000  0.62814000  1
  H  H442  1  0.81207000  0.63753000  0.15083000  1
  H  H443  1  0.81207000  0.86247000  0.65083000  1
  H  H444  1  0.82635000  0.74905000  0.49781000  1
  H  H445  1  0.82635000  0.75095000  0.99781000  1
  H  H446  1  0.83186000  0.59350000  0.06399000  1
  H  H447  1  0.83186000  0.90650000  0.56399000  1
  H  H448  1  0.84183000  0.61089000  0.20505000  1
  H  H449  1  0.84183000  0.88911000  0.70505000  1
  H  H450  1  0.84320000  0.04719000  0.28456000  1
  H  H451  1  0.84320000  0.45281000  0.78456000  1
  H  H452  1  0.84433000  0.70519000  0.95045000  1
  H  H453  1  0.84433000  0.79481000  0.45045000  1
  H  H454  1  0.84440000  0.01587000  0.73609000  1
  H  H455  1  0.84440000  0.48413000  0.23609000  1
  H  H456  1  0.84556000  0.70842000  0.09407000  1
  H  H457  1  0.84556000  0.79158000  0.59407000  1
  H  H458  1  0.84566000  0.53045000  0.63037000  1
  H  H459  1  0.84566000  0.96955000  0.13037000  1
  H  H460  1  0.84917000  0.18793000  0.36247000  1
  H  H461  1  0.84917000  0.31207000  0.86247000  1
  H  H462  1  0.85192000  0.13683000  0.96393000  1
  H  H463  1  0.85192000  0.36317000  0.46393000  1
  H  H464  1  0.85341000  0.05336000  0.39572000  1
  H  H465  1  0.85341000  0.44664000  0.89572000  1
  H  H466  1  0.85703000  0.53705000  0.19471000  1
  H  H467  1  0.85703000  0.96295000  0.69471000  1
  H  H468  1  0.86247000  0.65083000  0.81207000  1
  H  H469  1  0.86247000  0.84917000  0.31207000  1
  H  H470  1  0.86317000  0.03607000  0.14808000  1
  H  H471  1  0.86317000  0.46393000  0.64808000  1
  H  H472  1  0.86722000  0.59193000  0.91609000  1
  H  H473  1  0.86722000  0.90807000  0.41609000  1
  H  H474  1  0.86963000  0.15434000  0.03045000  1
  H  H475  1  0.86963000  0.34566000  0.53045000  1
  H  H476  1  0.87062000  0.09935000  0.24990000  1
  H  H477  1  0.87062000  0.40065000  0.74990000  1
  H  H478  1  0.87186000  0.18837000  0.80670000  1
  H  H479  1  0.87186000  0.31163000  0.30670000  1
  H  H480  1  0.88911000  0.70505000  0.84183000  1
  H  H481  1  0.88911000  0.79495000  0.34183000  1
  H  H482  1  0.88912000  0.51994000  0.78430000  1
  H  H483  1  0.88912000  0.98006000  0.28430000  1
  H  H484  1  0.89572000  0.64659000  0.94664000  1
  H  H485  1  0.89572000  0.85341000  0.44664000  1
  H  H486  1  0.90065000  0.74990000  0.62938000  1
  H  H487  1  0.90065000  0.75010000  0.12938000  1
  H  H488  1  0.90593000  0.15444000  0.29158000  1
  H  H489  1  0.90593000  0.34556000  0.79158000  1
  H  H490  1  0.90650000  0.56399000  0.83186000  1
  H  H491  1  0.90650000  0.93601000  0.33186000  1
  H  H492  1  0.90705000  0.24589000  0.80285000  1
  H  H493  1  0.90705000  0.25411000  0.30285000  1
  H  H494  1  0.90807000  0.08391000  0.36722000  1
  H  H495  1  0.90807000  0.41609000  0.86722000  1
  H  H496  1  0.91609000  0.63278000  0.09193000  1
  H  H497  1  0.91609000  0.86722000  0.59193000  1
  H  H498  1  0.92937000  0.68992000  0.48070000  1
  H  H499  1  0.92937000  0.81008000  0.98070000  1
  H  H500  1  0.93455000  0.51844000  0.30772000  1
  H  H501  1  0.93455000  0.98156000  0.80772000  1
  H  H502  1  0.93601000  0.16814000  0.40650000  1
  H  H503  1  0.93601000  0.33186000  0.90650000  1
  H  H504  1  0.94664000  0.60428000  0.14659000  1
  H  H505  1  0.94664000  0.89572000  0.64659000  1
  H  H506  1  0.94849000  0.20432000  0.27510000  1
  H  H507  1  0.94849000  0.29568000  0.77510000  1
  H  H508  1  0.95045000  0.65567000  0.20519000  1
  H  H509  1  0.95045000  0.84433000  0.70519000  1
  H  H510  1  0.95281000  0.71544000  0.15680000  1
  H  H511  1  0.95281000  0.78456000  0.65680000  1
  H  H512  1  0.96295000  0.69471000  0.85703000  1
  H  H513  1  0.96295000  0.80529000  0.35703000  1
  H  H514  1  0.96393000  0.64808000  0.63683000  1
  H  H515  1  0.96393000  0.85192000  0.13683000  1
  H  H516  1  0.96955000  0.13037000  0.84566000  1
  H  H517  1  0.96955000  0.36963000  0.34566000  1
  H  H518  1  0.98006000  0.21570000  0.38912000  1
  H  H519  1  0.98006000  0.28430000  0.88912000  1
  H  H520  1  0.98070000  0.57063000  0.31008000  1
  H  H521  1  0.98070000  0.92937000  0.81008000  1
  H  H522  1  0.98156000  0.69228000  0.43455000  1
  H  H523  1  0.98156000  0.80772000  0.93455000  1
  H  H524  1  0.98413000  0.23609000  0.65560000  1
  H  H525  1  0.98413000  0.26391000  0.15560000  1
  H  H526  1  0.99781000  0.67365000  0.25095000  1
  H  H527  1  0.99781000  0.82635000  0.75095000  1
  C  C528  1  0.00226000  0.24239000  0.63265000  1
  C  C529  1  0.00226000  0.25761000  0.13265000  1
  C  C530  1  0.00323000  0.72507000  0.38873000  1
  C  C531  1  0.00323000  0.77493000  0.88873000  1
  C  C532  1  0.00648000  0.12328000  0.21652000  1
  C  C533  1  0.00648000  0.37672000  0.71652000  1
  C  C534  1  0.01102000  0.19775000  0.84153000  1
  C  C535  1  0.01102000  0.30225000  0.34153000  1
  C  C536  1  0.01349000  0.23557000  0.83671000  1
  C  C537  1  0.01349000  0.26443000  0.33671000  1
  C  C538  1  0.01585000  0.14728000  0.24611000  1
  C  C539  1  0.01585000  0.35272000  0.74611000  1
  C  C540  1  0.02115000  0.21723000  0.08177000  1
  C  C541  1  0.02115000  0.28277000  0.58177000  1
  C  C542  1  0.02353000  0.63325000  0.30912000  1
  C  C543  1  0.02353000  0.86675000  0.80912000  1
  C  C544  1  0.02436000  0.68798000  0.66889000  1
  C  C545  1  0.02436000  0.81202000  0.16889000  1
  C  C546  1  0.02558000  0.08951000  0.21228000  1
  C  C547  1  0.02558000  0.41049000  0.71228000  1
  C  C548  1  0.03132000  0.69765000  0.37735000  1
  C  C549  1  0.03132000  0.80235000  0.87735000  1
  C  C550  1  0.03232000  0.21865000  0.62568000  1
  C  C551  1  0.03232000  0.28135000  0.12568000  1
  C  C552  1  0.03234000  0.71334000  0.16921000  1
  C  C553  1  0.03234000  0.78666000  0.66921000  1
  C  C554  1  0.03491000  0.70134000  0.13246000  1
  C  C555  1  0.03491000  0.79866000  0.63246000  1
  C  C556  1  0.03936000  0.17738000  0.85805000  1
  C  C557  1  0.03936000  0.32262000  0.35805000  1
  C  C558  1  0.04144000  0.72031000  0.67989000  1
  C  C559  1  0.04144000  0.77969000  0.17989000  1
  C  C560  1  0.04291000  0.13736000  0.27209000  1
  C  C561  1  0.04291000  0.36264000  0.77209000  1
  C  C562  1  0.04390000  0.65482000  0.66515000  1
  C  C563  1  0.04390000  0.84518000  0.16515000  1
  C  C564  1  0.04527000  0.24509000  0.34681000  1
  C  C565  1  0.04527000  0.25491000  0.84681000  1
  C  C566  1  0.05054000  0.24127000  0.07555000  1
  C  C567  1  0.05054000  0.25873000  0.57555000  1
  C  C568  1  0.05221000  0.08042000  0.23850000  1
  C  C569  1  0.05221000  0.41958000  0.73850000  1
  C  C570  1  0.05262000  0.69489000  0.19655000  1
  C  C571  1  0.05262000  0.80511000  0.69655000  1
  C  C572  1  0.05639000  0.22766000  0.59689000  1
  C  C573  1  0.05639000  0.27234000  0.09689000  1
  C  C574  1  0.06027000  0.67403000  0.12258000  1
  C  C575  1  0.06027000  0.82597000  0.62258000  1
  C  C576  1  0.06063000  0.10339000  0.26773000  1
  C  C577  1  0.06063000  0.39661000  0.76773000  1
  C  C578  1  0.07193000  0.19632000  0.86856000  1
  C  C579  1  0.07193000  0.30368000  0.36856000  1
  C  C580  1  0.07480000  0.23495000  0.86221000  1
  C  C581  1  0.07480000  0.26505000  0.36221000  1
  C  C582  1  0.07555000  0.05054000  0.24127000  1
  C  C583  1  0.07555000  0.44946000  0.74127000  1
  C  C584  1  0.07755000  0.66700000  0.18685000  1
  C  C585  1  0.07755000  0.83300000  0.68685000  1
  C  C586  1  0.07894000  0.72076000  0.68914000  1
  C  C587  1  0.07894000  0.77924000  0.18914000  1
  C  C588  1  0.08042000  0.23850000  0.05221000  1
  C  C589  1  0.08042000  0.26150000  0.55221000  1
  C  C590  1  0.08177000  0.02115000  0.21723000  1
  C  C591  1  0.08177000  0.47885000  0.71723000  1
  C  C592  1  0.08202000  0.65481000  0.67409000  1
  C  C593  1  0.08202000  0.84519000  0.17409000  1
  C  C594  1  0.08333000  0.65785000  0.14942000  1
  C  C595  1  0.08333000  0.84215000  0.64942000  1
  C  C596  1  0.08390000  0.11208000  0.35264000  1
  C  C597  1  0.08390000  0.38792000  0.85264000  1
  C  C598  1  0.08951000  0.21228000  0.02558000  1
  C  C599  1  0.08951000  0.28772000  0.52558000  1
  C  C600  1  0.09689000  0.05639000  0.27234000  1
  C  C601  1  0.09689000  0.44361000  0.77234000  1
  C  C602  1  0.09890000  0.68773000  0.68690000  1
  C  C603  1  0.09890000  0.81227000  0.18690000  1
  C  C604  1  0.10052000  0.12825000  0.38361000  1
  C  C605  1  0.10052000  0.37175000  0.88361000  1
  C  C606  1  0.10153000  0.17698000  0.88917000  1
  C  C607  1  0.10153000  0.32302000  0.38917000  1
  C  C608  1  0.10339000  0.23227000  0.56063000  1
  C  C609  1  0.10339000  0.26773000  0.06063000  1
  C  C610  1  0.10465000  0.10544000  0.32066000  1
  C  C611  1  0.10465000  0.39456000  0.82066000  1
  C  C612  1  0.10544000  0.17934000  0.60465000  1
  C  C613  1  0.10544000  0.32066000  0.10465000  1
  C  C614  1  0.10567000  0.62255000  0.66630000  1
  C  C615  1  0.10567000  0.87745000  0.16630000  1
  C  C616  1  0.11083000  0.60153000  0.32302000  1
  C  C617  1  0.11083000  0.89847000  0.82302000  1
  C  C618  1  0.11127000  0.50323000  0.72507000  1
  C  C619  1  0.11127000  0.99677000  0.22507000  1
  C  C620  1  0.11208000  0.14736000  0.58390000  1
  C  C621  1  0.11208000  0.35264000  0.08390000  1
  C  C622  1  0.11602000  0.18050000  0.64184000  1
  C  C623  1  0.11602000  0.31950000  0.14184000  1
  C  C624  1  0.11639000  0.60052000  0.12825000  1
  C  C625  1  0.11639000  0.89948000  0.62825000  1
  C  C626  1  0.11675000  0.63839000  0.13743000  1
  C  C627  1  0.11675000  0.86161000  0.63743000  1
  C  C628  1  0.12255000  0.66630000  0.39433000  1
  C  C629  1  0.12255000  0.83370000  0.89433000  1
  C  C630  1  0.12258000  0.06027000  0.67403000  1
  C  C631  1  0.12258000  0.43973000  0.17403000  1
  C  C632  1  0.12265000  0.53132000  0.69765000  1
  C  C633  1  0.12265000  0.96868000  0.19765000  1
  C  C634  1  0.12328000  0.21652000  0.00648000  1
  C  C635  1  0.12328000  0.28348000  0.50648000  1
  C  C636  1  0.12568000  0.03232000  0.28135000  1
  C  C637  1  0.12568000  0.46768000  0.78135000  1
  C  C638  1  0.12825000  0.11639000  0.60052000  1
  C  C639  1  0.12825000  0.38361000  0.10052000  1
  C  C640  1  0.13144000  0.57193000  0.30368000  1
  C  C641  1  0.13144000  0.92807000  0.80368000  1
  C  C642  1  0.13170000  0.14953000  0.65862000  1
  C  C643  1  0.13170000  0.35047000  0.15862000  1
  C  C644  1  0.13246000  0.03491000  0.70134000  1
  C  C645  1  0.13246000  0.46509000  0.20134000  1
  C  C646  1  0.13265000  0.00226000  0.25761000  1
  C  C647  1  0.13265000  0.49774000  0.75761000  1
  C  C648  1  0.13325000  0.19088000  0.97647000  1
  C  C649  1  0.13325000  0.30912000  0.47647000  1
  C  C650  1  0.13736000  0.22791000  0.54291000  1
  C  C651  1  0.13736000  0.27209000  0.04291000  1
  C  C652  1  0.13743000  0.11675000  0.63839000  1
  C  C653  1  0.13743000  0.38325000  0.13839000  1
  C  C654  1  0.13779000  0.57480000  0.26505000  1
  C  C655  1  0.13779000  0.92520000  0.76505000  1
  C  C656  1  0.13839000  0.13743000  0.38325000  1
  C  C657  1  0.13839000  0.36257000  0.88325000  1
  C  C658  1  0.14184000  0.11602000  0.31950000  1
  C  C659  1  0.14184000  0.38398000  0.81950000  1
  C  C660  1  0.14195000  0.53936000  0.32262000  1
  C  C661  1  0.14195000  0.96064000  0.82262000  1
  C  C662  1  0.14728000  0.24611000  0.01585000  1
  C  C663  1  0.14728000  0.25389000  0.51585000  1
  C  C664  1  0.14736000  0.58390000  0.11208000  1
  C  C665  1  0.14736000  0.91610000  0.61208000  1
  C  C666  1  0.14942000  0.08333000  0.65785000  1
  C  C667  1  0.14942000  0.41667000  0.15785000  1
  C  C668  1  0.14953000  0.65862000  0.13170000  1
  C  C669  1  0.14953000  0.84138000  0.63170000  1
  C  C670  1  0.15319000  0.54527000  0.24509000  1
  C  C671  1  0.15319000  0.95473000  0.74509000  1
  C  C672  1  0.15481000  0.67409000  0.41798000  1
  C  C673  1  0.15481000  0.82591000  0.91798000  1
  C  C674  1  0.15482000  0.66515000  0.45610000  1
  C  C675  1  0.15482000  0.83485000  0.95610000  1
  C  C676  1  0.15785000  0.14942000  0.41667000  1
  C  C677  1  0.15785000  0.35058000  0.91667000  1
  C  C678  1  0.15847000  0.51102000  0.30225000  1
  C  C679  1  0.15847000  0.98898000  0.80225000  1
  C  C680  1  0.15862000  0.13170000  0.35047000  1
  C  C681  1  0.15862000  0.36830000  0.85047000  1
  C  C682  1  0.16329000  0.51349000  0.26443000  1
  C  C683  1  0.16329000  0.98651000  0.76443000  1
  C  C684  1  0.16515000  0.04390000  0.84518000  1
  C  C685  1  0.16515000  0.45610000  0.34518000  1
  C  C686  1  0.16630000  0.10567000  0.87745000  1
  C  C687  1  0.16630000  0.39433000  0.37745000  1
  C  C688  1  0.16700000  0.18685000  0.42245000  1
  C  C689  1  0.16700000  0.31315000  0.92245000  1
  C  C690  1  0.16889000  0.02436000  0.81202000  1
  C  C691  1  0.16889000  0.47564000  0.31202000  1
  C  C692  1  0.16921000  0.03234000  0.71334000  1
  C  C693  1  0.16921000  0.46766000  0.21334000  1
  C  C694  1  0.17403000  0.12258000  0.43973000  1
  C  C695  1  0.17403000  0.37742000  0.93973000  1
  C  C696  1  0.17409000  0.08202000  0.84519000  1
  C  C697  1  0.17409000  0.41798000  0.34519000  1
  C  C698  1  0.17698000  0.61083000  0.60153000  1
  C  C699  1  0.17698000  0.88917000  0.10153000  1
  C  C700  1  0.17738000  0.64195000  0.53936000  1
  C  C701  1  0.17738000  0.85805000  0.03936000  1
  C  C702  1  0.17934000  0.60465000  0.10544000  1
  C  C703  1  0.17934000  0.89535000  0.60544000  1
  C  C704  1  0.17989000  0.04144000  0.77969000  1
  C  C705  1  0.17989000  0.45856000  0.27969000  1
  C  C706  1  0.18050000  0.64184000  0.11602000  1
  C  C707  1  0.18050000  0.85816000  0.61602000  1
  C  C708  1  0.18685000  0.07755000  0.66700000  1
  C  C709  1  0.18685000  0.42245000  0.16700000  1
  C  C710  1  0.18690000  0.09890000  0.81227000  1
  C  C711  1  0.18690000  0.40110000  0.31227000  1
  C  C712  1  0.18773000  0.68690000  0.40110000  1
  C  C713  1  0.18773000  0.81310000  0.90110000  1
  C  C714  1  0.18798000  0.66889000  0.47564000  1
  C  C715  1  0.18798000  0.83111000  0.97564000  1
  C  C716  1  0.18914000  0.07894000  0.77924000  1
  C  C717  1  0.18914000  0.42106000  0.27924000  1
  C  C718  1  0.19088000  0.52353000  0.63325000  1
  C  C719  1  0.19088000  0.97647000  0.13325000  1
  C  C720  1  0.19489000  0.19655000  0.44738000  1
  C  C721  1  0.19489000  0.30345000  0.94738000  1
  C  C722  1  0.19632000  0.63144000  0.57193000  1
  C  C723  1  0.19632000  0.86856000  0.07193000  1
  C  C724  1  0.19655000  0.05262000  0.69489000  1
  C  C725  1  0.19655000  0.44738000  0.19489000  1
  C  C726  1  0.19765000  0.12265000  0.96868000  1
  C  C727  1  0.19765000  0.37735000  0.46868000  1
  C  C728  1  0.19775000  0.65847000  0.51102000  1
  C  C729  1  0.19775000  0.84153000  0.01102000  1
  C  C730  1  0.20134000  0.13246000  0.46509000  1
  C  C731  1  0.20134000  0.36754000  0.96509000  1
  C  C732  1  0.21228000  0.02558000  0.08951000  1
  C  C733  1  0.21228000  0.47442000  0.58951000  1
  C  C734  1  0.21334000  0.16921000  0.46766000  1
  C  C735  1  0.21334000  0.33079000  0.96766000  1
  C  C736  1  0.21652000  0.00648000  0.12328000  1
  C  C737  1  0.21652000  0.49352000  0.62328000  1
  C  C738  1  0.21723000  0.08177000  0.02115000  1
  C  C739  1  0.21723000  0.41823000  0.52115000  1
  C  C740  1  0.21865000  0.62568000  0.03232000  1
  C  C741  1  0.21865000  0.87432000  0.53232000  1
  C  C742  1  0.22031000  0.67989000  0.45856000  1
  C  C743  1  0.22031000  0.82011000  0.95856000  1
  C  C744  1  0.22076000  0.68914000  0.42106000  1
  C  C745  1  0.22076000  0.81086000  0.92106000  1
  C  C746  1  0.22507000  0.11127000  0.99677000  1
  C  C747  1  0.22507000  0.38873000  0.49677000  1
  C  C748  1  0.22766000  0.59689000  0.05639000  1
  C  C749  1  0.22766000  0.90311000  0.55639000  1
  C  C750  1  0.22791000  0.54291000  0.13736000  1
  C  C751  1  0.22791000  0.95709000  0.63736000  1
  C  C752  1  0.23227000  0.56063000  0.10339000  1
  C  C753  1  0.23227000  0.93937000  0.60339000  1
  C  C754  1  0.23495000  0.63779000  0.57480000  1
  C  C755  1  0.23495000  0.86221000  0.07480000  1
  C  C756  1  0.23557000  0.66329000  0.51349000  1
  C  C757  1  0.23557000  0.83671000  0.01349000  1
  C  C758  1  0.23850000  0.05221000  0.08042000  1
  C  C759  1  0.23850000  0.44779000  0.58042000  1
  C  C760  1  0.24127000  0.07555000  0.05054000  1
  C  C761  1  0.24127000  0.42445000  0.55054000  1
  C  C762  1  0.24239000  0.63265000  0.00226000  1
  C  C763  1  0.24239000  0.86735000  0.50226000  1
  C  C764  1  0.24509000  0.15319000  0.54527000  1
  C  C765  1  0.24509000  0.34681000  0.04527000  1
  C  C766  1  0.24611000  0.01585000  0.14728000  1
  C  C767  1  0.24611000  0.48415000  0.64728000  1
  C  C768  1  0.25389000  0.51585000  0.14728000  1
  C  C769  1  0.25389000  0.98415000  0.64728000  1
  C  C770  1  0.25491000  0.65319000  0.54527000  1
  C  C771  1  0.25491000  0.84681000  0.04527000  1
  C  C772  1  0.25761000  0.13265000  0.00226000  1
  C  C773  1  0.25761000  0.36735000  0.50226000  1
  C  C774  1  0.25873000  0.57555000  0.05054000  1
  C  C775  1  0.25873000  0.92445000  0.55054000  1
  C  C776  1  0.26150000  0.55221000  0.08042000  1
  C  C777  1  0.26150000  0.94779000  0.58042000  1
  C  C778  1  0.26443000  0.16329000  0.51349000  1
  C  C779  1  0.26443000  0.33671000  0.01349000  1
  C  C780  1  0.26505000  0.13779000  0.57480000  1
  C  C781  1  0.26505000  0.36221000  0.07480000  1
  C  C782  1  0.26773000  0.06063000  0.10339000  1
  C  C783  1  0.26773000  0.43937000  0.60339000  1
  C  C784  1  0.27209000  0.04291000  0.13736000  1
  C  C785  1  0.27209000  0.45709000  0.63736000  1
  C  C786  1  0.27234000  0.09689000  0.05639000  1
  C  C787  1  0.27234000  0.40311000  0.55639000  1
  C  C788  1  0.27493000  0.61127000  0.99677000  1
  C  C789  1  0.27493000  0.88873000  0.49677000  1
  C  C790  1  0.27924000  0.18914000  0.42106000  1
  C  C791  1  0.27924000  0.31086000  0.92106000  1
  C  C792  1  0.27969000  0.17989000  0.45856000  1
  C  C793  1  0.27969000  0.32011000  0.95856000  1
  C  C794  1  0.28135000  0.12568000  0.03232000  1
  C  C795  1  0.28135000  0.37432000  0.53232000  1
  C  C796  1  0.28277000  0.58177000  0.02115000  1
  C  C797  1  0.28277000  0.91823000  0.52115000  1
  C  C798  1  0.28348000  0.50648000  0.12328000  1
  C  C799  1  0.28348000  0.99352000  0.62328000  1
  C  C800  1  0.28666000  0.66921000  0.46766000  1
  C  C801  1  0.28666000  0.83079000  0.96766000  1
  C  C802  1  0.28772000  0.52558000  0.08951000  1
  C  C803  1  0.28772000  0.97442000  0.58951000  1
  C  C804  1  0.29866000  0.63246000  0.46509000  1
  C  C805  1  0.29866000  0.86754000  0.96509000  1
  C  C806  1  0.30225000  0.15847000  0.51102000  1
  C  C807  1  0.30225000  0.34153000  0.01102000  1
  C  C808  1  0.30235000  0.62265000  0.96868000  1
  C  C809  1  0.30235000  0.87735000  0.46868000  1
  C  C810  1  0.30345000  0.55262000  0.69489000  1
  C  C811  1  0.30345000  0.94738000  0.19489000  1
  C  C812  1  0.30368000  0.13144000  0.57193000  1
  C  C813  1  0.30368000  0.36856000  0.07193000  1
  C  C814  1  0.30511000  0.69655000  0.44738000  1
  C  C815  1  0.30511000  0.80345000  0.94738000  1
  C  C816  1  0.30912000  0.02353000  0.63325000  1
  C  C817  1  0.30912000  0.47647000  0.13325000  1
  C  C818  1  0.31086000  0.57894000  0.77924000  1
  C  C819  1  0.31086000  0.92106000  0.27924000  1
  C  C820  1  0.31202000  0.16889000  0.47564000  1
  C  C821  1  0.31202000  0.33111000  0.97564000  1
  C  C822  1  0.31227000  0.18690000  0.40110000  1
  C  C823  1  0.31227000  0.31310000  0.90110000  1
  C  C824  1  0.31310000  0.59890000  0.81227000  1
  C  C825  1  0.31310000  0.90110000  0.31227000  1
  C  C826  1  0.31315000  0.57755000  0.66700000  1
  C  C827  1  0.31315000  0.92245000  0.16700000  1
  C  C828  1  0.31950000  0.14184000  0.11602000  1
  C  C829  1  0.31950000  0.35816000  0.61602000  1
  C  C830  1  0.32011000  0.54144000  0.77969000  1
  C  C831  1  0.32011000  0.95856000  0.27969000  1
  C  C832  1  0.32066000  0.10465000  0.10544000  1
  C  C833  1  0.32066000  0.39535000  0.60544000  1
  C  C834  1  0.32262000  0.14195000  0.53936000  1
  C  C835  1  0.32262000  0.35805000  0.03936000  1
  C  C836  1  0.32302000  0.11083000  0.60153000  1
  C  C837  1  0.32302000  0.38917000  0.10153000  1
  C  C838  1  0.32591000  0.58202000  0.84519000  1
  C  C839  1  0.32591000  0.91798000  0.34519000  1
  C  C840  1  0.32597000  0.62258000  0.43973000  1
  C  C841  1  0.32597000  0.87742000  0.93973000  1
  C  C842  1  0.33079000  0.53234000  0.71334000  1
  C  C843  1  0.33079000  0.96766000  0.21334000  1
  C  C844  1  0.33111000  0.52436000  0.81202000  1
  C  C845  1  0.33111000  0.97564000  0.31202000  1
  C  C846  1  0.33300000  0.68685000  0.42245000  1
  C  C847  1  0.33300000  0.81315000  0.92245000  1
  C  C848  1  0.33370000  0.60567000  0.87745000  1
  C  C849  1  0.33370000  0.89433000  0.37745000  1
  C  C850  1  0.33485000  0.54390000  0.84518000  1
  C  C851  1  0.33485000  0.95610000  0.34518000  1
  C  C852  1  0.33671000  0.01349000  0.26443000  1
  C  C853  1  0.33671000  0.48651000  0.76443000  1
  C  C854  1  0.34138000  0.63170000  0.35047000  1
  C  C855  1  0.34138000  0.86830000  0.85047000  1
  C  C856  1  0.34153000  0.01102000  0.30225000  1
  C  C857  1  0.34153000  0.48898000  0.80225000  1
  C  C858  1  0.34215000  0.64942000  0.41667000  1
  C  C859  1  0.34215000  0.85058000  0.91667000  1
  C  C860  1  0.34518000  0.16515000  0.45610000  1
  C  C861  1  0.34518000  0.33485000  0.95610000  1
  C  C862  1  0.34519000  0.17409000  0.41798000  1
  C  C863  1  0.34519000  0.32591000  0.91798000  1
  C  C864  1  0.34681000  0.04527000  0.24509000  1
  C  C865  1  0.34681000  0.45473000  0.74509000  1
  C  C866  1  0.35047000  0.15862000  0.13170000  1
  C  C867  1  0.35047000  0.34138000  0.63170000  1
  C  C868  1  0.35058000  0.58333000  0.65785000  1
  C  C869  1  0.35058000  0.91667000  0.15785000  1
  C  C870  1  0.35264000  0.08390000  0.11208000  1
  C  C871  1  0.35264000  0.41610000  0.61208000  1
  C  C872  1  0.35272000  0.74611000  0.01585000  1
  C  C873  1  0.35272000  0.75389000  0.51585000  1
  C  C874  1  0.35805000  0.03936000  0.32262000  1
  C  C875  1  0.35805000  0.46064000  0.82262000  1
  C  C876  1  0.35816000  0.61602000  0.31950000  1
  C  C877  1  0.35816000  0.88398000  0.81950000  1
  C  C878  1  0.36161000  0.63743000  0.38325000  1
  C  C879  1  0.36161000  0.86257000  0.88325000  1
  C  C880  1  0.36221000  0.07480000  0.26505000  1
  C  C881  1  0.36221000  0.42520000  0.76505000  1
  C  C882  1  0.36257000  0.61675000  0.63839000  1
  C  C883  1  0.36257000  0.88325000  0.13839000  1
  C  C884  1  0.36264000  0.72791000  0.54291000  1
  C  C885  1  0.36264000  0.77209000  0.04291000  1
  C  C886  1  0.36675000  0.69088000  0.97647000  1
  C  C887  1  0.36675000  0.80912000  0.47647000  1
  C  C888  1  0.36735000  0.50226000  0.25761000  1
  C  C889  1  0.36735000  0.99774000  0.75761000  1
  C  C890  1  0.36754000  0.53491000  0.70134000  1
  C  C891  1  0.36754000  0.96509000  0.20134000  1
  C  C892  1  0.36830000  0.64953000  0.65862000  1
  C  C893  1  0.36830000  0.85047000  0.15862000  1
  C  C894  1  0.36856000  0.07193000  0.30368000  1
  C  C895  1  0.36856000  0.42807000  0.80368000  1
  C  C896  1  0.37175000  0.61639000  0.60052000  1
  C  C897  1  0.37175000  0.88361000  0.10052000  1
  C  C898  1  0.37432000  0.53232000  0.28135000  1
  C  C899  1  0.37432000  0.96768000  0.78135000  1
  C  C900  1  0.37672000  0.71652000  0.00648000  1
  C  C901  1  0.37672000  0.78348000  0.50648000  1
  C  C902  1  0.37735000  0.03132000  0.69765000  1
  C  C903  1  0.37735000  0.46868000  0.19765000  1
  C  C904  1  0.37742000  0.56027000  0.67403000  1
  C  C905  1  0.37742000  0.93973000  0.17403000  1
  C  C906  1  0.37745000  0.16630000  0.39433000  1
  C  C907  1  0.37745000  0.33370000  0.89433000  1
  C  C908  1  0.38325000  0.13839000  0.13743000  1
  C  C909  1  0.38325000  0.36161000  0.63743000  1
  C  C910  1  0.38361000  0.10052000  0.12825000  1
  C  C911  1  0.38361000  0.39948000  0.62825000  1
  C  C912  1  0.38398000  0.68050000  0.64184000  1
  C  C913  1  0.38398000  0.81950000  0.14184000  1
  C  C914  1  0.38792000  0.64736000  0.58390000  1
  C  C915  1  0.38792000  0.85264000  0.08390000  1
  C  C916  1  0.38873000  0.00323000  0.72507000  1
  C  C917  1  0.38873000  0.49677000  0.22507000  1
  C  C918  1  0.38917000  0.10153000  0.32302000  1
  C  C919  1  0.38917000  0.39847000  0.82302000  1
  C  C920  1  0.39433000  0.12255000  0.66630000  1
  C  C921  1  0.39433000  0.37745000  0.16630000  1
  C  C922  1  0.39456000  0.67934000  0.60465000  1
  C  C923  1  0.39456000  0.82066000  0.10465000  1
  C  C924  1  0.39535000  0.60544000  0.32066000  1
  C  C925  1  0.39535000  0.89456000  0.82066000  1
  C  C926  1  0.39661000  0.73227000  0.56063000  1
  C  C927  1  0.39661000  0.76773000  0.06063000  1
  C  C928  1  0.39847000  0.67698000  0.88917000  1
  C  C929  1  0.39847000  0.82302000  0.38917000  1
  C  C930  1  0.39948000  0.62825000  0.38361000  1
  C  C931  1  0.39948000  0.87175000  0.88361000  1
  C  C932  1  0.40110000  0.18773000  0.68690000  1
  C  C933  1  0.40110000  0.31227000  0.18690000  1
  C  C934  1  0.40311000  0.55639000  0.27234000  1
  C  C935  1  0.40311000  0.94361000  0.77234000  1
  C  C936  1  0.41049000  0.71228000  0.02558000  1
  C  C937  1  0.41049000  0.78772000  0.52558000  1
  C  C938  1  0.41610000  0.61208000  0.35264000  1
  C  C939  1  0.41610000  0.88792000  0.85264000  1
  C  C940  1  0.41667000  0.15785000  0.14942000  1
  C  C941  1  0.41667000  0.34215000  0.64942000  1
  C  C942  1  0.41798000  0.15481000  0.67409000  1
  C  C943  1  0.41798000  0.34519000  0.17409000  1
  C  C944  1  0.41823000  0.52115000  0.21723000  1
  C  C945  1  0.41823000  0.97885000  0.71723000  1
  C  C946  1  0.41958000  0.73850000  0.05221000  1
  C  C947  1  0.41958000  0.76150000  0.55221000  1
  C  C948  1  0.42106000  0.22076000  0.68914000  1
  C  C949  1  0.42106000  0.27924000  0.18914000  1
  C  C950  1  0.42245000  0.16700000  0.18685000  1
  C  C951  1  0.42245000  0.33300000  0.68685000  1
  C  C952  1  0.42445000  0.55054000  0.24127000  1
  C  C953  1  0.42445000  0.94946000  0.74127000  1
  C  C954  1  0.42520000  0.73495000  0.86221000  1
  C  C955  1  0.42520000  0.76505000  0.36221000  1
  C  C956  1  0.42807000  0.69632000  0.86856000  1
  C  C957  1  0.42807000  0.80368000  0.36856000  1
  C  C958  1  0.43937000  0.60339000  0.26773000  1
  C  C959  1  0.43937000  0.89661000  0.76773000  1
  C  C960  1  0.43973000  0.17403000  0.12258000  1
  C  C961  1  0.43973000  0.32597000  0.62258000  1
  C  C962  1  0.44361000  0.72766000  0.59689000  1
  C  C963  1  0.44361000  0.77234000  0.09689000  1
  C  C964  1  0.44738000  0.19489000  0.19655000  1
  C  C965  1  0.44738000  0.30511000  0.69655000  1
  C  C966  1  0.44779000  0.58042000  0.23850000  1
  C  C967  1  0.44779000  0.91958000  0.73850000  1
  C  C968  1  0.44946000  0.74127000  0.07555000  1
  C  C969  1  0.44946000  0.75873000  0.57555000  1
  C  C970  1  0.45473000  0.74509000  0.34681000  1
  C  C971  1  0.45473000  0.75491000  0.84681000  1
  C  C972  1  0.45610000  0.15482000  0.66515000  1
  C  C973  1  0.45610000  0.34518000  0.16515000  1
  C  C974  1  0.45709000  0.63736000  0.27209000  1
  C  C975  1  0.45709000  0.86264000  0.77209000  1
  C  C976  1  0.45856000  0.22031000  0.67989000  1
  C  C977  1  0.45856000  0.27969000  0.17989000  1
  C  C978  1  0.46064000  0.67738000  0.85805000  1
  C  C979  1  0.46064000  0.82262000  0.35805000  1
  C  C980  1  0.46509000  0.20134000  0.13246000  1
  C  C981  1  0.46509000  0.29866000  0.63246000  1
  C  C982  1  0.46766000  0.21334000  0.16921000  1
  C  C983  1  0.46766000  0.28666000  0.66921000  1
  C  C984  1  0.46768000  0.71865000  0.62568000  1
  C  C985  1  0.46768000  0.78135000  0.12568000  1
  C  C986  1  0.46868000  0.19765000  0.37735000  1
  C  C987  1  0.46868000  0.30235000  0.87735000  1
  C  C988  1  0.47442000  0.58951000  0.21228000  1
  C  C989  1  0.47442000  0.91049000  0.71228000  1
  C  C990  1  0.47564000  0.18798000  0.66889000  1
  C  C991  1  0.47564000  0.31202000  0.16889000  1
  C  C992  1  0.47647000  0.13325000  0.30912000  1
  C  C993  1  0.47647000  0.36675000  0.80912000  1
  C  C994  1  0.47885000  0.71723000  0.08177000  1
  C  C995  1  0.47885000  0.78277000  0.58177000  1
  C  C996  1  0.48415000  0.64728000  0.24611000  1
  C  C997  1  0.48415000  0.85272000  0.74611000  1
  C  C998  1  0.48651000  0.73557000  0.83671000  1
  C  C999  1  0.48651000  0.76443000  0.33671000  1
  C  C1000  1  0.48898000  0.69775000  0.84153000  1
  C  C1001  1  0.48898000  0.80225000  0.34153000  1
  C  C1002  1  0.49352000  0.62328000  0.21652000  1
  C  C1003  1  0.49352000  0.87672000  0.71652000  1
  C  C1004  1  0.49677000  0.22507000  0.38873000  1
  C  C1005  1  0.49677000  0.27493000  0.88873000  1
  C  C1006  1  0.49774000  0.74239000  0.63265000  1
  C  C1007  1  0.49774000  0.75761000  0.13265000  1
  C  C1008  1  0.50226000  0.24239000  0.86735000  1
  C  C1009  1  0.50226000  0.25761000  0.36735000  1
  C  C1010  1  0.50323000  0.72507000  0.11127000  1
  C  C1011  1  0.50323000  0.77493000  0.61127000  1
  C  C1012  1  0.50648000  0.12328000  0.28348000  1
  C  C1013  1  0.50648000  0.37672000  0.78348000  1
  C  C1014  1  0.51102000  0.19775000  0.65847000  1
  C  C1015  1  0.51102000  0.30225000  0.15847000  1
  C  C1016  1  0.51349000  0.23557000  0.66329000  1
  C  C1017  1  0.51349000  0.26443000  0.16329000  1
  C  C1018  1  0.51585000  0.14728000  0.25389000  1
  C  C1019  1  0.51585000  0.35272000  0.75389000  1
  C  C1020  1  0.52115000  0.21723000  0.41823000  1
  C  C1021  1  0.52115000  0.28277000  0.91823000  1
  C  C1022  1  0.52353000  0.63325000  0.19088000  1
  C  C1023  1  0.52353000  0.86675000  0.69088000  1
  C  C1024  1  0.52436000  0.68798000  0.83111000  1
  C  C1025  1  0.52436000  0.81202000  0.33111000  1
  C  C1026  1  0.52558000  0.08951000  0.28772000  1
  C  C1027  1  0.52558000  0.41049000  0.78772000  1
  C  C1028  1  0.53132000  0.69765000  0.12265000  1
  C  C1029  1  0.53132000  0.80235000  0.62265000  1
  C  C1030  1  0.53232000  0.21865000  0.87432000  1
  C  C1031  1  0.53232000  0.28135000  0.37432000  1
  C  C1032  1  0.53234000  0.71334000  0.33079000  1
  C  C1033  1  0.53234000  0.78666000  0.83079000  1
  C  C1034  1  0.53491000  0.70134000  0.36754000  1
  C  C1035  1  0.53491000  0.79866000  0.86754000  1
  C  C1036  1  0.53936000  0.17738000  0.64195000  1
  C  C1037  1  0.53936000  0.32262000  0.14195000  1
  C  C1038  1  0.54144000  0.72031000  0.82011000  1
  C  C1039  1  0.54144000  0.77969000  0.32011000  1
  C  C1040  1  0.54291000  0.13736000  0.22791000  1
  C  C1041  1  0.54291000  0.36264000  0.72791000  1
  C  C1042  1  0.54390000  0.65482000  0.83485000  1
  C  C1043  1  0.54390000  0.84518000  0.33485000  1
  C  C1044  1  0.54527000  0.24509000  0.15319000  1
  C  C1045  1  0.54527000  0.25491000  0.65319000  1
  C  C1046  1  0.55054000  0.24127000  0.42445000  1
  C  C1047  1  0.55054000  0.25873000  0.92445000  1
  C  C1048  1  0.55221000  0.08042000  0.26150000  1
  C  C1049  1  0.55221000  0.41958000  0.76150000  1
  C  C1050  1  0.55262000  0.69489000  0.30345000  1
  C  C1051  1  0.55262000  0.80511000  0.80345000  1
  C  C1052  1  0.55639000  0.22766000  0.90311000  1
  C  C1053  1  0.55639000  0.27234000  0.40311000  1
  C  C1054  1  0.56027000  0.67403000  0.37742000  1
  C  C1055  1  0.56027000  0.82597000  0.87742000  1
  C  C1056  1  0.56063000  0.10339000  0.23227000  1
  C  C1057  1  0.56063000  0.39661000  0.73227000  1
  C  C1058  1  0.57193000  0.19632000  0.63144000  1
  C  C1059  1  0.57193000  0.30368000  0.13144000  1
  C  C1060  1  0.57480000  0.23495000  0.63779000  1
  C  C1061  1  0.57480000  0.26505000  0.13779000  1
  C  C1062  1  0.57555000  0.05054000  0.25873000  1
  C  C1063  1  0.57555000  0.44946000  0.75873000  1
  C  C1064  1  0.57755000  0.66700000  0.31315000  1
  C  C1065  1  0.57755000  0.83300000  0.81315000  1
  C  C1066  1  0.57894000  0.72076000  0.81086000  1
  C  C1067  1  0.57894000  0.77924000  0.31086000  1
  C  C1068  1  0.58042000  0.23850000  0.44779000  1
  C  C1069  1  0.58042000  0.26150000  0.94779000  1
  C  C1070  1  0.58177000  0.02115000  0.28277000  1
  C  C1071  1  0.58177000  0.47885000  0.78277000  1
  C  C1072  1  0.58202000  0.65481000  0.82591000  1
  C  C1073  1  0.58202000  0.84519000  0.32591000  1
  C  C1074  1  0.58333000  0.65785000  0.35058000  1
  C  C1075  1  0.58333000  0.84215000  0.85058000  1
  C  C1076  1  0.58390000  0.11208000  0.14736000  1
  C  C1077  1  0.58390000  0.38792000  0.64736000  1
  C  C1078  1  0.58951000  0.21228000  0.47442000  1
  C  C1079  1  0.58951000  0.28772000  0.97442000  1
  C  C1080  1  0.59689000  0.05639000  0.22766000  1
  C  C1081  1  0.59689000  0.44361000  0.72766000  1
  C  C1082  1  0.59890000  0.68773000  0.81310000  1
  C  C1083  1  0.59890000  0.81227000  0.31310000  1
  C  C1084  1  0.60052000  0.12825000  0.11639000  1
  C  C1085  1  0.60052000  0.37175000  0.61639000  1
  C  C1086  1  0.60153000  0.17698000  0.61083000  1
  C  C1087  1  0.60153000  0.32302000  0.11083000  1
  C  C1088  1  0.60339000  0.23227000  0.93937000  1
  C  C1089  1  0.60339000  0.26773000  0.43937000  1
  C  C1090  1  0.60465000  0.10544000  0.17934000  1
  C  C1091  1  0.60465000  0.39456000  0.67934000  1
  C  C1092  1  0.60544000  0.17934000  0.89535000  1
  C  C1093  1  0.60544000  0.32066000  0.39535000  1
  C  C1094  1  0.60567000  0.62255000  0.83370000  1
  C  C1095  1  0.60567000  0.87745000  0.33370000  1
  C  C1096  1  0.61083000  0.60153000  0.17698000  1
  C  C1097  1  0.61083000  0.89847000  0.67698000  1
  C  C1098  1  0.61127000  0.50323000  0.77493000  1
  C  C1099  1  0.61127000  0.99677000  0.27493000  1
  C  C1100  1  0.61208000  0.14736000  0.91610000  1
  C  C1101  1  0.61208000  0.35264000  0.41610000  1
  C  C1102  1  0.61602000  0.18050000  0.85816000  1
  C  C1103  1  0.61602000  0.31950000  0.35816000  1
  C  C1104  1  0.61639000  0.60052000  0.37175000  1
  C  C1105  1  0.61639000  0.89948000  0.87175000  1
  C  C1106  1  0.61675000  0.63839000  0.36257000  1
  C  C1107  1  0.61675000  0.86161000  0.86257000  1
  C  C1108  1  0.62255000  0.66630000  0.10567000  1
  C  C1109  1  0.62255000  0.83370000  0.60567000  1
  C  C1110  1  0.62258000  0.06027000  0.82597000  1
  C  C1111  1  0.62258000  0.43973000  0.32597000  1
  C  C1112  1  0.62265000  0.53132000  0.80235000  1
  C  C1113  1  0.62265000  0.96868000  0.30235000  1
  C  C1114  1  0.62328000  0.21652000  0.49352000  1
  C  C1115  1  0.62328000  0.28348000  0.99352000  1
  C  C1116  1  0.62568000  0.03232000  0.21865000  1
  C  C1117  1  0.62568000  0.46768000  0.71865000  1
  C  C1118  1  0.62825000  0.11639000  0.89948000  1
  C  C1119  1  0.62825000  0.38361000  0.39948000  1
  C  C1120  1  0.63144000  0.57193000  0.19632000  1
  C  C1121  1  0.63144000  0.92807000  0.69632000  1
  C  C1122  1  0.63170000  0.14953000  0.84138000  1
  C  C1123  1  0.63170000  0.35047000  0.34138000  1
  C  C1124  1  0.63246000  0.03491000  0.79866000  1
  C  C1125  1  0.63246000  0.46509000  0.29866000  1
  C  C1126  1  0.63265000  0.00226000  0.24239000  1
  C  C1127  1  0.63265000  0.49774000  0.74239000  1
  C  C1128  1  0.63325000  0.19088000  0.52353000  1
  C  C1129  1  0.63325000  0.30912000  0.02353000  1
  C  C1130  1  0.63736000  0.22791000  0.95709000  1
  C  C1131  1  0.63736000  0.27209000  0.45709000  1
  C  C1132  1  0.63743000  0.11675000  0.86161000  1
  C  C1133  1  0.63743000  0.38325000  0.36161000  1
  C  C1134  1  0.63779000  0.57480000  0.23495000  1
  C  C1135  1  0.63779000  0.92520000  0.73495000  1
  C  C1136  1  0.63839000  0.13743000  0.11675000  1
  C  C1137  1  0.63839000  0.36257000  0.61675000  1
  C  C1138  1  0.64184000  0.11602000  0.18050000  1
  C  C1139  1  0.64184000  0.38398000  0.68050000  1
  C  C1140  1  0.64195000  0.53936000  0.17738000  1
  C  C1141  1  0.64195000  0.96064000  0.67738000  1
  C  C1142  1  0.64728000  0.24611000  0.48415000  1
  C  C1143  1  0.64728000  0.25389000  0.98415000  1
  C  C1144  1  0.64736000  0.58390000  0.38792000  1
  C  C1145  1  0.64736000  0.91610000  0.88792000  1
  C  C1146  1  0.64942000  0.08333000  0.84215000  1
  C  C1147  1  0.64942000  0.41667000  0.34215000  1
  C  C1148  1  0.64953000  0.65862000  0.36830000  1
  C  C1149  1  0.64953000  0.84138000  0.86830000  1
  C  C1150  1  0.65319000  0.54527000  0.25491000  1
  C  C1151  1  0.65319000  0.95473000  0.75491000  1
  C  C1152  1  0.65481000  0.67409000  0.08202000  1
  C  C1153  1  0.65481000  0.82591000  0.58202000  1
  C  C1154  1  0.65482000  0.66515000  0.04390000  1
  C  C1155  1  0.65482000  0.83485000  0.54390000  1
  C  C1156  1  0.65785000  0.14942000  0.08333000  1
  C  C1157  1  0.65785000  0.35058000  0.58333000  1
  C  C1158  1  0.65847000  0.51102000  0.19775000  1
  C  C1159  1  0.65847000  0.98898000  0.69775000  1
  C  C1160  1  0.65862000  0.13170000  0.14953000  1
  C  C1161  1  0.65862000  0.36830000  0.64953000  1
  C  C1162  1  0.66329000  0.51349000  0.23557000  1
  C  C1163  1  0.66329000  0.98651000  0.73557000  1
  C  C1164  1  0.66515000  0.04390000  0.65482000  1
  C  C1165  1  0.66515000  0.45610000  0.15482000  1
  C  C1166  1  0.66630000  0.10567000  0.62255000  1
  C  C1167  1  0.66630000  0.39433000  0.12255000  1
  C  C1168  1  0.66700000  0.18685000  0.07755000  1
  C  C1169  1  0.66700000  0.31315000  0.57755000  1
  C  C1170  1  0.66889000  0.02436000  0.68798000  1
  C  C1171  1  0.66889000  0.47564000  0.18798000  1
  C  C1172  1  0.66921000  0.03234000  0.78666000  1
  C  C1173  1  0.66921000  0.46766000  0.28666000  1
  C  C1174  1  0.67403000  0.12258000  0.06027000  1
  C  C1175  1  0.67403000  0.37742000  0.56027000  1
  C  C1176  1  0.67409000  0.08202000  0.65481000  1
  C  C1177  1  0.67409000  0.41798000  0.15481000  1
  C  C1178  1  0.67698000  0.61083000  0.89847000  1
  C  C1179  1  0.67698000  0.88917000  0.39847000  1
  C  C1180  1  0.67738000  0.64195000  0.96064000  1
  C  C1181  1  0.67738000  0.85805000  0.46064000  1
  C  C1182  1  0.67934000  0.60465000  0.39456000  1
  C  C1183  1  0.67934000  0.89535000  0.89456000  1
  C  C1184  1  0.67989000  0.04144000  0.72031000  1
  C  C1185  1  0.67989000  0.45856000  0.22031000  1
  C  C1186  1  0.68050000  0.64184000  0.38398000  1
  C  C1187  1  0.68050000  0.85816000  0.88398000  1
  C  C1188  1  0.68685000  0.07755000  0.83300000  1
  C  C1189  1  0.68685000  0.42245000  0.33300000  1
  C  C1190  1  0.68690000  0.09890000  0.68773000  1
  C  C1191  1  0.68690000  0.40110000  0.18773000  1
  C  C1192  1  0.68773000  0.68690000  0.09890000  1
  C  C1193  1  0.68773000  0.81310000  0.59890000  1
  C  C1194  1  0.68798000  0.66889000  0.02436000  1
  C  C1195  1  0.68798000  0.83111000  0.52436000  1
  C  C1196  1  0.68914000  0.07894000  0.72076000  1
  C  C1197  1  0.68914000  0.42106000  0.22076000  1
  C  C1198  1  0.69088000  0.52353000  0.86675000  1
  C  C1199  1  0.69088000  0.97647000  0.36675000  1
  C  C1200  1  0.69489000  0.19655000  0.05262000  1
  C  C1201  1  0.69489000  0.30345000  0.55262000  1
  C  C1202  1  0.69632000  0.63144000  0.92807000  1
  C  C1203  1  0.69632000  0.86856000  0.42807000  1
  C  C1204  1  0.69655000  0.05262000  0.80511000  1
  C  C1205  1  0.69655000  0.44738000  0.30511000  1
  C  C1206  1  0.69765000  0.12265000  0.53132000  1
  C  C1207  1  0.69765000  0.37735000  0.03132000  1
  C  C1208  1  0.69775000  0.65847000  0.98898000  1
  C  C1209  1  0.69775000  0.84153000  0.48898000  1
  C  C1210  1  0.70134000  0.13246000  0.03491000  1
  C  C1211  1  0.70134000  0.36754000  0.53491000  1
  C  C1212  1  0.71228000  0.02558000  0.41049000  1
  C  C1213  1  0.71228000  0.47442000  0.91049000  1
  C  C1214  1  0.71334000  0.16921000  0.03234000  1
  C  C1215  1  0.71334000  0.33079000  0.53234000  1
  C  C1216  1  0.71652000  0.00648000  0.37672000  1
  C  C1217  1  0.71652000  0.49352000  0.87672000  1
  C  C1218  1  0.71723000  0.08177000  0.47885000  1
  C  C1219  1  0.71723000  0.41823000  0.97885000  1
  C  C1220  1  0.71865000  0.62568000  0.46768000  1
  C  C1221  1  0.71865000  0.87432000  0.96768000  1
  C  C1222  1  0.72031000  0.67989000  0.04144000  1
  C  C1223  1  0.72031000  0.82011000  0.54144000  1
  C  C1224  1  0.72076000  0.68914000  0.07894000  1
  C  C1225  1  0.72076000  0.81086000  0.57894000  1
  C  C1226  1  0.72507000  0.11127000  0.50323000  1
  C  C1227  1  0.72507000  0.38873000  0.00323000  1
  C  C1228  1  0.72766000  0.59689000  0.44361000  1
  C  C1229  1  0.72766000  0.90311000  0.94361000  1
  C  C1230  1  0.72791000  0.54291000  0.36264000  1
  C  C1231  1  0.72791000  0.95709000  0.86264000  1
  C  C1232  1  0.73227000  0.56063000  0.39661000  1
  C  C1233  1  0.73227000  0.93937000  0.89661000  1
  C  C1234  1  0.73495000  0.63779000  0.92520000  1
  C  C1235  1  0.73495000  0.86221000  0.42520000  1
  C  C1236  1  0.73557000  0.66329000  0.98651000  1
  C  C1237  1  0.73557000  0.83671000  0.48651000  1
  C  C1238  1  0.73850000  0.05221000  0.41958000  1
  C  C1239  1  0.73850000  0.44779000  0.91958000  1
  C  C1240  1  0.74127000  0.07555000  0.44946000  1
  C  C1241  1  0.74127000  0.42445000  0.94946000  1
  C  C1242  1  0.74239000  0.63265000  0.49774000  1
  C  C1243  1  0.74239000  0.86735000  0.99774000  1
  C  C1244  1  0.74509000  0.15319000  0.95473000  1
  C  C1245  1  0.74509000  0.34681000  0.45473000  1
  C  C1246  1  0.74611000  0.01585000  0.35272000  1
  C  C1247  1  0.74611000  0.48415000  0.85272000  1
  C  C1248  1  0.75389000  0.51585000  0.35272000  1
  C  C1249  1  0.75389000  0.98415000  0.85272000  1
  C  C1250  1  0.75491000  0.65319000  0.95473000  1
  C  C1251  1  0.75491000  0.84681000  0.45473000  1
  C  C1252  1  0.75761000  0.13265000  0.49774000  1
  C  C1253  1  0.75761000  0.36735000  0.99774000  1
  C  C1254  1  0.75873000  0.57555000  0.44946000  1
  C  C1255  1  0.75873000  0.92445000  0.94946000  1
  C  C1256  1  0.76150000  0.55221000  0.41958000  1
  C  C1257  1  0.76150000  0.94779000  0.91958000  1
  C  C1258  1  0.76443000  0.16329000  0.98651000  1
  C  C1259  1  0.76443000  0.33671000  0.48651000  1
  C  C1260  1  0.76505000  0.13779000  0.92520000  1
  C  C1261  1  0.76505000  0.36221000  0.42520000  1
  C  C1262  1  0.76773000  0.06063000  0.39661000  1
  C  C1263  1  0.76773000  0.43937000  0.89661000  1
  C  C1264  1  0.77209000  0.04291000  0.36264000  1
  C  C1265  1  0.77209000  0.45709000  0.86264000  1
  C  C1266  1  0.77234000  0.09689000  0.44361000  1
  C  C1267  1  0.77234000  0.40311000  0.94361000  1
  C  C1268  1  0.77493000  0.61127000  0.50323000  1
  C  C1269  1  0.77493000  0.88873000  0.00323000  1
  C  C1270  1  0.77924000  0.18914000  0.07894000  1
  C  C1271  1  0.77924000  0.31086000  0.57894000  1
  C  C1272  1  0.77969000  0.17989000  0.04144000  1
  C  C1273  1  0.77969000  0.32011000  0.54144000  1
  C  C1274  1  0.78135000  0.12568000  0.46768000  1
  C  C1275  1  0.78135000  0.37432000  0.96768000  1
  C  C1276  1  0.78277000  0.58177000  0.47885000  1
  C  C1277  1  0.78277000  0.91823000  0.97885000  1
  C  C1278  1  0.78348000  0.50648000  0.37672000  1
  C  C1279  1  0.78348000  0.99352000  0.87672000  1
  C  C1280  1  0.78666000  0.66921000  0.03234000  1
  C  C1281  1  0.78666000  0.83079000  0.53234000  1
  C  C1282  1  0.78772000  0.52558000  0.41049000  1
  C  C1283  1  0.78772000  0.97442000  0.91049000  1
  C  C1284  1  0.79866000  0.63246000  0.03491000  1
  C  C1285  1  0.79866000  0.86754000  0.53491000  1
  C  C1286  1  0.80225000  0.15847000  0.98898000  1
  C  C1287  1  0.80225000  0.34153000  0.48898000  1
  C  C1288  1  0.80235000  0.62265000  0.53132000  1
  C  C1289  1  0.80235000  0.87735000  0.03132000  1
  C  C1290  1  0.80345000  0.55262000  0.80511000  1
  C  C1291  1  0.80345000  0.94738000  0.30511000  1
  C  C1292  1  0.80368000  0.13144000  0.92807000  1
  C  C1293  1  0.80368000  0.36856000  0.42807000  1
  C  C1294  1  0.80511000  0.69655000  0.05262000  1
  C  C1295  1  0.80511000  0.80345000  0.55262000  1
  C  C1296  1  0.80912000  0.02353000  0.86675000  1
  C  C1297  1  0.80912000  0.47647000  0.36675000  1
  C  C1298  1  0.81086000  0.57894000  0.72076000  1
  C  C1299  1  0.81086000  0.92106000  0.22076000  1
  C  C1300  1  0.81202000  0.16889000  0.02436000  1
  C  C1301  1  0.81202000  0.33111000  0.52436000  1
  C  C1302  1  0.81227000  0.18690000  0.09890000  1
  C  C1303  1  0.81227000  0.31310000  0.59890000  1
  C  C1304  1  0.81310000  0.59890000  0.68773000  1
  C  C1305  1  0.81310000  0.90110000  0.18773000  1
  C  C1306  1  0.81315000  0.57755000  0.83300000  1
  C  C1307  1  0.81315000  0.92245000  0.33300000  1
  C  C1308  1  0.81950000  0.14184000  0.38398000  1
  C  C1309  1  0.81950000  0.35816000  0.88398000  1
  C  C1310  1  0.82011000  0.54144000  0.72031000  1
  C  C1311  1  0.82011000  0.95856000  0.22031000  1
  C  C1312  1  0.82066000  0.10465000  0.39456000  1
  C  C1313  1  0.82066000  0.39535000  0.89456000  1
  C  C1314  1  0.82262000  0.14195000  0.96064000  1
  C  C1315  1  0.82262000  0.35805000  0.46064000  1
  C  C1316  1  0.82302000  0.11083000  0.89847000  1
  C  C1317  1  0.82302000  0.38917000  0.39847000  1
  C  C1318  1  0.82591000  0.58202000  0.65481000  1
  C  C1319  1  0.82591000  0.91798000  0.15481000  1
  C  C1320  1  0.82597000  0.62258000  0.06027000  1
  C  C1321  1  0.82597000  0.87742000  0.56027000  1
  C  C1322  1  0.83079000  0.53234000  0.78666000  1
  C  C1323  1  0.83079000  0.96766000  0.28666000  1
  C  C1324  1  0.83111000  0.52436000  0.68798000  1
  C  C1325  1  0.83111000  0.97564000  0.18798000  1
  C  C1326  1  0.83300000  0.68685000  0.07755000  1
  C  C1327  1  0.83300000  0.81315000  0.57755000  1
  C  C1328  1  0.83370000  0.60567000  0.62255000  1
  C  C1329  1  0.83370000  0.89433000  0.12255000  1
  C  C1330  1  0.83485000  0.54390000  0.65482000  1
  C  C1331  1  0.83485000  0.95610000  0.15482000  1
  C  C1332  1  0.83671000  0.01349000  0.23557000  1
  C  C1333  1  0.83671000  0.48651000  0.73557000  1
  C  C1334  1  0.84138000  0.63170000  0.14953000  1
  C  C1335  1  0.84138000  0.86830000  0.64953000  1
  C  C1336  1  0.84153000  0.01102000  0.19775000  1
  C  C1337  1  0.84153000  0.48898000  0.69775000  1
  C  C1338  1  0.84215000  0.64942000  0.08333000  1
  C  C1339  1  0.84215000  0.85058000  0.58333000  1
  C  C1340  1  0.84518000  0.16515000  0.04390000  1
  C  C1341  1  0.84518000  0.33485000  0.54390000  1
  C  C1342  1  0.84519000  0.17409000  0.08202000  1
  C  C1343  1  0.84519000  0.32591000  0.58202000  1
  C  C1344  1  0.84681000  0.04527000  0.25491000  1
  C  C1345  1  0.84681000  0.45473000  0.75491000  1
  C  C1346  1  0.85047000  0.15862000  0.36830000  1
  C  C1347  1  0.85047000  0.34138000  0.86830000  1
  C  C1348  1  0.85058000  0.58333000  0.84215000  1
  C  C1349  1  0.85058000  0.91667000  0.34215000  1
  C  C1350  1  0.85264000  0.08390000  0.38792000  1
  C  C1351  1  0.85264000  0.41610000  0.88792000  1
  C  C1352  1  0.85272000  0.74611000  0.48415000  1
  C  C1353  1  0.85272000  0.75389000  0.98415000  1
  C  C1354  1  0.85805000  0.03936000  0.17738000  1
  C  C1355  1  0.85805000  0.46064000  0.67738000  1
  C  C1356  1  0.85816000  0.61602000  0.18050000  1
  C  C1357  1  0.85816000  0.88398000  0.68050000  1
  C  C1358  1  0.86161000  0.63743000  0.11675000  1
  C  C1359  1  0.86161000  0.86257000  0.61675000  1
  C  C1360  1  0.86221000  0.07480000  0.23495000  1
  C  C1361  1  0.86221000  0.42520000  0.73495000  1
  C  C1362  1  0.86257000  0.61675000  0.86161000  1
  C  C1363  1  0.86257000  0.88325000  0.36161000  1
  C  C1364  1  0.86264000  0.72791000  0.95709000  1
  C  C1365  1  0.86264000  0.77209000  0.45709000  1
  C  C1366  1  0.86675000  0.69088000  0.52353000  1
  C  C1367  1  0.86675000  0.80912000  0.02353000  1
  C  C1368  1  0.86735000  0.50226000  0.24239000  1
  C  C1369  1  0.86735000  0.99774000  0.74239000  1
  C  C1370  1  0.86754000  0.53491000  0.79866000  1
  C  C1371  1  0.86754000  0.96509000  0.29866000  1
  C  C1372  1  0.86830000  0.64953000  0.84138000  1
  C  C1373  1  0.86830000  0.85047000  0.34138000  1
  C  C1374  1  0.86856000  0.07193000  0.19632000  1
  C  C1375  1  0.86856000  0.42807000  0.69632000  1
  C  C1376  1  0.87175000  0.61639000  0.89948000  1
  C  C1377  1  0.87175000  0.88361000  0.39948000  1
  C  C1378  1  0.87432000  0.53232000  0.21865000  1
  C  C1379  1  0.87432000  0.96768000  0.71865000  1
  C  C1380  1  0.87672000  0.71652000  0.49352000  1
  C  C1381  1  0.87672000  0.78348000  0.99352000  1
  C  C1382  1  0.87735000  0.03132000  0.80235000  1
  C  C1383  1  0.87735000  0.46868000  0.30235000  1
  C  C1384  1  0.87742000  0.56027000  0.82597000  1
  C  C1385  1  0.87742000  0.93973000  0.32597000  1
  C  C1386  1  0.87745000  0.16630000  0.10567000  1
  C  C1387  1  0.87745000  0.33370000  0.60567000  1
  C  C1388  1  0.88325000  0.13839000  0.36257000  1
  C  C1389  1  0.88325000  0.36161000  0.86257000  1
  C  C1390  1  0.88361000  0.10052000  0.37175000  1
  C  C1391  1  0.88361000  0.39948000  0.87175000  1
  C  C1392  1  0.88398000  0.68050000  0.85816000  1
  C  C1393  1  0.88398000  0.81950000  0.35816000  1
  C  C1394  1  0.88792000  0.64736000  0.91610000  1
  C  C1395  1  0.88792000  0.85264000  0.41610000  1
  C  C1396  1  0.88873000  0.00323000  0.77493000  1
  C  C1397  1  0.88873000  0.49677000  0.27493000  1
  C  C1398  1  0.88917000  0.10153000  0.17698000  1
  C  C1399  1  0.88917000  0.39847000  0.67698000  1
  C  C1400  1  0.89433000  0.12255000  0.83370000  1
  C  C1401  1  0.89433000  0.37745000  0.33370000  1
  C  C1402  1  0.89456000  0.67934000  0.89535000  1
  C  C1403  1  0.89456000  0.82066000  0.39535000  1
  C  C1404  1  0.89535000  0.60544000  0.17934000  1
  C  C1405  1  0.89535000  0.89456000  0.67934000  1
  C  C1406  1  0.89661000  0.73227000  0.93937000  1
  C  C1407  1  0.89661000  0.76773000  0.43937000  1
  C  C1408  1  0.89847000  0.67698000  0.61083000  1
  C  C1409  1  0.89847000  0.82302000  0.11083000  1
  C  C1410  1  0.89948000  0.62825000  0.11639000  1
  C  C1411  1  0.89948000  0.87175000  0.61639000  1
  C  C1412  1  0.90110000  0.18773000  0.81310000  1
  C  C1413  1  0.90110000  0.31227000  0.31310000  1
  C  C1414  1  0.90311000  0.55639000  0.22766000  1
  C  C1415  1  0.90311000  0.94361000  0.72766000  1
  C  C1416  1  0.91049000  0.71228000  0.47442000  1
  C  C1417  1  0.91049000  0.78772000  0.97442000  1
  C  C1418  1  0.91610000  0.61208000  0.14736000  1
  C  C1419  1  0.91610000  0.88792000  0.64736000  1
  C  C1420  1  0.91667000  0.15785000  0.35058000  1
  C  C1421  1  0.91667000  0.34215000  0.85058000  1
  C  C1422  1  0.91798000  0.15481000  0.82591000  1
  C  C1423  1  0.91798000  0.34519000  0.32591000  1
  C  C1424  1  0.91823000  0.52115000  0.28277000  1
  C  C1425  1  0.91823000  0.97885000  0.78277000  1
  C  C1426  1  0.91958000  0.73850000  0.44779000  1
  C  C1427  1  0.91958000  0.76150000  0.94779000  1
  C  C1428  1  0.92106000  0.22076000  0.81086000  1
  C  C1429  1  0.92106000  0.27924000  0.31086000  1
  C  C1430  1  0.92245000  0.16700000  0.31315000  1
  C  C1431  1  0.92245000  0.33300000  0.81315000  1
  C  C1432  1  0.92445000  0.55054000  0.25873000  1
  C  C1433  1  0.92445000  0.94946000  0.75873000  1
  C  C1434  1  0.92520000  0.73495000  0.63779000  1
  C  C1435  1  0.92520000  0.76505000  0.13779000  1
  C  C1436  1  0.92807000  0.69632000  0.63144000  1
  C  C1437  1  0.92807000  0.80368000  0.13144000  1
  C  C1438  1  0.93937000  0.60339000  0.23227000  1
  C  C1439  1  0.93937000  0.89661000  0.73227000  1
  C  C1440  1  0.93973000  0.17403000  0.37742000  1
  C  C1441  1  0.93973000  0.32597000  0.87742000  1
  C  C1442  1  0.94361000  0.72766000  0.90311000  1
  C  C1443  1  0.94361000  0.77234000  0.40311000  1
  C  C1444  1  0.94738000  0.19489000  0.30345000  1
  C  C1445  1  0.94738000  0.30511000  0.80345000  1
  C  C1446  1  0.94779000  0.58042000  0.26150000  1
  C  C1447  1  0.94779000  0.91958000  0.76150000  1
  C  C1448  1  0.94946000  0.74127000  0.42445000  1
  C  C1449  1  0.94946000  0.75873000  0.92445000  1
  C  C1450  1  0.95473000  0.74509000  0.15319000  1
  C  C1451  1  0.95473000  0.75491000  0.65319000  1
  C  C1452  1  0.95610000  0.15482000  0.83485000  1
  C  C1453  1  0.95610000  0.34518000  0.33485000  1
  C  C1454  1  0.95709000  0.63736000  0.22791000  1
  C  C1455  1  0.95709000  0.86264000  0.72791000  1
  C  C1456  1  0.95856000  0.22031000  0.82011000  1
  C  C1457  1  0.95856000  0.27969000  0.32011000  1
  C  C1458  1  0.96064000  0.67738000  0.64195000  1
  C  C1459  1  0.96064000  0.82262000  0.14195000  1
  C  C1460  1  0.96509000  0.20134000  0.36754000  1
  C  C1461  1  0.96509000  0.29866000  0.86754000  1
  C  C1462  1  0.96766000  0.21334000  0.33079000  1
  C  C1463  1  0.96766000  0.28666000  0.83079000  1
  C  C1464  1  0.96768000  0.71865000  0.87432000  1
  C  C1465  1  0.96768000  0.78135000  0.37432000  1
  C  C1466  1  0.96868000  0.19765000  0.12265000  1
  C  C1467  1  0.96868000  0.30235000  0.62265000  1
  C  C1468  1  0.97442000  0.58951000  0.28772000  1
  C  C1469  1  0.97442000  0.91049000  0.78772000  1
  C  C1470  1  0.97564000  0.18798000  0.83111000  1
  C  C1471  1  0.97564000  0.31202000  0.33111000  1
  C  C1472  1  0.97647000  0.13325000  0.19088000  1
  C  C1473  1  0.97647000  0.36675000  0.69088000  1
  C  C1474  1  0.97885000  0.71723000  0.41823000  1
  C  C1475  1  0.97885000  0.78277000  0.91823000  1
  C  C1476  1  0.98415000  0.64728000  0.25389000  1
  C  C1477  1  0.98415000  0.85272000  0.75389000  1
  C  C1478  1  0.98651000  0.73557000  0.66329000  1
  C  C1479  1  0.98651000  0.76443000  0.16329000  1
  C  C1480  1  0.98898000  0.69775000  0.65847000  1
  C  C1481  1  0.98898000  0.80225000  0.15847000  1
  C  C1482  1  0.99352000  0.62328000  0.28348000  1
  C  C1483  1  0.99352000  0.87672000  0.78348000  1
  C  C1484  1  0.99677000  0.22507000  0.11127000  1
  C  C1485  1  0.99677000  0.27493000  0.61127000  1
  C  C1486  1  0.99774000  0.74239000  0.86735000  1
  C  C1487  1  0.99774000  0.75761000  0.36735000  1
  N  N1488  1  0.01873000  0.74994000  0.67605000  1
  N  N1489  1  0.01873000  0.75006000  0.17605000  1
  N  N1490  1  0.08779000  0.08879000  0.28896000  1
  N  N1491  1  0.08779000  0.41121000  0.78896000  1
  N  N1492  1  0.08879000  0.21104000  0.58779000  1
  N  N1493  1  0.08879000  0.28896000  0.08779000  1
  N  N1494  1  0.17605000  0.01873000  0.75006000  1
  N  N1495  1  0.17605000  0.48127000  0.25006000  1
  N  N1496  1  0.21104000  0.58779000  0.08879000  1
  N  N1497  1  0.21104000  0.91221000  0.58879000  1
  N  N1498  1  0.24994000  0.67605000  0.48127000  1
  N  N1499  1  0.24994000  0.82395000  0.98127000  1
  N  N1500  1  0.25006000  0.17605000  0.48127000  1
  N  N1501  1  0.25006000  0.32395000  0.98127000  1
  N  N1502  1  0.28896000  0.08779000  0.08879000  1
  N  N1503  1  0.28896000  0.41221000  0.58879000  1
  N  N1504  1  0.32395000  0.51873000  0.75006000  1
  N  N1505  1  0.32395000  0.98127000  0.25006000  1
  N  N1506  1  0.41121000  0.71104000  0.58779000  1
  N  N1507  1  0.41121000  0.78896000  0.08779000  1
  N  N1508  1  0.41221000  0.58879000  0.28896000  1
  N  N1509  1  0.41221000  0.91121000  0.78896000  1
  N  N1510  1  0.48127000  0.24994000  0.67605000  1
  N  N1511  1  0.48127000  0.25006000  0.17605000  1
  N  N1512  1  0.51873000  0.74994000  0.82395000  1
  N  N1513  1  0.51873000  0.75006000  0.32395000  1
  N  N1514  1  0.58779000  0.08879000  0.21104000  1
  N  N1515  1  0.58779000  0.41121000  0.71104000  1
  N  N1516  1  0.58879000  0.21104000  0.91221000  1
  N  N1517  1  0.58879000  0.28896000  0.41221000  1
  N  N1518  1  0.67605000  0.01873000  0.74994000  1
  N  N1519  1  0.67605000  0.48127000  0.24994000  1
  N  N1520  1  0.71104000  0.58779000  0.41121000  1
  N  N1521  1  0.71104000  0.91221000  0.91121000  1
  N  N1522  1  0.74994000  0.67605000  0.01873000  1
  N  N1523  1  0.74994000  0.82395000  0.51873000  1
  N  N1524  1  0.75006000  0.17605000  0.01873000  1
  N  N1525  1  0.75006000  0.32395000  0.51873000  1
  N  N1526  1  0.78896000  0.08779000  0.41121000  1
  N  N1527  1  0.78896000  0.41221000  0.91121000  1
  N  N1528  1  0.82395000  0.51873000  0.74994000  1
  N  N1529  1  0.82395000  0.98127000  0.24994000  1
  N  N1530  1  0.91121000  0.71104000  0.91221000  1
  N  N1531  1  0.91121000  0.78896000  0.41221000  1
  N  N1532  1  0.91221000  0.58879000  0.21104000  1
  N  N1533  1  0.91221000  0.91121000  0.71104000  1
  N  N1534  1  0.98127000  0.24994000  0.82395000  1
  N  N1535  1  0.98127000  0.25006000  0.32395000  1
  O  O1536  1  0.02779000  0.61543000  0.33914000  1
  O  O1537  1  0.02779000  0.88457000  0.83914000  1
  O  O1538  1  0.03046000  0.66510000  0.39056000  1
  O  O1539  1  0.03046000  0.83490000  0.89056000  1
  O  O1540  1  0.04529000  0.65956000  0.30086000  1
  O  O1541  1  0.04529000  0.84044000  0.80086000  1
  O  O1542  1  0.05512000  0.70613000  0.35289000  1
  O  O1543  1  0.05512000  0.79387000  0.85289000  1
  O  O1544  1  0.09280000  0.59429000  0.35235000  1
  O  O1545  1  0.09280000  0.90571000  0.85235000  1
  O  O1546  1  0.09429000  0.14765000  0.90720000  1
  O  O1547  1  0.09429000  0.35235000  0.40720000  1
  O  O1548  1  0.09488000  0.59770000  0.64399000  1
  O  O1549  1  0.09488000  0.90230000  0.14399000  1
  O  O1550  1  0.09770000  0.64399000  0.40512000  1
  O  O1551  1  0.09770000  0.85601000  0.90512000  1
  O  O1552  1  0.10944000  0.53046000  0.66510000  1
  O  O1553  1  0.10944000  0.96954000  0.16510000  1
  O  O1554  1  0.11019000  0.63401000  0.30952000  1
  O  O1555  1  0.11019000  0.86599000  0.80952000  1
  O  O1556  1  0.11543000  0.16086000  0.97221000  1
  O  O1557  1  0.11543000  0.33914000  0.47221000  1
  O  O1558  1  0.12092000  0.68058000  0.36218000  1
  O  O1559  1  0.12092000  0.81942000  0.86218000  1
  O  O1560  1  0.13401000  0.19048000  0.88981000  1
  O  O1561  1  0.13401000  0.30952000  0.38981000  1
  O  O1562  1  0.13782000  0.62092000  0.68058000  1
  O  O1563  1  0.13782000  0.87908000  0.18058000  1
  O  O1564  1  0.14399000  0.09488000  0.90230000  1
  O  O1565  1  0.14399000  0.40512000  0.40230000  1
  O  O1566  1  0.14711000  0.55512000  0.70613000  1
  O  O1567  1  0.14711000  0.94488000  0.20613000  1
  O  O1568  1  0.14765000  0.59280000  0.59429000  1
  O  O1569  1  0.14765000  0.90720000  0.09429000  1
  O  O1570  1  0.15956000  0.19914000  0.95471000  1
  O  O1571  1  0.15956000  0.30086000  0.45471000  1
  O  O1572  1  0.16086000  0.52779000  0.61543000  1
  O  O1573  1  0.16086000  0.97221000  0.11543000  1
  O  O1574  1  0.16510000  0.10944000  0.96954000  1
  O  O1575  1  0.16510000  0.39056000  0.46954000  1
  O  O1576  1  0.18058000  0.13782000  0.87908000  1
  O  O1577  1  0.18058000  0.36218000  0.37908000  1
  O  O1578  1  0.19048000  0.61019000  0.63401000  1
  O  O1579  1  0.19048000  0.88981000  0.13401000  1
  O  O1580  1  0.19914000  0.54529000  0.65956000  1
  O  O1581  1  0.19914000  0.95471000  0.15956000  1
  O  O1582  1  0.20613000  0.14711000  0.94488000  1
  O  O1583  1  0.20613000  0.35289000  0.44488000  1
  O  O1584  1  0.29387000  0.64711000  0.94488000  1
  O  O1585  1  0.29387000  0.85289000  0.44488000  1
  O  O1586  1  0.30086000  0.04529000  0.65956000  1
  O  O1587  1  0.30086000  0.45471000  0.15956000  1
  O  O1588  1  0.30952000  0.11019000  0.63401000  1
  O  O1589  1  0.30952000  0.38981000  0.13401000  1
  O  O1590  1  0.31942000  0.63782000  0.87908000  1
  O  O1591  1  0.31942000  0.86218000  0.37908000  1
  O  O1592  1  0.33490000  0.60944000  0.96954000  1
  O  O1593  1  0.33490000  0.89056000  0.46954000  1
  O  O1594  1  0.33914000  0.02779000  0.61543000  1
  O  O1595  1  0.33914000  0.47221000  0.11543000  1
  O  O1596  1  0.34044000  0.69914000  0.95471000  1
  O  O1597  1  0.34044000  0.80086000  0.45471000  1
  O  O1598  1  0.35235000  0.09280000  0.59429000  1
  O  O1599  1  0.35235000  0.40720000  0.09429000  1
  O  O1600  1  0.35289000  0.05512000  0.70613000  1
  O  O1601  1  0.35289000  0.44488000  0.20613000  1
  O  O1602  1  0.35601000  0.59488000  0.90230000  1
  O  O1603  1  0.35601000  0.90512000  0.40230000  1
  O  O1604  1  0.36218000  0.12092000  0.68058000  1
  O  O1605  1  0.36218000  0.37908000  0.18058000  1
  O  O1606  1  0.36599000  0.69048000  0.88981000  1
  O  O1607  1  0.36599000  0.80952000  0.38981000  1
  O  O1608  1  0.37908000  0.18058000  0.36218000  1
  O  O1609  1  0.37908000  0.31942000  0.86218000  1
  O  O1610  1  0.38457000  0.66086000  0.97221000  1
  O  O1611  1  0.38457000  0.83914000  0.47221000  1
  O  O1612  1  0.38981000  0.13401000  0.30952000  1
  O  O1613  1  0.38981000  0.36599000  0.80952000  1
  O  O1614  1  0.39056000  0.03046000  0.66510000  1
  O  O1615  1  0.39056000  0.46954000  0.16510000  1
  O  O1616  1  0.40230000  0.14399000  0.40512000  1
  O  O1617  1  0.40230000  0.35601000  0.90512000  1
  O  O1618  1  0.40512000  0.09770000  0.64399000  1
  O  O1619  1  0.40512000  0.40230000  0.14399000  1
  O  O1620  1  0.40571000  0.64765000  0.90720000  1
  O  O1621  1  0.40571000  0.85235000  0.40720000  1
  O  O1622  1  0.40720000  0.09429000  0.35235000  1
  O  O1623  1  0.40720000  0.40571000  0.85235000  1
  O  O1624  1  0.44488000  0.20613000  0.35289000  1
  O  O1625  1  0.44488000  0.29387000  0.85289000  1
  O  O1626  1  0.45471000  0.15956000  0.30086000  1
  O  O1627  1  0.45471000  0.34044000  0.80086000  1
  O  O1628  1  0.46954000  0.16510000  0.39056000  1
  O  O1629  1  0.46954000  0.33490000  0.89056000  1
  O  O1630  1  0.47221000  0.11543000  0.33914000  1
  O  O1631  1  0.47221000  0.38457000  0.83914000  1
  O  O1632  1  0.52779000  0.61543000  0.16086000  1
  O  O1633  1  0.52779000  0.88457000  0.66086000  1
  O  O1634  1  0.53046000  0.66510000  0.10944000  1
  O  O1635  1  0.53046000  0.83490000  0.60944000  1
  O  O1636  1  0.54529000  0.65956000  0.19914000  1
  O  O1637  1  0.54529000  0.84044000  0.69914000  1
  O  O1638  1  0.55512000  0.70613000  0.14711000  1
  O  O1639  1  0.55512000  0.79387000  0.64711000  1
  O  O1640  1  0.59280000  0.59429000  0.14765000  1
  O  O1641  1  0.59280000  0.90571000  0.64765000  1
  O  O1642  1  0.59429000  0.14765000  0.59280000  1
  O  O1643  1  0.59429000  0.35235000  0.09280000  1
  O  O1644  1  0.59488000  0.59770000  0.85601000  1
  O  O1645  1  0.59488000  0.90230000  0.35601000  1
  O  O1646  1  0.59770000  0.64399000  0.09488000  1
  O  O1647  1  0.59770000  0.85601000  0.59488000  1
  O  O1648  1  0.60944000  0.53046000  0.83490000  1
  O  O1649  1  0.60944000  0.96954000  0.33490000  1
  O  O1650  1  0.61019000  0.63401000  0.19048000  1
  O  O1651  1  0.61019000  0.86599000  0.69048000  1
  O  O1652  1  0.61543000  0.16086000  0.52779000  1
  O  O1653  1  0.61543000  0.33914000  0.02779000  1
  O  O1654  1  0.62092000  0.68058000  0.13782000  1
  O  O1655  1  0.62092000  0.81942000  0.63782000  1
  O  O1656  1  0.63401000  0.19048000  0.61019000  1
  O  O1657  1  0.63401000  0.30952000  0.11019000  1
  O  O1658  1  0.63782000  0.62092000  0.81942000  1
  O  O1659  1  0.63782000  0.87908000  0.31942000  1
  O  O1660  1  0.64399000  0.09488000  0.59770000  1
  O  O1661  1  0.64399000  0.40512000  0.09770000  1
  O  O1662  1  0.64711000  0.55512000  0.79387000  1
  O  O1663  1  0.64711000  0.94488000  0.29387000  1
  O  O1664  1  0.64765000  0.59280000  0.90571000  1
  O  O1665  1  0.64765000  0.90720000  0.40571000  1
  O  O1666  1  0.65956000  0.19914000  0.54529000  1
  O  O1667  1  0.65956000  0.30086000  0.04529000  1
  O  O1668  1  0.66086000  0.52779000  0.88457000  1
  O  O1669  1  0.66086000  0.97221000  0.38457000  1
  O  O1670  1  0.66510000  0.10944000  0.53046000  1
  O  O1671  1  0.66510000  0.39056000  0.03046000  1
  O  O1672  1  0.68058000  0.13782000  0.62092000  1
  O  O1673  1  0.68058000  0.36218000  0.12092000  1
  O  O1674  1  0.69048000  0.61019000  0.86599000  1
  O  O1675  1  0.69048000  0.88981000  0.36599000  1
  O  O1676  1  0.69914000  0.54529000  0.84044000  1
  O  O1677  1  0.69914000  0.95471000  0.34044000  1
  O  O1678  1  0.70613000  0.14711000  0.55512000  1
  O  O1679  1  0.70613000  0.35289000  0.05512000  1
  O  O1680  1  0.79387000  0.64711000  0.55512000  1
  O  O1681  1  0.79387000  0.85289000  0.05512000  1
  O  O1682  1  0.80086000  0.04529000  0.84044000  1
  O  O1683  1  0.80086000  0.45471000  0.34044000  1
  O  O1684  1  0.80952000  0.11019000  0.86599000  1
  O  O1685  1  0.80952000  0.38981000  0.36599000  1
  O  O1686  1  0.81942000  0.63782000  0.62092000  1
  O  O1687  1  0.81942000  0.86218000  0.12092000  1
  O  O1688  1  0.83490000  0.60944000  0.53046000  1
  O  O1689  1  0.83490000  0.89056000  0.03046000  1
  O  O1690  1  0.83914000  0.02779000  0.88457000  1
  O  O1691  1  0.83914000  0.47221000  0.38457000  1
  O  O1692  1  0.84044000  0.69914000  0.54529000  1
  O  O1693  1  0.84044000  0.80086000  0.04529000  1
  O  O1694  1  0.85235000  0.09280000  0.90571000  1
  O  O1695  1  0.85235000  0.40720000  0.40571000  1
  O  O1696  1  0.85289000  0.05512000  0.79387000  1
  O  O1697  1  0.85289000  0.44488000  0.29387000  1
  O  O1698  1  0.85601000  0.59488000  0.59770000  1
  O  O1699  1  0.85601000  0.90512000  0.09770000  1
  O  O1700  1  0.86218000  0.12092000  0.81942000  1
  O  O1701  1  0.86218000  0.37908000  0.31942000  1
  O  O1702  1  0.86599000  0.69048000  0.61019000  1
  O  O1703  1  0.86599000  0.80952000  0.11019000  1
  O  O1704  1  0.87908000  0.18058000  0.13782000  1
  O  O1705  1  0.87908000  0.31942000  0.63782000  1
  O  O1706  1  0.88457000  0.66086000  0.52779000  1
  O  O1707  1  0.88457000  0.83914000  0.02779000  1
  O  O1708  1  0.88981000  0.13401000  0.19048000  1
  O  O1709  1  0.88981000  0.36599000  0.69048000  1
  O  O1710  1  0.89056000  0.03046000  0.83490000  1
  O  O1711  1  0.89056000  0.46954000  0.33490000  1
  O  O1712  1  0.90230000  0.14399000  0.09488000  1
  O  O1713  1  0.90230000  0.35601000  0.59488000  1
  O  O1714  1  0.90512000  0.09770000  0.85601000  1
  O  O1715  1  0.90512000  0.40230000  0.35601000  1
  O  O1716  1  0.90571000  0.64765000  0.59280000  1
  O  O1717  1  0.90571000  0.85235000  0.09280000  1
  O  O1718  1  0.90720000  0.09429000  0.14765000  1
  O  O1719  1  0.90720000  0.40571000  0.64765000  1
  O  O1720  1  0.94488000  0.20613000  0.14711000  1
  O  O1721  1  0.94488000  0.29387000  0.64711000  1
  O  O1722  1  0.95471000  0.15956000  0.19914000  1
  O  O1723  1  0.95471000  0.34044000  0.69914000  1
  O  O1724  1  0.96954000  0.16510000  0.10944000  1
  O  O1725  1  0.96954000  0.33490000  0.60944000  1
  O  O1726  1  0.97221000  0.11543000  0.16086000  1
  O  O1727  1  0.97221000  0.38457000  0.66086000  1
