# generated using pymatgen
data_Mg2Fe3H18C30N9O13
_symmetry_space_group_name_H-M   'P 1'
_cell_length_a   13.85700000
_cell_length_b   13.85700000
_cell_length_c   17.92500000
_cell_angle_alpha   90.00000000
_cell_angle_beta   90.00000000
_cell_angle_gamma   120.00000000
_symmetry_Int_Tables_number   1
_chemical_formula_structural   Mg2Fe3H18C30N9O13
_chemical_formula_sum   'Mg4 Fe6 H36 C60 N18 O26'
_cell_volume   2980.76837580
_cell_formula_units_Z   2
loop_
 _symmetry_equiv_pos_site_id
 _symmetry_equiv_pos_as_xyz
  1  'x, y, z'
loop_
 _atom_site_type_symbol
 _atom_site_label
 _atom_site_symmetry_multiplicity
 _atom_site_fract_x
 _atom_site_fract_y
 _atom_site_fract_z
 _atom_site_occupancy
  Mg  Mg0  1  0.00000000  0.00000000  0.85520000  1
  Mg  Mg1  1  0.00000000  0.00000000  0.64480000  1
  Mg  Mg2  1  0.00000000  0.00000000  0.35520000  1
  Mg  Mg3  1  0.00000000  0.00000000  0.14480000  1
  Fe  Fe4  1  0.74670000  0.25330000  0.25000000  1
  Fe  Fe5  1  0.74670000  0.49340000  0.25000000  1
  Fe  Fe6  1  0.50660000  0.25330000  0.25000000  1
  Fe  Fe7  1  0.49340000  0.74670000  0.75000000  1
  Fe  Fe8  1  0.25330000  0.50660000  0.75000000  1
  Fe  Fe9  1  0.25330000  0.74670000  0.75000000  1
  H  H10  1  0.95270000  0.33390000  0.44330000  1
  H  H11  1  0.95270000  0.33390000  0.05670000  1
  H  H12  1  0.95270000  0.61880000  0.44330000  1
  H  H13  1  0.95270000  0.61880000  0.05670000  1
  H  H14  1  0.85735000  0.14265000  0.35490000  1
  H  H15  1  0.85735000  0.14265000  0.14510000  1
  H  H16  1  0.85735000  0.71470000  0.35490000  1
  H  H17  1  0.85735000  0.71470000  0.14510000  1
  H  H18  1  0.71470000  0.85735000  0.85490000  1
  H  H19  1  0.71470000  0.85735000  0.64510000  1
  H  H20  1  0.66610000  0.04730000  0.44330000  1
  H  H21  1  0.66610000  0.04730000  0.05670000  1
  H  H22  1  0.66610000  0.61880000  0.44330000  1
  H  H23  1  0.66610000  0.61880000  0.05670000  1
  H  H24  1  0.61880000  0.66610000  0.94330000  1
  H  H25  1  0.61880000  0.66610000  0.55670000  1
  H  H26  1  0.61880000  0.95270000  0.94330000  1
  H  H27  1  0.61880000  0.95270000  0.55670000  1
  H  H28  1  0.38120000  0.04730000  0.44330000  1
  H  H29  1  0.38120000  0.04730000  0.05670000  1
  H  H30  1  0.38120000  0.33390000  0.44330000  1
  H  H31  1  0.38120000  0.33390000  0.05670000  1
  H  H32  1  0.33390000  0.38120000  0.94330000  1
  H  H33  1  0.33390000  0.38120000  0.55670000  1
  H  H34  1  0.33390000  0.95270000  0.94330000  1
  H  H35  1  0.33390000  0.95270000  0.55670000  1
  H  H36  1  0.28530000  0.14265000  0.35490000  1
  H  H37  1  0.28530000  0.14265000  0.14510000  1
  H  H38  1  0.14265000  0.28530000  0.85490000  1
  H  H39  1  0.14265000  0.28530000  0.64510000  1
  H  H40  1  0.14265000  0.85735000  0.85490000  1
  H  H41  1  0.14265000  0.85735000  0.64510000  1
  H  H42  1  0.04730000  0.38120000  0.94330000  1
  H  H43  1  0.04730000  0.38120000  0.55670000  1
  H  H44  1  0.04730000  0.66610000  0.94330000  1
  H  H45  1  0.04730000  0.66610000  0.55670000  1
  C  C46  1  0.97110000  0.40130000  0.46600000  1
  C  C47  1  0.97110000  0.40130000  0.03400000  1
  C  C48  1  0.97110000  0.56980000  0.46600000  1
  C  C49  1  0.97110000  0.56980000  0.03400000  1
  C  C50  1  0.94220000  0.47110000  0.43310000  1
  C  C51  1  0.94220000  0.47110000  0.06690000  1
  C  C52  1  0.87680000  0.43840000  0.35910000  1
  C  C53  1  0.87680000  0.43840000  0.14090000  1
  C  C54  1  0.87060000  0.12940000  0.30610000  1
  C  C55  1  0.87060000  0.12940000  0.19390000  1
  C  C56  1  0.87060000  0.74120000  0.30610000  1
  C  C57  1  0.87060000  0.74120000  0.19390000  1
  C  C58  1  0.74120000  0.87060000  0.80610000  1
  C  C59  1  0.74120000  0.87060000  0.69390000  1
  C  C60  1  0.59870000  0.02890000  0.46600000  1
  C  C61  1  0.59870000  0.02890000  0.03400000  1
  C  C62  1  0.59870000  0.56980000  0.46600000  1
  C  C63  1  0.59870000  0.56980000  0.03400000  1
  C  C64  1  0.56980000  0.59870000  0.96600000  1
  C  C65  1  0.56980000  0.59870000  0.53400000  1
  C  C66  1  0.56980000  0.97110000  0.96600000  1
  C  C67  1  0.56980000  0.97110000  0.53400000  1
  C  C68  1  0.56160000  0.12320000  0.35910000  1
  C  C69  1  0.56160000  0.12320000  0.14090000  1
  C  C70  1  0.56160000  0.43840000  0.35910000  1
  C  C71  1  0.56160000  0.43840000  0.14090000  1
  C  C72  1  0.52890000  0.05780000  0.43310000  1
  C  C73  1  0.52890000  0.05780000  0.06690000  1
  C  C74  1  0.52890000  0.47110000  0.43310000  1
  C  C75  1  0.52890000  0.47110000  0.06690000  1
  C  C76  1  0.47110000  0.52890000  0.93310000  1
  C  C77  1  0.47110000  0.52890000  0.56690000  1
  C  C78  1  0.47110000  0.94220000  0.93310000  1
  C  C79  1  0.47110000  0.94220000  0.56690000  1
  C  C80  1  0.43840000  0.56160000  0.85910000  1
  C  C81  1  0.43840000  0.56160000  0.64090000  1
  C  C82  1  0.43840000  0.87680000  0.85910000  1
  C  C83  1  0.43840000  0.87680000  0.64090000  1
  C  C84  1  0.43020000  0.02890000  0.46600000  1
  C  C85  1  0.43020000  0.02890000  0.03400000  1
  C  C86  1  0.43020000  0.40130000  0.46600000  1
  C  C87  1  0.43020000  0.40130000  0.03400000  1
  C  C88  1  0.40130000  0.43020000  0.96600000  1
  C  C89  1  0.40130000  0.43020000  0.53400000  1
  C  C90  1  0.40130000  0.97110000  0.96600000  1
  C  C91  1  0.40130000  0.97110000  0.53400000  1
  C  C92  1  0.25880000  0.12940000  0.30610000  1
  C  C93  1  0.25880000  0.12940000  0.19390000  1
  C  C94  1  0.12940000  0.25880000  0.80610000  1
  C  C95  1  0.12940000  0.25880000  0.69390000  1
  C  C96  1  0.12940000  0.87060000  0.80610000  1
  C  C97  1  0.12940000  0.87060000  0.69390000  1
  C  C98  1  0.12320000  0.56160000  0.85910000  1
  C  C99  1  0.12320000  0.56160000  0.64090000  1
  C  C100  1  0.05780000  0.52890000  0.93310000  1
  C  C101  1  0.05780000  0.52890000  0.56690000  1
  C  C102  1  0.02890000  0.43020000  0.96600000  1
  C  C103  1  0.02890000  0.43020000  0.53400000  1
  C  C104  1  0.02890000  0.59870000  0.96600000  1
  C  C105  1  0.02890000  0.59870000  0.53400000  1
  N  N106  1  0.92730000  0.07270000  0.29100000  1
  N  N107  1  0.92730000  0.07270000  0.20900000  1
  N  N108  1  0.92730000  0.85460000  0.29100000  1
  N  N109  1  0.92730000  0.85460000  0.20900000  1
  N  N110  1  0.85460000  0.92730000  0.79100000  1
  N  N111  1  0.85460000  0.92730000  0.70900000  1
  N  N112  1  0.83705000  0.16295000  0.25000000  1
  N  N113  1  0.83705000  0.67410000  0.25000000  1
  N  N114  1  0.67410000  0.83705000  0.75000000  1
  N  N115  1  0.32590000  0.16295000  0.25000000  1
  N  N116  1  0.16295000  0.32590000  0.75000000  1
  N  N117  1  0.16295000  0.83705000  0.75000000  1
  N  N118  1  0.14540000  0.07270000  0.29100000  1
  N  N119  1  0.14540000  0.07270000  0.20900000  1
  N  N120  1  0.07270000  0.14540000  0.79100000  1
  N  N121  1  0.07270000  0.14540000  0.70900000  1
  N  N122  1  0.07270000  0.92730000  0.79100000  1
  N  N123  1  0.07270000  0.92730000  0.70900000  1
  O  O124  1  0.85620000  0.35030000  0.33240000  1
  O  O125  1  0.85620000  0.35030000  0.16760000  1
  O  O126  1  0.85620000  0.50590000  0.33240000  1
  O  O127  1  0.85620000  0.50590000  0.16760000  1
  O  O128  1  0.66666667  0.33333333  0.25000000  1
  O  O129  1  0.64970000  0.14380000  0.33240000  1
  O  O130  1  0.64970000  0.14380000  0.16760000  1
  O  O131  1  0.64970000  0.50590000  0.33240000  1
  O  O132  1  0.64970000  0.50590000  0.16760000  1
  O  O133  1  0.50590000  0.64970000  0.83240000  1
  O  O134  1  0.50590000  0.64970000  0.66760000  1
  O  O135  1  0.50590000  0.85620000  0.83240000  1
  O  O136  1  0.50590000  0.85620000  0.66760000  1
  O  O137  1  0.49410000  0.14380000  0.33240000  1
  O  O138  1  0.49410000  0.14380000  0.16760000  1
  O  O139  1  0.49410000  0.35030000  0.33240000  1
  O  O140  1  0.49410000  0.35030000  0.16760000  1
  O  O141  1  0.35030000  0.49410000  0.83240000  1
  O  O142  1  0.35030000  0.49410000  0.66760000  1
  O  O143  1  0.35030000  0.85620000  0.83240000  1
  O  O144  1  0.35030000  0.85620000  0.66760000  1
  O  O145  1  0.33333333  0.66666667  0.75000000  1
  O  O146  1  0.14380000  0.49410000  0.83240000  1
  O  O147  1  0.14380000  0.49410000  0.66760000  1
  O  O148  1  0.14380000  0.64970000  0.83240000  1
  O  O149  1  0.14380000  0.64970000  0.66760000  1
