# generated using pymatgen
data_Co5H18(C17O9)2
_symmetry_space_group_name_H-M   'P 1'
_cell_length_a   8.46530000
_cell_length_b   9.93870000
_cell_length_c   25.11500000
_cell_angle_alpha   90.56000000
_cell_angle_beta   90.00000000
_cell_angle_gamma   90.00000000
_symmetry_Int_Tables_number   1
_chemical_formula_structural   Co5H18(C17O9)2
_chemical_formula_sum   'Co10 H36 C68 O36'
_cell_volume   2112.92642076
_cell_formula_units_Z   2
loop_
 _symmetry_equiv_pos_site_id
 _symmetry_equiv_pos_as_xyz
  1  'x, y, z'
loop_
 _atom_site_type_symbol
 _atom_site_label
 _atom_site_symmetry_multiplicity
 _atom_site_fract_x
 _atom_site_fract_y
 _atom_site_fract_z
 _atom_site_occupancy
  Co  Co0  1  0.00000000  0.00000000  0.50000000  1
  Co  Co1  1  0.17333000  0.24506000  0.58763000  1
  Co  Co2  1  0.20410000  0.81571000  0.40214000  1
  Co  Co3  1  0.29590000  0.31571000  0.90214000  1
  Co  Co4  1  0.32667000  0.74506000  0.08763000  1
  Co  Co5  1  0.50000000  0.50000000  0.00000000  1
  Co  Co6  1  0.67333000  0.25494000  0.91237000  1
  Co  Co7  1  0.70410000  0.68429000  0.09786000  1
  Co  Co8  1  0.79590000  0.18429000  0.59786000  1
  Co  Co9  1  0.82667000  0.75494000  0.41237000  1
  H  H10  1  0.01000000  0.94880000  0.81370000  1
  H  H11  1  0.01930000  0.89080000  0.70160000  1
  H  H12  1  0.03200000  0.45290000  0.16890000  1
  H  H13  1  0.03510000  0.74870000  0.48310000  1
  H  H14  1  0.05060000  0.49130000  0.71840000  1
  H  H15  1  0.15720000  0.35350000  0.41110000  1
  H  H16  1  0.19580000  0.64130000  0.77910000  1
  H  H17  1  0.19970000  0.79690000  0.76860000  1
  H  H18  1  0.22590000  0.70020000  0.57300000  1
  H  H19  1  0.27410000  0.20020000  0.07300000  1
  H  H20  1  0.30030000  0.29690000  0.26860000  1
  H  H21  1  0.30420000  0.14130000  0.27910000  1
  H  H22  1  0.34280000  0.85350000  0.91110000  1
  H  H23  1  0.44940000  0.99130000  0.21840000  1
  H  H24  1  0.46490000  0.24870000  0.98310000  1
  H  H25  1  0.46800000  0.95290000  0.66890000  1
  H  H26  1  0.48070000  0.39080000  0.20160000  1
  H  H27  1  0.49000000  0.44880000  0.31370000  1
  H  H28  1  0.51000000  0.55120000  0.68630000  1
  H  H29  1  0.51930000  0.60920000  0.79840000  1
  H  H30  1  0.53200000  0.04710000  0.33110000  1
  H  H31  1  0.53510000  0.75130000  0.01690000  1
  H  H32  1  0.55060000  0.00870000  0.78160000  1
  H  H33  1  0.65720000  0.14650000  0.08890000  1
  H  H34  1  0.69580000  0.85870000  0.72090000  1
  H  H35  1  0.69970000  0.70310000  0.73140000  1
  H  H36  1  0.72590000  0.79980000  0.92700000  1
  H  H37  1  0.77410000  0.29980000  0.42700000  1
  H  H38  1  0.80030000  0.20310000  0.23140000  1
  H  H39  1  0.80420000  0.35870000  0.22090000  1
  H  H40  1  0.84280000  0.64650000  0.58890000  1
  H  H41  1  0.94940000  0.50870000  0.28160000  1
  H  H42  1  0.96490000  0.25130000  0.51690000  1
  H  H43  1  0.96800000  0.54710000  0.83110000  1
  H  H44  1  0.98070000  0.10920000  0.29840000  1
  H  H45  1  0.99000000  0.05120000  0.18630000  1
  C  C46  1  0.00070000  0.80390000  0.68900000  1
  C  C47  1  0.01050000  0.74160000  0.81594000  1
  C  C48  1  0.01680000  0.56580000  0.69940000  1
  C  C49  1  0.03260000  0.12480000  0.16880000  1
  C  C50  1  0.04610000  0.69700000  0.71947000  1
  C  C51  1  0.05670000  0.36550000  0.15821000  1
  C  C52  1  0.06230000  0.45190000  0.34853000  1
  C  C53  1  0.07340000  0.21400000  0.36070000  1
  C  C54  1  0.10020000  0.59090000  0.36798000  1
  C  C55  1  0.10590000  0.34100000  0.37869000  1
  C  C56  1  0.11670000  0.09270000  0.39260000  1
  C  C57  1  0.13100000  0.71910000  0.77120000  1
  C  C58  1  0.13850000  0.10630000  0.12750000  1
  C  C59  1  0.16300000  0.34350000  0.11549000  1
  C  C60  1  0.19490000  0.96490000  0.11410000  1
  C  C61  1  0.20340000  0.21480000  0.10079000  1
  C  C62  1  0.24390000  0.46100000  0.08950000  1
  C  C63  1  0.25610000  0.96100000  0.58950000  1
  C  C64  1  0.29660000  0.71480000  0.60079000  1
  C  C65  1  0.30510000  0.46490000  0.61410000  1
  C  C66  1  0.33700000  0.84350000  0.61549000  1
  C  C67  1  0.36150000  0.60630000  0.62750000  1
  C  C68  1  0.36900000  0.21910000  0.27120000  1
  C  C69  1  0.38330000  0.59270000  0.89260000  1
  C  C70  1  0.39410000  0.84100000  0.87869000  1
  C  C71  1  0.39980000  0.09090000  0.86798000  1
  C  C72  1  0.42660000  0.71400000  0.86070000  1
  C  C73  1  0.43770000  0.95190000  0.84853000  1
  C  C74  1  0.44330000  0.86550000  0.65821000  1
  C  C75  1  0.45390000  0.19700000  0.21947000  1
  C  C76  1  0.46740000  0.62480000  0.66880000  1
  C  C77  1  0.48320000  0.06580000  0.19940000  1
  C  C78  1  0.48950000  0.24160000  0.31594000  1
  C  C79  1  0.49930000  0.30390000  0.18900000  1
  C  C80  1  0.50070000  0.69610000  0.81100000  1
  C  C81  1  0.51050000  0.75840000  0.68406000  1
  C  C82  1  0.51680000  0.93420000  0.80060000  1
  C  C83  1  0.53260000  0.37520000  0.33120000  1
  C  C84  1  0.54610000  0.80300000  0.78053000  1
  C  C85  1  0.55670000  0.13450000  0.34179000  1
  C  C86  1  0.56230000  0.04810000  0.15147000  1
  C  C87  1  0.57340000  0.28600000  0.13930000  1
  C  C88  1  0.60020000  0.90910000  0.13202000  1
  C  C89  1  0.60590000  0.15900000  0.12131000  1
  C  C90  1  0.61670000  0.40730000  0.10740000  1
  C  C91  1  0.63100000  0.78090000  0.72880000  1
  C  C92  1  0.63850000  0.39370000  0.37250000  1
  C  C93  1  0.66300000  0.15650000  0.38451000  1
  C  C94  1  0.69490000  0.53510000  0.38590000  1
  C  C95  1  0.70340000  0.28520000  0.39921000  1
  C  C96  1  0.74390000  0.03900000  0.41050000  1
  C  C97  1  0.75610000  0.53900000  0.91050000  1
  C  C98  1  0.79660000  0.78520000  0.89921000  1
  C  C99  1  0.80510000  0.03510000  0.88590000  1
  C  C100  1  0.83700000  0.65650000  0.88451000  1
  C  C101  1  0.86150000  0.89370000  0.87250000  1
  C  C102  1  0.86900000  0.28090000  0.22880000  1
  C  C103  1  0.88330000  0.90730000  0.60740000  1
  C  C104  1  0.89410000  0.65900000  0.62131000  1
  C  C105  1  0.89980000  0.40910000  0.63202000  1
  C  C106  1  0.92660000  0.78600000  0.63930000  1
  C  C107  1  0.93770000  0.54810000  0.65147000  1
  C  C108  1  0.94330000  0.63450000  0.84179000  1
  C  C109  1  0.95390000  0.30300000  0.28053000  1
  C  C110  1  0.96740000  0.87520000  0.83120000  1
  C  C111  1  0.98320000  0.43420000  0.30060000  1
  C  C112  1  0.98950000  0.25840000  0.18406000  1
  C  C113  1  0.99930000  0.19610000  0.31100000  1
  O  O114  1  0.01380000  0.81940000  0.45716000  1
  O  O115  1  0.01830000  0.69060000  0.35464000  1
  O  O116  1  0.13260000  0.10580000  0.44282000  1
  O  O117  1  0.13540000  0.98400000  0.36789000  1
  O  O118  1  0.15090000  0.86250000  0.13924000  1
  O  O119  1  0.20430000  0.44920000  0.57606000  1
  O  O120  1  0.20750000  0.94290000  0.54316000  1
  O  O121  1  0.21570000  0.60750000  0.39800000  1
  O  O122  1  0.24300000  0.06670000  0.61703000  1
  O  O123  1  0.25700000  0.56670000  0.11703000  1
  O  O124  1  0.28430000  0.10750000  0.89800000  1
  O  O125  1  0.29250000  0.44290000  0.04316000  1
  O  O126  1  0.29570000  0.94920000  0.07606000  1
  O  O127  1  0.34910000  0.36250000  0.63924000  1
  O  O128  1  0.36460000  0.48400000  0.86789000  1
  O  O129  1  0.36740000  0.60580000  0.94282000  1
  O  O130  1  0.48170000  0.19060000  0.85464000  1
  O  O131  1  0.48620000  0.31940000  0.95716000  1
  O  O132  1  0.51380000  0.68060000  0.04284000  1
  O  O133  1  0.51830000  0.80940000  0.14536000  1
  O  O134  1  0.63260000  0.39420000  0.05718000  1
  O  O135  1  0.63540000  0.51600000  0.13211000  1
  O  O136  1  0.65090000  0.63750000  0.36076000  1
  O  O137  1  0.70430000  0.05080000  0.92394000  1
  O  O138  1  0.70750000  0.55710000  0.95684000  1
  O  O139  1  0.71570000  0.89250000  0.10200000  1
  O  O140  1  0.74300000  0.43330000  0.88297000  1
  O  O141  1  0.75700000  0.93330000  0.38297000  1
  O  O142  1  0.78430000  0.39250000  0.60200000  1
  O  O143  1  0.79250000  0.05710000  0.45684000  1
  O  O144  1  0.79570000  0.55080000  0.42394000  1
  O  O145  1  0.84910000  0.13750000  0.86076000  1
  O  O146  1  0.86460000  0.01600000  0.63211000  1
  O  O147  1  0.86740000  0.89420000  0.55718000  1
  O  O148  1  0.98170000  0.30940000  0.64536000  1
  O  O149  1  0.98620000  0.18060000  0.54284000  1
