# generated using pymatgen
data_Zn2H16C20N3O8
_symmetry_space_group_name_H-M   'P 1'
_cell_length_a   14.05990000
_cell_length_b   14.05990000
_cell_length_c   14.35000000
_cell_angle_alpha   60.97540000
_cell_angle_beta   60.97540000
_cell_angle_gamma   83.89110000
_symmetry_Int_Tables_number   1
_chemical_formula_structural   Zn2H16C20N3O8
_chemical_formula_sum   'Zn4 H32 C40 N6 O16'
_cell_volume   2137.85669225
_cell_formula_units_Z   2
loop_
 _symmetry_equiv_pos_site_id
 _symmetry_equiv_pos_as_xyz
  1  'x, y, z'
loop_
 _atom_site_type_symbol
 _atom_site_label
 _atom_site_symmetry_multiplicity
 _atom_site_fract_x
 _atom_site_fract_y
 _atom_site_fract_z
 _atom_site_occupancy
  Zn  Zn0  1  0.01975000  0.01975000  0.08429000  1
  Zn  Zn1  1  0.09951000  0.90049000  0.50000000  1
  Zn  Zn2  1  0.90049000  0.09951000  0.50000000  1
  Zn  Zn3  1  0.98025000  0.98025000  0.91571000  1
  H  H4  1  0.03350000  0.67950000  0.30250000  1
  H  H5  1  0.03620000  0.49240000  0.40990000  1
  H  H6  1  0.06480000  0.37700000  0.88430000  1
  H  H7  1  0.06600000  0.76420000  0.79050000  1
  H  H8  1  0.06860000  0.27520000  0.49280000  1
  H  H9  1  0.08330000  0.56670000  0.76080000  1
  H  H10  1  0.10290000  0.83730000  0.82590000  1
  H  H11  1  0.14510000  0.82790000  0.30750000  1
  H  H12  1  0.16270000  0.89710000  0.17410000  1
  H  H13  1  0.17210000  0.85490000  0.69250000  1
  H  H14  1  0.23580000  0.93400000  0.20950000  1
  H  H15  1  0.27520000  0.06860000  0.49280000  1
  H  H16  1  0.32050000  0.96650000  0.69750000  1
  H  H17  1  0.37700000  0.06480000  0.88430000  1
  H  H18  1  0.43330000  0.91670000  0.23920000  1
  H  H19  1  0.49240000  0.03620000  0.40990000  1
  H  H20  1  0.50760000  0.96380000  0.59010000  1
  H  H21  1  0.56670000  0.08330000  0.76080000  1
  H  H22  1  0.62300000  0.93520000  0.11570000  1
  H  H23  1  0.67950000  0.03350000  0.30250000  1
  H  H24  1  0.72480000  0.93140000  0.50720000  1
  H  H25  1  0.76420000  0.06600000  0.79050000  1
  H  H26  1  0.82790000  0.14510000  0.30750000  1
  H  H27  1  0.83730000  0.10290000  0.82590000  1
  H  H28  1  0.85490000  0.17210000  0.69250000  1
  H  H29  1  0.89710000  0.16270000  0.17410000  1
  H  H30  1  0.91670000  0.43330000  0.23920000  1
  H  H31  1  0.93140000  0.72480000  0.50720000  1
  H  H32  1  0.93400000  0.23580000  0.20950000  1
  H  H33  1  0.93520000  0.62300000  0.11570000  1
  H  H34  1  0.96380000  0.50760000  0.59010000  1
  H  H35  1  0.96650000  0.32050000  0.69750000  1
  C  C36  1  0.01290000  0.51790000  0.35250000  1
  C  C37  1  0.01300000  0.20920000  0.87430000  1
  C  C38  1  0.01340000  0.63080000  0.28620000  1
  C  C39  1  0.01540000  0.33060000  0.80130000  1
  C  C40  1  0.02160000  0.55660000  0.66666667  1
  C  C41  1  0.02860000  0.67940000  0.58990000  1
  C  C42  1  0.03110000  0.91850000  0.72280000  1
  C  C43  1  0.04760000  0.40340000  0.82200000  1
  C  C44  1  0.05520000  0.51780000  0.75040000  1
  C  C45  1  0.08150000  0.96890000  0.27720000  1
  C  C46  1  0.09910000  0.83650000  0.76130000  1
  C  C47  1  0.16350000  0.90090000  0.23870000  1
  C  C48  1  0.20920000  0.01300000  0.87430000  1
  C  C49  1  0.32060000  0.97140000  0.41010000  1
  C  C50  1  0.33060000  0.01540000  0.80130000  1
  C  C51  1  0.36920000  0.98660000  0.71380000  1
  C  C52  1  0.40340000  0.04760000  0.82200000  1
  C  C53  1  0.44340000  0.97840000  0.33340000  1
  C  C54  1  0.48210000  0.98710000  0.64750000  1
  C  C55  1  0.48220000  0.94480000  0.24960000  1
  C  C56  1  0.51780000  0.05520000  0.75040000  1
  C  C57  1  0.51790000  0.01290000  0.35250000  1
  C  C58  1  0.55660000  0.02160000  0.66666667  1
  C  C59  1  0.59660000  0.95240000  0.17800000  1
  C  C60  1  0.63080000  0.01340000  0.28620000  1
  C  C61  1  0.66940000  0.98460000  0.19870000  1
  C  C62  1  0.67940000  0.02860000  0.58990000  1
  C  C63  1  0.79080000  0.98700000  0.12570000  1
  C  C64  1  0.83650000  0.09910000  0.76130000  1
  C  C65  1  0.90090000  0.16350000  0.23870000  1
  C  C66  1  0.91850000  0.03110000  0.72280000  1
  C  C67  1  0.94480000  0.48220000  0.24960000  1
  C  C68  1  0.95240000  0.59660000  0.17800000  1
  C  C69  1  0.96890000  0.08150000  0.27720000  1
  C  C70  1  0.97140000  0.32060000  0.41010000  1
  C  C71  1  0.97840000  0.44340000  0.33340000  1
  C  C72  1  0.98460000  0.66940000  0.19870000  1
  C  C73  1  0.98660000  0.36920000  0.71380000  1
  C  C74  1  0.98700000  0.79080000  0.12570000  1
  C  C75  1  0.98710000  0.48210000  0.64750000  1
  N  N76  1  0.02280000  0.94860000  0.62530000  1
  N  N77  1  0.03020000  0.03020000  0.21580000  1
  N  N78  1  0.05140000  0.97720000  0.37470000  1
  N  N79  1  0.94860000  0.02280000  0.62530000  1
  N  N80  1  0.96980000  0.96980000  0.78420000  1
  N  N81  1  0.97720000  0.05140000  0.37470000  1
  O  O82  1  0.00260000  0.85120000  0.15800000  1
  O  O83  1  0.01660000  0.28900000  0.47460000  1
  O  O84  1  0.02680000  0.17860000  0.96500000  1
  O  O85  1  0.07210000  0.74210000  0.59850000  1
  O  O86  1  0.14880000  0.99740000  0.84200000  1
  O  O87  1  0.17860000  0.02680000  0.96500000  1
  O  O88  1  0.25790000  0.92790000  0.40150000  1
  O  O89  1  0.28900000  0.01660000  0.47460000  1
  O  O90  1  0.71100000  0.98340000  0.52540000  1
  O  O91  1  0.74210000  0.07210000  0.59850000  1
  O  O92  1  0.82140000  0.97320000  0.03500000  1
  O  O93  1  0.85120000  0.00260000  0.15800000  1
  O  O94  1  0.92790000  0.25790000  0.40150000  1
  O  O95  1  0.97320000  0.82140000  0.03500000  1
  O  O96  1  0.98340000  0.71100000  0.52540000  1
  O  O97  1  0.99740000  0.14880000  0.84200000  1
