# generated using pymatgen
data_Zn3H86(C47O16)2
_symmetry_space_group_name_H-M   'P 1'
_cell_length_a   12.04320000
_cell_length_b   15.93220000
_cell_length_c   16.64200000
_cell_angle_alpha   76.77000000
_cell_angle_beta   70.17200000
_cell_angle_gamma   85.48100000
_symmetry_Int_Tables_number   1
_chemical_formula_structural   Zn3H86(C47O16)2
_chemical_formula_sum   'Zn3 H86 C94 O32'
_cell_volume   2924.14360351
_cell_formula_units_Z   1
loop_
 _symmetry_equiv_pos_site_id
 _symmetry_equiv_pos_as_xyz
  1  'x, y, z'
loop_
 _atom_site_type_symbol
 _atom_site_label
 _atom_site_symmetry_multiplicity
 _atom_site_fract_x
 _atom_site_fract_y
 _atom_site_fract_z
 _atom_site_occupancy
  Zn  Zn0  1  0.32193000  0.15925000  0.63776000  1
  Zn  Zn1  1  0.50000000  0.00000000  0.50000000  1
  Zn  Zn2  1  0.67807000  0.84075000  0.36224000  1
  H  H3  1  0.00680000  0.72870000  0.06510000  1
  H  H4  1  0.01490000  0.35410000  0.53900000  1
  H  H5  1  0.02310000  0.66010000  0.77190000  1
  H  H6  1  0.03760000  0.56320000  0.76450000  1
  H  H7  1  0.05000000  0.92320000  0.83980000  1
  H  H8  1  0.05270000  0.13890000  0.14660000  1
  H  H9  1  0.05420000  0.63630000  0.68040000  1
  H  H10  1  0.05780000  0.91810000  0.18140000  1
  H  H11  1  0.05820000  0.72280000  0.32380000  1
  H  H12  1  0.06630000  0.59810000  0.51350000  1
  H  H13  1  0.07650000  0.84320000  0.79620000  1
  H  H14  1  0.09000000  0.84830000  0.25270000  1
  H  H15  1  0.10340000  0.43400000  0.35040000  1
  H  H16  1  0.11680000  0.67450000  0.43330000  1
  H  H17  1  0.13780000  0.53750000  0.13780000  1
  H  H18  1  0.14630000  0.32860000  0.26820000  1
  H  H19  1  0.16340000  0.40030000  0.18320000  1
  H  H20  1  0.18810000  0.18030000  0.40880000  1
  H  H21  1  0.22220000  0.23430000  0.17250000  1
  H  H22  1  0.23570000  0.90410000  0.81730000  1
  H  H23  1  0.26070000  0.68920000  0.69040000  1
  H  H24  1  0.26540000  0.23770000  0.07170000  1
  H  H25  1  0.26970000  0.15060000  0.13740000  1
  H  H26  1  0.30280000  0.71350000  0.04810000  1
  H  H27  1  0.31190000  0.20380000  0.34110000  1
  H  H28  1  0.32060000  0.91180000  0.20140000  1
  H  H29  1  0.34590000  0.69690000  0.35460000  1
  H  H30  1  0.34720000  0.54390000  0.20180000  1
  H  H31  1  0.36350000  0.73330000  0.70330000  1
  H  H32  1  0.36620000  0.99600000  0.13000000  1
  H  H33  1  0.36690000  0.45280000  0.79730000  1
  H  H34  1  0.38840000  0.69140000  0.62240000  1
  H  H35  1  0.39540000  0.62870000  0.41800000  1
  H  H36  1  0.41130000  0.29510000  0.10910000  1
  H  H37  1  0.41630000  0.20740000  0.17400000  1
  H  H38  1  0.42440000  0.79600000  0.23980000  1
  H  H39  1  0.42740000  0.88780000  0.71600000  1
  H  H40  1  0.43350000  0.35030000  0.97810000  1
  H  H41  1  0.45070000  0.94260000  0.17650000  1
  H  H42  1  0.45260000  0.82790000  0.43640000  1
  H  H43  1  0.45380000  0.06460000  0.30620000  1
  H  H44  1  0.45530000  0.28750000  0.35860000  1
  H  H45  1  0.47240000  0.14010000  0.05550000  1
  H  H46  1  0.52760000  0.85990000  0.94450000  1
  H  H47  1  0.54470000  0.71250000  0.64140000  1
  H  H48  1  0.54620000  0.93540000  0.69380000  1
  H  H49  1  0.54740000  0.17210000  0.56360000  1
  H  H50  1  0.54930000  0.05740000  0.82350000  1
  H  H51  1  0.56650000  0.64970000  0.02190000  1
  H  H52  1  0.57260000  0.11220000  0.28400000  1
  H  H53  1  0.57560000  0.20400000  0.76020000  1
  H  H54  1  0.58370000  0.79260000  0.82600000  1
  H  H55  1  0.58870000  0.70490000  0.89090000  1
  H  H56  1  0.60460000  0.37130000  0.58200000  1
  H  H57  1  0.61160000  0.30860000  0.37760000  1
  H  H58  1  0.63310000  0.54720000  0.20270000  1
  H  H59  1  0.63380000  0.00400000  0.87000000  1
  H  H60  1  0.63650000  0.26670000  0.29670000  1
  H  H61  1  0.65280000  0.45610000  0.79820000  1
  H  H62  1  0.65410000  0.30310000  0.64540000  1
  H  H63  1  0.67940000  0.08820000  0.79860000  1
  H  H64  1  0.68810000  0.79620000  0.65890000  1
  H  H65  1  0.69720000  0.28650000  0.95190000  1
  H  H66  1  0.73030000  0.84940000  0.86260000  1
  H  H67  1  0.73460000  0.76230000  0.92830000  1
  H  H68  1  0.73930000  0.31080000  0.30960000  1
  H  H69  1  0.76430000  0.09590000  0.18270000  1
  H  H70  1  0.77780000  0.76570000  0.82750000  1
  H  H71  1  0.81190000  0.81970000  0.59120000  1
  H  H72  1  0.83660000  0.59970000  0.81680000  1
  H  H73  1  0.85370000  0.67140000  0.73180000  1
  H  H74  1  0.86220000  0.46250000  0.86220000  1
  H  H75  1  0.88320000  0.32550000  0.56670000  1
  H  H76  1  0.89660000  0.56600000  0.64960000  1
  H  H77  1  0.91000000  0.15170000  0.74730000  1
  H  H78  1  0.92350000  0.15680000  0.20380000  1
  H  H79  1  0.93370000  0.40190000  0.48650000  1
  H  H80  1  0.94180000  0.27720000  0.67620000  1
  H  H81  1  0.94220000  0.08190000  0.81860000  1
  H  H82  1  0.94580000  0.36370000  0.31960000  1
  H  H83  1  0.94730000  0.86110000  0.85340000  1
  H  H84  1  0.95000000  0.07680000  0.16020000  1
  H  H85  1  0.96240000  0.43680000  0.23550000  1
  H  H86  1  0.97690000  0.33990000  0.22810000  1
  H  H87  1  0.98510000  0.64590000  0.46100000  1
  H  H88  1  0.99320000  0.27130000  0.93490000  1
  C  C89  1  0.01080000  0.61900000  0.74160000  1
  C  C90  1  0.02930000  0.86430000  0.84680000  1
  C  C91  1  0.03500000  0.86230000  0.22050000  1
  C  C92  1  0.06390000  0.62620000  0.45650000  1
  C  C93  1  0.07040000  0.61930000  0.01120000  1
  C  C94  1  0.07120000  0.71520000  0.20270000  1
  C  C95  1  0.07180000  0.64020000  0.91780000  1
  C  C96  1  0.07390000  0.68510000  0.28610000  1
  C  C97  1  0.08020000  0.69520000  0.05640000  1
  C  C98  1  0.08200000  0.12870000  0.71700000  1
  C  C99  1  0.09360000  0.66070000  0.14410000  1
  C  C100  1  0.09940000  0.60030000  0.31490000  1
  C  C101  1  0.12030000  0.38540000  0.24540000  1
  C  C102  1  0.12090000  0.57500000  0.17580000  1
  C  C103  1  0.12450000  0.54310000  0.25690000  1
  C  C104  1  0.15200000  0.44930000  0.28860000  1
  C  C105  1  0.16460000  0.81090000  0.92270000  1
  C  C106  1  0.18100000  0.75400000  0.99180000  1
  C  C107  1  0.25020000  0.86430000  0.86300000  1
  C  C108  1  0.25940000  0.21180000  0.39770000  1
  C  C109  1  0.27860000  0.21200000  0.12580000  1
  C  C110  1  0.27880000  0.43280000  0.28640000  1
  C  C111  1  0.28990000  0.75170000  0.00080000  1
  C  C112  1  0.31570000  0.15960000  0.46260000  1
  C  C113  1  0.31620000  0.35610000  0.32990000  1
  C  C114  1  0.34340000  0.68670000  0.68310000  1
  C  C115  1  0.34390000  0.49110000  0.91010000  1
  C  C116  1  0.36330000  0.85690000  0.87330000  1
  C  C117  1  0.36730000  0.49310000  0.23430000  1
  C  C118  1  0.38310000  0.80500000  0.94110000  1
  C  C119  1  0.38760000  0.93910000  0.15450000  1
  C  C120  1  0.40330000  0.23320000  0.11910000  1
  C  C121  1  0.41110000  0.01360000  0.69790000  1
  C  C122  1  0.41770000  0.67440000  0.36580000  1
  C  C123  1  0.41990000  0.45590000  0.83010000  1
  C  C124  1  0.43400000  0.33870000  0.32740000  1
  C  C125  1  0.45370000  0.76480000  0.19610000  1
  C  C126  1  0.46040000  0.80380000  0.11130000  1
  C  C127  1  0.46290000  0.93400000  0.72800000  1
  C  C128  1  0.46340000  0.32040000  0.93330000  1
  C  C129  1  0.46670000  0.36550000  0.84950000  1
  C  C130  1  0.47730000  0.74670000  0.38350000  1
  C  C131  1  0.48390000  0.59780000  0.72430000  1
  C  C132  1  0.48670000  0.47870000  0.23000000  1
  C  C133  1  0.48930000  0.68120000  0.21730000  1
  C  C134  1  0.49450000  0.20040000  0.04620000  1
  C  C135  1  0.49880000  0.23860000  0.95600000  1
  C  C136  1  0.50120000  0.76140000  0.04400000  1
  C  C137  1  0.50550000  0.79960000  0.95380000  1
  C  C138  1  0.51070000  0.31880000  0.78270000  1
  C  C139  1  0.51330000  0.52130000  0.77000000  1
  C  C140  1  0.51610000  0.40220000  0.27570000  1
  C  C141  1  0.52270000  0.25330000  0.61650000  1
  C  C142  1  0.53330000  0.63450000  0.15050000  1
  C  C143  1  0.53660000  0.67960000  0.06670000  1
  C  C144  1  0.53710000  0.06600000  0.27200000  1
  C  C145  1  0.53960000  0.19620000  0.88870000  1
  C  C146  1  0.54630000  0.23520000  0.80390000  1
  C  C147  1  0.56600000  0.66130000  0.67260000  1
  C  C148  1  0.58010000  0.54410000  0.16990000  1
  C  C149  1  0.58230000  0.32560000  0.63420000  1
  C  C150  1  0.58890000  0.98640000  0.30210000  1
  C  C151  1  0.59670000  0.76680000  0.88090000  1
  C  C152  1  0.61240000  0.06090000  0.84550000  1
  C  C153  1  0.61690000  0.19500000  0.05890000  1
  C  C154  1  0.63270000  0.50690000  0.76570000  1
  C  C155  1  0.63670000  0.14310000  0.12670000  1
  C  C156  1  0.65610000  0.50890000  0.08990000  1
  C  C157  1  0.65660000  0.31330000  0.31690000  1
  C  C158  1  0.68380000  0.64390000  0.67010000  1
  C  C159  1  0.68430000  0.84040000  0.53740000  1
  C  C160  1  0.71010000  0.24830000  0.99920000  1
  C  C161  1  0.72120000  0.56720000  0.71360000  1
  C  C162  1  0.72140000  0.78800000  0.87420000  1
  C  C163  1  0.74060000  0.78820000  0.60230000  1
  C  C164  1  0.74980000  0.13570000  0.13700000  1
  C  C165  1  0.81900000  0.24600000  0.00820000  1
  C  C166  1  0.83540000  0.18910000  0.07730000  1
  C  C167  1  0.84800000  0.55070000  0.71140000  1
  C  C168  1  0.87550000  0.45690000  0.74310000  1
  C  C169  1  0.87910000  0.42500000  0.82420000  1
  C  C170  1  0.87970000  0.61460000  0.75460000  1
  C  C171  1  0.90060000  0.39970000  0.68510000  1
  C  C172  1  0.90640000  0.33930000  0.85590000  1
  C  C173  1  0.91800000  0.87130000  0.28300000  1
  C  C174  1  0.91980000  0.30480000  0.94360000  1
  C  C175  1  0.92610000  0.31490000  0.71390000  1
  C  C176  1  0.92820000  0.35980000  0.08220000  1
  C  C177  1  0.92880000  0.28480000  0.79730000  1
  C  C178  1  0.92960000  0.38070000  0.98880000  1
  C  C179  1  0.93610000  0.37380000  0.54350000  1
  C  C180  1  0.96500000  0.13770000  0.77950000  1
  C  C181  1  0.97070000  0.13570000  0.15320000  1
  C  C182  1  0.98920000  0.38100000  0.25840000  1
  O  O183  1  0.04950000  0.81540000  0.91940000  1
  O  O184  1  0.04970000  0.79990000  0.16800000  1
  O  O185  1  0.09560000  0.08000000  0.67010000  1
  O  O186  1  0.10080000  0.56400000  0.39720000  1
  O  O187  1  0.16170000  0.17830000  0.71380000  1
  O  O188  1  0.22580000  0.29900000  0.38250000  1
  O  O189  1  0.31330000  0.19810000  0.51630000  1
  O  O190  1  0.35470000  0.07720000  0.46020000  1
  O  O191  1  0.35950000  0.05890000  0.75040000  1
  O  O192  1  0.36880000  0.60900000  0.73100000  1
  O  O193  1  0.41300000  0.79180000  0.43040000  1
  O  O194  1  0.41330000  0.24970000  0.64750000  1
  O  O195  1  0.41910000  0.03640000  0.62060000  1
  O  O196  1  0.42460000  0.89010000  0.08920000  1
  O  O197  1  0.45270000  0.91320000  0.81730000  1
  O  O198  1  0.48570000  0.64000000  0.29730000  1
  O  O199  1  0.51430000  0.36000000  0.70270000  1
  O  O200  1  0.54730000  0.08680000  0.18270000  1
  O  O201  1  0.57540000  0.10990000  0.91080000  1
  O  O202  1  0.58090000  0.96360000  0.37940000  1
  O  O203  1  0.58670000  0.75030000  0.35250000  1
  O  O204  1  0.58700000  0.20820000  0.56960000  1
  O  O205  1  0.63120000  0.39100000  0.26900000  1
  O  O206  1  0.64050000  0.94110000  0.24960000  1
  O  O207  1  0.64530000  0.92280000  0.53980000  1
  O  O208  1  0.68670000  0.80190000  0.48370000  1
  O  O209  1  0.77420000  0.70100000  0.61750000  1
  O  O210  1  0.83830000  0.82170000  0.28620000  1
  O  O211  1  0.89920000  0.43600000  0.60280000  1
  O  O212  1  0.90440000  0.92000000  0.32990000  1
  O  O213  1  0.95030000  0.20010000  0.83200000  1
  O  O214  1  0.95050000  0.18460000  0.08060000  1
