# generated using pymatgen
data_Zn2H41C54(N7Cl)2
_symmetry_space_group_name_H-M   'P 1'
_cell_length_a   8.96000000
_cell_length_b   28.43700000
_cell_length_c   56.80000000
_cell_angle_alpha   90.00000000
_cell_angle_beta   90.00000000
_cell_angle_gamma   90.00000000
_symmetry_Int_Tables_number   1
_chemical_formula_structural   Zn2H41C54(N7Cl)2
_chemical_formula_sum   'Zn16 H328 C432 N112 Cl16'
_cell_volume   14472.38553600
_cell_formula_units_Z   8
loop_
 _symmetry_equiv_pos_site_id
 _symmetry_equiv_pos_as_xyz
  1  'x, y, z'
loop_
 _atom_site_type_symbol
 _atom_site_label
 _atom_site_symmetry_multiplicity
 _atom_site_fract_x
 _atom_site_fract_y
 _atom_site_fract_z
 _atom_site_occupancy
  Zn  Zn0  1  0.11980000  0.26979000  0.12036000  1
  Zn  Zn1  1  0.11980000  0.73021000  0.62036000  1
  Zn  Zn2  1  0.15630000  0.03105000  0.12988000  1
  Zn  Zn3  1  0.15630000  0.96895000  0.62988000  1
  Zn  Zn4  1  0.34370000  0.46895000  0.62988000  1
  Zn  Zn5  1  0.34370000  0.53105000  0.12988000  1
  Zn  Zn6  1  0.38020000  0.23021000  0.62036000  1
  Zn  Zn7  1  0.38020000  0.76979000  0.12036000  1
  Zn  Zn8  1  0.61980000  0.23021000  0.87964000  1
  Zn  Zn9  1  0.61980000  0.76979000  0.37964000  1
  Zn  Zn10  1  0.65630000  0.46895000  0.87012000  1
  Zn  Zn11  1  0.65630000  0.53105000  0.37012000  1
  Zn  Zn12  1  0.84370000  0.03105000  0.37012000  1
  Zn  Zn13  1  0.84370000  0.96895000  0.87012000  1
  Zn  Zn14  1  0.88020000  0.26979000  0.37964000  1
  Zn  Zn15  1  0.88020000  0.73021000  0.87964000  1
  H  H16  1  0.00300000  0.37510000  0.13990000  1
  H  H17  1  0.00300000  0.62490000  0.63990000  1
  H  H18  1  0.00880000  0.14570000  0.89460000  1
  H  H19  1  0.00880000  0.85430000  0.39460000  1
  H  H20  1  0.01500000  0.06210000  0.60930000  1
  H  H21  1  0.01500000  0.93790000  0.10930000  1
  H  H22  1  0.01570000  0.18010000  0.14830000  1
  H  H23  1  0.01570000  0.81990000  0.64830000  1
  H  H24  1  0.01940000  0.45110000  0.35560000  1
  H  H25  1  0.01940000  0.54890000  0.85560000  1
  H  H26  1  0.01960000  0.41470000  0.67910000  1
  H  H27  1  0.01960000  0.58530000  0.17910000  1
  H  H28  1  0.02210000  0.32470000  0.52590000  1
  H  H29  1  0.02210000  0.67530000  0.02590000  1
  H  H30  1  0.03000000  0.47170000  0.22580000  1
  H  H31  1  0.03000000  0.52830000  0.72580000  1
  H  H32  1  0.03250000  0.12270000  0.10130000  1
  H  H33  1  0.03250000  0.87730000  0.60130000  1
  H  H34  1  0.03810000  0.14830000  0.31610000  1
  H  H35  1  0.03810000  0.85170000  0.81610000  1
  H  H36  1  0.04240000  0.04580000  0.79620000  1
  H  H37  1  0.04240000  0.95420000  0.29620000  1
  H  H38  1  0.04250000  0.34140000  0.48570000  1
  H  H39  1  0.04250000  0.65860000  0.98570000  1
  H  H40  1  0.04350000  0.28400000  0.58390000  1
  H  H41  1  0.04350000  0.71600000  0.08390000  1
  H  H42  1  0.04440000  0.34890000  0.84350000  1
  H  H43  1  0.04440000  0.65110000  0.34350000  1
  H  H44  1  0.04460000  0.34790000  0.89310000  1
  H  H45  1  0.04460000  0.65210000  0.39310000  1
  H  H46  1  0.05180000  0.04400000  0.84080000  1
  H  H47  1  0.05180000  0.95600000  0.34080000  1
  H  H48  1  0.06170000  0.49050000  0.10100000  1
  H  H49  1  0.06170000  0.50950000  0.60100000  1
  H  H50  1  0.09340000  0.34450000  0.40500000  1
  H  H51  1  0.09340000  0.65550000  0.90500000  1
  H  H52  1  0.09520000  0.26330000  0.84720000  1
  H  H53  1  0.09520000  0.73670000  0.34720000  1
  H  H54  1  0.10050000  0.20980000  0.02990000  1
  H  H55  1  0.10050000  0.79020000  0.52990000  1
  H  H56  1  0.10200000  0.08250000  0.29350000  1
  H  H57  1  0.10200000  0.91750000  0.79350000  1
  H  H58  1  0.10700000  0.18730000  0.64660000  1
  H  H59  1  0.10700000  0.81270000  0.14660000  1
  H  H60  1  0.11140000  0.14070000  0.44010000  1
  H  H61  1  0.11140000  0.85930000  0.94010000  1
  H  H62  1  0.11690000  0.21130000  0.91270000  1
  H  H63  1  0.11690000  0.78870000  0.41270000  1
  H  H64  1  0.11800000  0.43750000  0.89230000  1
  H  H65  1  0.11800000  0.56250000  0.39230000  1
  H  H66  1  0.12090000  0.19310000  0.98970000  1
  H  H67  1  0.12090000  0.80690000  0.48970000  1
  H  H68  1  0.13740000  0.48560000  0.83690000  1
  H  H69  1  0.13740000  0.51440000  0.33690000  1
  H  H70  1  0.13890000  0.12010000  0.67860000  1
  H  H71  1  0.13890000  0.87990000  0.17860000  1
  H  H72  1  0.14810000  0.40840000  0.20720000  1
  H  H73  1  0.14810000  0.59160000  0.70720000  1
  H  H74  1  0.15000000  0.19240000  0.53040000  1
  H  H75  1  0.15000000  0.80760000  0.03040000  1
  H  H76  1  0.15040000  0.05350000  0.73460000  1
  H  H77  1  0.15040000  0.94650000  0.23460000  1
  H  H78  1  0.15080000  0.23710000  0.06590000  1
  H  H79  1  0.15080000  0.76290000  0.56590000  1
  H  H80  1  0.15110000  0.34170000  0.44870000  1
  H  H81  1  0.15110000  0.65830000  0.94870000  1
  H  H82  1  0.19020000  0.40400000  0.75820000  1
  H  H83  1  0.19020000  0.59600000  0.25820000  1
  H  H84  1  0.19380000  0.00820000  0.37300000  1
  H  H85  1  0.19380000  0.99180000  0.87300000  1
  H  H86  1  0.19800000  0.20710000  0.46030000  1
  H  H87  1  0.19800000  0.79290000  0.96030000  1
  H  H88  1  0.22060000  0.08420000  0.21990000  1
  H  H89  1  0.22060000  0.91580000  0.71990000  1
  H  H90  1  0.23960000  0.04170000  0.77290000  1
  H  H91  1  0.23960000  0.95830000  0.27290000  1
  H  H92  1  0.24180000  0.37320000  0.04860000  1
  H  H93  1  0.24180000  0.62680000  0.54860000  1
  H  H94  1  0.24300000  0.29320000  0.37040000  1
  H  H95  1  0.24300000  0.70680000  0.87040000  1
  H  H96  1  0.24780000  0.05610000  0.18090000  1
  H  H97  1  0.24780000  0.94390000  0.68090000  1
  H  H98  1  0.25220000  0.44390000  0.68090000  1
  H  H99  1  0.25220000  0.55610000  0.18090000  1
  H  H100  1  0.25700000  0.20680000  0.87040000  1
  H  H101  1  0.25700000  0.79320000  0.37040000  1
  H  H102  1  0.25820000  0.12680000  0.54860000  1
  H  H103  1  0.25820000  0.87320000  0.04860000  1
  H  H104  1  0.26040000  0.45830000  0.27290000  1
  H  H105  1  0.26040000  0.54170000  0.77290000  1
  H  H106  1  0.27940000  0.41580000  0.71990000  1
  H  H107  1  0.27940000  0.58420000  0.21990000  1
  H  H108  1  0.30200000  0.29290000  0.96030000  1
  H  H109  1  0.30200000  0.70710000  0.46030000  1
  H  H110  1  0.30620000  0.49180000  0.87300000  1
  H  H111  1  0.30620000  0.50820000  0.37300000  1
  H  H112  1  0.30980000  0.09600000  0.25820000  1
  H  H113  1  0.30980000  0.90400000  0.75820000  1
  H  H114  1  0.34890000  0.15830000  0.94870000  1
  H  H115  1  0.34890000  0.84170000  0.44870000  1
  H  H116  1  0.34920000  0.26290000  0.56590000  1
  H  H117  1  0.34920000  0.73710000  0.06590000  1
  H  H118  1  0.34960000  0.44650000  0.23460000  1
  H  H119  1  0.34960000  0.55350000  0.73460000  1
  H  H120  1  0.35000000  0.30760000  0.03040000  1
  H  H121  1  0.35000000  0.69240000  0.53040000  1
  H  H122  1  0.35190000  0.09160000  0.70720000  1
  H  H123  1  0.35190000  0.90840000  0.20720000  1
  H  H124  1  0.36110000  0.37990000  0.17860000  1
  H  H125  1  0.36110000  0.62010000  0.67860000  1
  H  H126  1  0.36260000  0.01440000  0.33690000  1
  H  H127  1  0.36260000  0.98560000  0.83690000  1
  H  H128  1  0.37910000  0.30690000  0.48970000  1
  H  H129  1  0.37910000  0.69310000  0.98970000  1
  H  H130  1  0.38200000  0.06250000  0.39230000  1
  H  H131  1  0.38200000  0.93750000  0.89230000  1
  H  H132  1  0.38310000  0.28870000  0.41270000  1
  H  H133  1  0.38310000  0.71130000  0.91270000  1
  H  H134  1  0.38860000  0.35930000  0.94010000  1
  H  H135  1  0.38860000  0.64070000  0.44010000  1
  H  H136  1  0.39300000  0.31270000  0.14660000  1
  H  H137  1  0.39300000  0.68730000  0.64660000  1
  H  H138  1  0.39800000  0.41750000  0.79350000  1
  H  H139  1  0.39800000  0.58250000  0.29350000  1
  H  H140  1  0.39950000  0.29020000  0.52990000  1
  H  H141  1  0.39950000  0.70980000  0.02990000  1
  H  H142  1  0.40480000  0.23670000  0.34720000  1
  H  H143  1  0.40480000  0.76330000  0.84720000  1
  H  H144  1  0.40660000  0.15550000  0.90500000  1
  H  H145  1  0.40660000  0.84450000  0.40500000  1
  H  H146  1  0.43830000  0.00950000  0.60100000  1
  H  H147  1  0.43830000  0.99050000  0.10100000  1
  H  H148  1  0.44820000  0.45600000  0.34080000  1
  H  H149  1  0.44820000  0.54400000  0.84080000  1
  H  H150  1  0.45540000  0.15210000  0.39310000  1
  H  H151  1  0.45540000  0.84790000  0.89310000  1
  H  H152  1  0.45560000  0.15110000  0.34350000  1
  H  H153  1  0.45560000  0.84890000  0.84350000  1
  H  H154  1  0.45650000  0.21600000  0.08390000  1
  H  H155  1  0.45650000  0.78400000  0.58390000  1
  H  H156  1  0.45750000  0.15860000  0.98570000  1
  H  H157  1  0.45750000  0.84140000  0.48570000  1
  H  H158  1  0.45760000  0.45420000  0.29620000  1
  H  H159  1  0.45760000  0.54580000  0.79620000  1
  H  H160  1  0.46190000  0.35170000  0.81610000  1
  H  H161  1  0.46190000  0.64830000  0.31610000  1
  H  H162  1  0.46750000  0.37730000  0.60130000  1
  H  H163  1  0.46750000  0.62270000  0.10130000  1
  H  H164  1  0.47000000  0.02830000  0.72580000  1
  H  H165  1  0.47000000  0.97170000  0.22580000  1
  H  H166  1  0.47790000  0.17530000  0.02590000  1
  H  H167  1  0.47790000  0.82470000  0.52590000  1
  H  H168  1  0.48040000  0.08530000  0.17910000  1
  H  H169  1  0.48040000  0.91470000  0.67910000  1
  H  H170  1  0.48060000  0.04890000  0.85560000  1
  H  H171  1  0.48060000  0.95110000  0.35560000  1
  H  H172  1  0.48430000  0.31990000  0.64830000  1
  H  H173  1  0.48430000  0.68010000  0.14830000  1
  H  H174  1  0.48500000  0.43790000  0.10930000  1
  H  H175  1  0.48500000  0.56210000  0.60930000  1
  H  H176  1  0.49120000  0.35430000  0.39460000  1
  H  H177  1  0.49120000  0.64570000  0.89460000  1
  H  H178  1  0.49700000  0.12490000  0.63990000  1
  H  H179  1  0.49700000  0.87510000  0.13990000  1
  H  H180  1  0.50300000  0.12490000  0.86010000  1
  H  H181  1  0.50300000  0.87510000  0.36010000  1
  H  H182  1  0.50880000  0.35430000  0.10540000  1
  H  H183  1  0.50880000  0.64570000  0.60540000  1
  H  H184  1  0.51500000  0.43790000  0.39070000  1
  H  H185  1  0.51500000  0.56210000  0.89070000  1
  H  H186  1  0.51570000  0.31990000  0.85170000  1
  H  H187  1  0.51570000  0.68010000  0.35170000  1
  H  H188  1  0.51940000  0.04890000  0.64440000  1
  H  H189  1  0.51940000  0.95110000  0.14440000  1
  H  H190  1  0.51960000  0.08530000  0.32090000  1
  H  H191  1  0.51960000  0.91470000  0.82090000  1
  H  H192  1  0.52210000  0.17530000  0.47410000  1
  H  H193  1  0.52210000  0.82470000  0.97410000  1
  H  H194  1  0.53000000  0.02830000  0.77420000  1
  H  H195  1  0.53000000  0.97170000  0.27420000  1
  H  H196  1  0.53250000  0.37730000  0.89870000  1
  H  H197  1  0.53250000  0.62270000  0.39870000  1
  H  H198  1  0.53810000  0.35170000  0.68390000  1
  H  H199  1  0.53810000  0.64830000  0.18390000  1
  H  H200  1  0.54240000  0.45420000  0.20380000  1
  H  H201  1  0.54240000  0.54580000  0.70380000  1
  H  H202  1  0.54250000  0.15860000  0.51430000  1
  H  H203  1  0.54250000  0.84140000  0.01430000  1
  H  H204  1  0.54350000  0.21600000  0.41610000  1
  H  H205  1  0.54350000  0.78400000  0.91610000  1
  H  H206  1  0.54440000  0.15110000  0.15650000  1
  H  H207  1  0.54440000  0.84890000  0.65650000  1
  H  H208  1  0.54460000  0.15210000  0.10690000  1
  H  H209  1  0.54460000  0.84790000  0.60690000  1
  H  H210  1  0.55180000  0.45600000  0.15920000  1
  H  H211  1  0.55180000  0.54400000  0.65920000  1
  H  H212  1  0.56170000  0.00950000  0.89900000  1
  H  H213  1  0.56170000  0.99050000  0.39900000  1
  H  H214  1  0.59340000  0.15550000  0.59500000  1
  H  H215  1  0.59340000  0.84450000  0.09500000  1
  H  H216  1  0.59520000  0.23670000  0.15280000  1
  H  H217  1  0.59520000  0.76330000  0.65280000  1
  H  H218  1  0.60050000  0.29020000  0.97010000  1
  H  H219  1  0.60050000  0.70980000  0.47010000  1
  H  H220  1  0.60200000  0.41750000  0.70650000  1
  H  H221  1  0.60200000  0.58250000  0.20650000  1
  H  H222  1  0.60700000  0.31270000  0.35340000  1
  H  H223  1  0.60700000  0.68730000  0.85340000  1
  H  H224  1  0.61140000  0.35930000  0.55990000  1
  H  H225  1  0.61140000  0.64070000  0.05990000  1
  H  H226  1  0.61690000  0.28870000  0.08730000  1
  H  H227  1  0.61690000  0.71130000  0.58730000  1
  H  H228  1  0.61800000  0.06250000  0.10770000  1
  H  H229  1  0.61800000  0.93750000  0.60770000  1
  H  H230  1  0.62090000  0.30690000  0.01030000  1
  H  H231  1  0.62090000  0.69310000  0.51030000  1
  H  H232  1  0.63740000  0.01440000  0.16310000  1
  H  H233  1  0.63740000  0.98560000  0.66310000  1
  H  H234  1  0.63890000  0.37990000  0.32140000  1
  H  H235  1  0.63890000  0.62010000  0.82140000  1
  H  H236  1  0.64810000  0.09160000  0.79280000  1
  H  H237  1  0.64810000  0.90840000  0.29280000  1
  H  H238  1  0.65000000  0.30760000  0.46960000  1
  H  H239  1  0.65000000  0.69240000  0.96960000  1
  H  H240  1  0.65040000  0.44650000  0.26540000  1
  H  H241  1  0.65040000  0.55350000  0.76540000  1
  H  H242  1  0.65080000  0.26290000  0.93410000  1
  H  H243  1  0.65080000  0.73710000  0.43410000  1
  H  H244  1  0.65110000  0.15830000  0.55130000  1
  H  H245  1  0.65110000  0.84170000  0.05130000  1
  H  H246  1  0.69020000  0.09600000  0.24180000  1
  H  H247  1  0.69020000  0.90400000  0.74180000  1
  H  H248  1  0.69380000  0.49180000  0.62700000  1
  H  H249  1  0.69380000  0.50820000  0.12700000  1
  H  H250  1  0.69800000  0.29290000  0.53970000  1
  H  H251  1  0.69800000  0.70710000  0.03970000  1
  H  H252  1  0.72060000  0.41580000  0.78010000  1
  H  H253  1  0.72060000  0.58420000  0.28010000  1
  H  H254  1  0.73960000  0.45830000  0.22710000  1
  H  H255  1  0.73960000  0.54170000  0.72710000  1
  H  H256  1  0.74180000  0.12680000  0.95140000  1
  H  H257  1  0.74180000  0.87320000  0.45140000  1
  H  H258  1  0.74300000  0.20680000  0.62960000  1
  H  H259  1  0.74300000  0.79320000  0.12960000  1
  H  H260  1  0.74780000  0.44390000  0.81910000  1
  H  H261  1  0.74780000  0.55610000  0.31910000  1
  H  H262  1  0.75220000  0.05610000  0.31910000  1
  H  H263  1  0.75220000  0.94390000  0.81910000  1
  H  H264  1  0.75700000  0.29320000  0.12960000  1
  H  H265  1  0.75700000  0.70680000  0.62960000  1
  H  H266  1  0.75820000  0.37320000  0.45140000  1
  H  H267  1  0.75820000  0.62680000  0.95140000  1
  H  H268  1  0.76040000  0.04170000  0.72710000  1
  H  H269  1  0.76040000  0.95830000  0.22710000  1
  H  H270  1  0.77940000  0.08420000  0.28010000  1
  H  H271  1  0.77940000  0.91580000  0.78010000  1
  H  H272  1  0.80200000  0.20710000  0.03970000  1
  H  H273  1  0.80200000  0.79290000  0.53970000  1
  H  H274  1  0.80620000  0.00820000  0.12700000  1
  H  H275  1  0.80620000  0.99180000  0.62700000  1
  H  H276  1  0.80980000  0.40400000  0.74180000  1
  H  H277  1  0.80980000  0.59600000  0.24180000  1
  H  H278  1  0.84890000  0.34170000  0.05130000  1
  H  H279  1  0.84890000  0.65830000  0.55130000  1
  H  H280  1  0.84920000  0.23710000  0.43410000  1
  H  H281  1  0.84920000  0.76290000  0.93410000  1
  H  H282  1  0.84960000  0.05350000  0.76540000  1
  H  H283  1  0.84960000  0.94650000  0.26540000  1
  H  H284  1  0.85000000  0.19240000  0.96960000  1
  H  H285  1  0.85000000  0.80760000  0.46960000  1
  H  H286  1  0.85190000  0.40840000  0.29280000  1
  H  H287  1  0.85190000  0.59160000  0.79280000  1
  H  H288  1  0.86110000  0.12010000  0.82140000  1
  H  H289  1  0.86110000  0.87990000  0.32140000  1
  H  H290  1  0.86260000  0.48560000  0.66310000  1
  H  H291  1  0.86260000  0.51440000  0.16310000  1
  H  H292  1  0.87910000  0.19310000  0.51030000  1
  H  H293  1  0.87910000  0.80690000  0.01030000  1
  H  H294  1  0.88200000  0.43750000  0.60770000  1
  H  H295  1  0.88200000  0.56250000  0.10770000  1
  H  H296  1  0.88310000  0.21130000  0.58730000  1
  H  H297  1  0.88310000  0.78870000  0.08730000  1
  H  H298  1  0.88860000  0.14070000  0.05990000  1
  H  H299  1  0.88860000  0.85930000  0.55990000  1
  H  H300  1  0.89300000  0.18730000  0.85340000  1
  H  H301  1  0.89300000  0.81270000  0.35340000  1
  H  H302  1  0.89800000  0.08250000  0.20650000  1
  H  H303  1  0.89800000  0.91750000  0.70650000  1
  H  H304  1  0.89950000  0.20980000  0.47010000  1
  H  H305  1  0.89950000  0.79020000  0.97010000  1
  H  H306  1  0.90480000  0.26330000  0.65280000  1
  H  H307  1  0.90480000  0.73670000  0.15280000  1
  H  H308  1  0.90660000  0.34450000  0.09500000  1
  H  H309  1  0.90660000  0.65550000  0.59500000  1
  H  H310  1  0.93830000  0.49050000  0.39900000  1
  H  H311  1  0.93830000  0.50950000  0.89900000  1
  H  H312  1  0.94820000  0.04400000  0.65920000  1
  H  H313  1  0.94820000  0.95600000  0.15920000  1
  H  H314  1  0.95540000  0.34790000  0.60690000  1
  H  H315  1  0.95540000  0.65210000  0.10690000  1
  H  H316  1  0.95560000  0.34890000  0.65650000  1
  H  H317  1  0.95560000  0.65110000  0.15650000  1
  H  H318  1  0.95650000  0.28400000  0.91610000  1
  H  H319  1  0.95650000  0.71600000  0.41610000  1
  H  H320  1  0.95750000  0.34140000  0.01430000  1
  H  H321  1  0.95750000  0.65860000  0.51430000  1
  H  H322  1  0.95760000  0.04580000  0.70380000  1
  H  H323  1  0.95760000  0.95420000  0.20380000  1
  H  H324  1  0.96190000  0.14830000  0.18390000  1
  H  H325  1  0.96190000  0.85170000  0.68390000  1
  H  H326  1  0.96750000  0.12270000  0.39870000  1
  H  H327  1  0.96750000  0.87730000  0.89870000  1
  H  H328  1  0.97000000  0.47170000  0.27420000  1
  H  H329  1  0.97000000  0.52830000  0.77420000  1
  H  H330  1  0.97790000  0.32470000  0.97410000  1
  H  H331  1  0.97790000  0.67530000  0.47410000  1
  H  H332  1  0.98040000  0.41470000  0.82090000  1
  H  H333  1  0.98040000  0.58530000  0.32090000  1
  H  H334  1  0.98060000  0.45110000  0.14440000  1
  H  H335  1  0.98060000  0.54890000  0.64440000  1
  H  H336  1  0.98430000  0.18010000  0.35170000  1
  H  H337  1  0.98430000  0.81990000  0.85170000  1
  H  H338  1  0.98500000  0.06210000  0.89070000  1
  H  H339  1  0.98500000  0.93790000  0.39070000  1
  H  H340  1  0.99120000  0.14570000  0.60540000  1
  H  H341  1  0.99120000  0.85430000  0.10540000  1
  H  H342  1  0.99700000  0.37510000  0.36010000  1
  H  H343  1  0.99700000  0.62490000  0.86010000  1
  C  C344  1  0.00280000  0.30130000  0.98546000  1
  C  C345  1  0.00280000  0.69870000  0.48546000  1
  C  C346  1  0.00640000  0.20800000  0.55716000  1
  C  C347  1  0.00640000  0.79200000  0.05716000  1
  C  C348  1  0.00830000  0.02450000  0.66890000  1
  C  C349  1  0.00830000  0.97550000  0.16890000  1
  C  C350  1  0.00930000  0.45530000  0.33904000  1
  C  C351  1  0.00930000  0.54470000  0.83904000  1
  C  C352  1  0.00940000  0.31130000  0.49065000  1
  C  C353  1  0.00940000  0.68870000  0.99065000  1
  C  C354  1  0.01360000  0.02550000  0.69390000  1
  C  C355  1  0.01360000  0.97450000  0.19390000  1
  C  C356  1  0.02000000  0.46750000  0.20929000  1
  C  C357  1  0.02000000  0.53250000  0.70929000  1
  C  C358  1  0.02350000  0.15520000  0.59017000  1
  C  C359  1  0.02350000  0.84480000  0.09017000  1
  C  C360  1  0.02710000  0.27720000  0.02591000  1
  C  C361  1  0.02710000  0.72280000  0.52591000  1
  C  C362  1  0.04080000  0.19410000  0.92059000  1
  C  C363  1  0.04080000  0.80590000  0.42059000  1
  C  C364  1  0.04550000  0.10140000  0.39479000  1
  C  C365  1  0.04550000  0.89860000  0.89479000  1
  C  C366  1  0.04670000  0.29930000  0.92030000  1
  C  C367  1  0.04670000  0.70070000  0.42030000  1
  C  C368  1  0.05130000  0.25730000  0.97815000  1
  C  C369  1  0.05130000  0.74270000  0.47815000  1
  C  C370  1  0.05230000  0.32310000  0.41601000  1
  C  C371  1  0.05230000  0.67690000  0.91601000  1
  C  C372  1  0.06480000  0.49900000  0.30381000  1
  C  C373  1  0.06480000  0.50100000  0.80381000  1
  C  C374  1  0.06690000  0.20080000  0.35340000  1
  C  C375  1  0.06690000  0.79920000  0.85340000  1
  C  C376  1  0.07550000  0.42380000  0.17406000  1
  C  C377  1  0.07550000  0.57620000  0.67406000  1
  C  C378  1  0.07560000  0.23310000  0.01859000  1
  C  C379  1  0.07560000  0.76690000  0.51859000  1
  C  C380  1  0.07820000  0.40200000  0.81990000  1
  C  C381  1  0.07820000  0.59800000  0.31990000  1
  C  C382  1  0.07950000  0.49290000  0.32798000  1
  C  C383  1  0.07950000  0.50710000  0.82798000  1
  C  C384  1  0.08440000  0.26290000  0.06770000  1
  C  C385  1  0.08440000  0.73710000  0.56770000  1
  C  C386  1  0.08470000  0.32150000  0.44047000  1
  C  C387  1  0.08470000  0.67850000  0.94047000  1
  C  C388  1  0.08770000  0.22320000  0.99471000  1
  C  C389  1  0.08770000  0.77680000  0.49471000  1
  C  C390  1  0.09020000  0.42990000  0.19823000  1
  C  C391  1  0.09020000  0.57010000  0.69823000  1
  C  C392  1  0.09600000  0.36530000  0.14610000  1
  C  C393  1  0.09600000  0.63470000  0.64610000  1
  C  C394  1  0.10070000  0.33670000  0.90610000  1
  C  C395  1  0.10070000  0.66330000  0.40610000  1
  C  C396  1  0.11580000  0.05850000  0.60440000  1
  C  C397  1  0.11580000  0.94150000  0.10440000  1
  C  C398  1  0.11620000  0.36290000  0.83333000  1
  C  C399  1  0.11620000  0.63710000  0.33333333  1
  C  C400  1  0.11780000  0.18290000  0.54566000  1
  C  C401  1  0.11780000  0.81710000  0.04566000  1
  C  C402  1  0.12330000  0.28480000  0.94030000  1
  C  C403  1  0.12330000  0.71520000  0.44030000  1
  C  C404  1  0.13490000  0.13010000  0.57867000  1
  C  C405  1  0.13490000  0.86990000  0.07867000  1
  C  C406  1  0.13580000  0.13550000  0.31710000  1
  C  C407  1  0.13580000  0.86450000  0.81710000  1
  C  C408  1  0.14730000  0.47090000  0.09978000  1
  C  C409  1  0.14730000  0.52910000  0.59978000  1
  C  C410  1  0.17220000  0.03740000  0.38037000  1
  C  C411  1  0.17220000  0.96260000  0.88037000  1
  C  C412  1  0.17380000  0.09640000  0.30365000  1
  C  C413  1  0.17380000  0.90360000  0.80365000  1
  C  C414  1  0.17600000  0.03160000  0.18100000  1
  C  C415  1  0.17600000  0.96840000  0.68100000  1
  C  C416  1  0.17710000  0.01430000  0.22364000  1
  C  C417  1  0.17710000  0.98570000  0.72364000  1
  C  C418  1  0.18200000  0.14390000  0.55641000  1
  C  C419  1  0.18200000  0.85610000  0.05641000  1
  C  C420  1  0.18270000  0.02310000  0.73940000  1
  C  C421  1  0.18270000  0.97690000  0.23940000  1
  C  C422  1  0.18320000  0.42230000  0.80508000  1
  C  C423  1  0.18320000  0.57770000  0.30508000  1
  C  C424  1  0.19300000  0.16890000  0.64950000  1
  C  C425  1  0.19300000  0.83110000  0.14950000  1
  C  C426  1  0.19450000  0.15750000  0.43400000  1
  C  C427  1  0.19450000  0.84250000  0.93400000  1
  C  C428  1  0.19610000  0.08970000  0.58955000  1
  C  C429  1  0.19610000  0.91030000  0.08955000  1
  C  C430  1  0.19770000  0.26760000  0.85090000  1
  C  C431  1  0.19770000  0.73240000  0.35090000  1
  C  C432  1  0.20700000  0.13030000  0.66690000  1
  C  C433  1  0.20700000  0.86970000  0.16690000  1
  C  C434  1  0.21180000  0.26400000  0.36390000  1
  C  C435  1  0.21180000  0.73600000  0.86390000  1
  C  C436  1  0.21690000  0.47170000  0.76911000  1
  C  C437  1  0.21690000  0.52830000  0.26911000  1
  C  C438  1  0.22250000  0.43220000  0.89120000  1
  C  C439  1  0.22250000  0.56780000  0.39120000  1
  C  C440  1  0.22260000  0.43430000  0.75340000  1
  C  C441  1  0.22260000  0.56570000  0.25340000  1
  C  C442  1  0.22440000  0.05870000  0.23065000  1
  C  C443  1  0.22440000  0.94130000  0.73065000  1
  C  C444  1  0.23570000  0.01610000  0.76210000  1
  C  C445  1  0.23570000  0.98390000  0.26210000  1
  C  C446  1  0.24080000  0.15590000  0.33190000  1
  C  C447  1  0.24080000  0.84410000  0.83190000  1
  C  C448  1  0.24270000  0.35710000  0.91200000  1
  C  C449  1  0.24270000  0.64290000  0.41200000  1
  C  C450  1  0.24960000  0.30440000  0.94700000  1
  C  C451  1  0.24960000  0.69560000  0.44700000  1
  C  C452  1  0.25040000  0.19560000  0.44700000  1
  C  C453  1  0.25040000  0.80440000  0.94700000  1
  C  C454  1  0.25730000  0.14290000  0.41200000  1
  C  C455  1  0.25730000  0.85710000  0.91200000  1
  C  C456  1  0.25920000  0.34410000  0.83190000  1
  C  C457  1  0.25920000  0.65590000  0.33190000  1
  C  C458  1  0.26430000  0.48390000  0.26210000  1
  C  C459  1  0.26430000  0.51610000  0.76210000  1
  C  C460  1  0.27560000  0.44130000  0.73065000  1
  C  C461  1  0.27560000  0.55870000  0.23065000  1
  C  C462  1  0.27740000  0.06570000  0.25340000  1
  C  C463  1  0.27740000  0.93430000  0.75340000  1
  C  C464  1  0.27750000  0.06780000  0.39120000  1
  C  C465  1  0.27750000  0.93220000  0.89120000  1
  C  C466  1  0.28310000  0.02830000  0.26911000  1
  C  C467  1  0.28310000  0.97170000  0.76911000  1
  C  C468  1  0.28820000  0.23600000  0.86390000  1
  C  C469  1  0.28820000  0.76400000  0.36390000  1
  C  C470  1  0.29300000  0.36970000  0.16690000  1
  C  C471  1  0.29300000  0.63030000  0.66690000  1
  C  C472  1  0.30230000  0.23240000  0.35090000  1
  C  C473  1  0.30230000  0.76760000  0.85090000  1
  C  C474  1  0.30390000  0.41030000  0.08955000  1
  C  C475  1  0.30390000  0.58970000  0.58955000  1
  C  C476  1  0.30550000  0.34250000  0.93400000  1
  C  C477  1  0.30550000  0.65750000  0.43400000  1
  C  C478  1  0.30700000  0.33110000  0.14950000  1
  C  C479  1  0.30700000  0.66890000  0.64950000  1
  C  C480  1  0.31680000  0.07770000  0.30508000  1
  C  C481  1  0.31680000  0.92230000  0.80508000  1
  C  C482  1  0.31730000  0.47690000  0.23940000  1
  C  C483  1  0.31730000  0.52310000  0.73940000  1
  C  C484  1  0.31800000  0.35610000  0.05641000  1
  C  C485  1  0.31800000  0.64390000  0.55641000  1
  C  C486  1  0.32290000  0.48570000  0.72364000  1
  C  C487  1  0.32290000  0.51430000  0.22364000  1
  C  C488  1  0.32400000  0.46840000  0.68100000  1
  C  C489  1  0.32400000  0.53160000  0.18100000  1
  C  C490  1  0.32620000  0.40360000  0.80365000  1
  C  C491  1  0.32620000  0.59640000  0.30365000  1
  C  C492  1  0.32780000  0.46260000  0.88037000  1
  C  C493  1  0.32780000  0.53740000  0.38037000  1
  C  C494  1  0.35270000  0.02910000  0.59978000  1
  C  C495  1  0.35270000  0.97090000  0.09978000  1
  C  C496  1  0.36420000  0.36450000  0.81710000  1
  C  C497  1  0.36420000  0.63550000  0.31710000  1
  C  C498  1  0.36510000  0.36990000  0.07867000  1
  C  C499  1  0.36510000  0.63010000  0.57867000  1
  C  C500  1  0.37670000  0.21520000  0.44030000  1
  C  C501  1  0.37670000  0.78480000  0.94030000  1
  C  C502  1  0.38220000  0.31710000  0.04566000  1
  C  C503  1  0.38220000  0.68290000  0.54566000  1
  C  C504  1  0.38380000  0.13710000  0.33333333  1
  C  C505  1  0.38380000  0.86290000  0.83333000  1
  C  C506  1  0.38420000  0.44150000  0.10440000  1
  C  C507  1  0.38420000  0.55850000  0.60440000  1
  C  C508  1  0.39930000  0.16330000  0.40610000  1
  C  C509  1  0.39930000  0.83670000  0.90610000  1
  C  C510  1  0.40400000  0.13470000  0.64610000  1
  C  C511  1  0.40400000  0.86530000  0.14610000  1
  C  C512  1  0.40980000  0.07010000  0.69823000  1
  C  C513  1  0.40980000  0.92990000  0.19823000  1
  C  C514  1  0.41230000  0.27680000  0.49471000  1
  C  C515  1  0.41230000  0.72320000  0.99471000  1
  C  C516  1  0.41530000  0.17850000  0.94047000  1
  C  C517  1  0.41530000  0.82150000  0.44047000  1
  C  C518  1  0.41560000  0.23710000  0.56770000  1
  C  C519  1  0.41560000  0.76290000  0.06770000  1
  C  C520  1  0.42050000  0.00710000  0.82798000  1
  C  C521  1  0.42050000  0.99290000  0.32798000  1
  C  C522  1  0.42180000  0.09800000  0.31990000  1
  C  C523  1  0.42180000  0.90200000  0.81990000  1
  C  C524  1  0.42440000  0.26690000  0.51859000  1
  C  C525  1  0.42440000  0.73310000  0.01859000  1
  C  C526  1  0.42450000  0.07620000  0.67406000  1
  C  C527  1  0.42450000  0.92380000  0.17406000  1
  C  C528  1  0.43310000  0.29920000  0.85340000  1
  C  C529  1  0.43310000  0.70080000  0.35340000  1
  C  C530  1  0.43520000  0.00100000  0.80381000  1
  C  C531  1  0.43520000  0.99900000  0.30381000  1
  C  C532  1  0.44770000  0.17690000  0.91601000  1
  C  C533  1  0.44770000  0.82310000  0.41601000  1
  C  C534  1  0.44870000  0.24270000  0.47815000  1
  C  C535  1  0.44870000  0.75730000  0.97815000  1
  C  C536  1  0.45330000  0.20070000  0.42030000  1
  C  C537  1  0.45330000  0.79930000  0.92030000  1
  C  C538  1  0.45450000  0.39860000  0.89479000  1
  C  C539  1  0.45450000  0.60140000  0.39479000  1
  C  C540  1  0.45920000  0.30590000  0.42059000  1
  C  C541  1  0.45920000  0.69410000  0.92059000  1
  C  C542  1  0.47290000  0.22280000  0.52591000  1
  C  C543  1  0.47290000  0.77720000  0.02591000  1
  C  C544  1  0.47650000  0.34480000  0.09017000  1
  C  C545  1  0.47650000  0.65520000  0.59017000  1
  C  C546  1  0.48000000  0.03250000  0.70929000  1
  C  C547  1  0.48000000  0.96750000  0.20929000  1
  C  C548  1  0.48640000  0.47450000  0.19390000  1
  C  C549  1  0.48640000  0.52550000  0.69390000  1
  C  C550  1  0.49060000  0.18870000  0.99065000  1
  C  C551  1  0.49060000  0.81130000  0.49065000  1
  C  C552  1  0.49070000  0.04470000  0.83904000  1
  C  C553  1  0.49070000  0.95530000  0.33904000  1
  C  C554  1  0.49170000  0.47550000  0.16890000  1
  C  C555  1  0.49170000  0.52450000  0.66890000  1
  C  C556  1  0.49360000  0.29200000  0.05716000  1
  C  C557  1  0.49360000  0.70800000  0.55716000  1
  C  C558  1  0.49720000  0.19870000  0.48546000  1
  C  C559  1  0.49720000  0.80130000  0.98546000  1
  C  C560  1  0.50280000  0.19870000  0.01454000  1
  C  C561  1  0.50280000  0.80130000  0.51454000  1
  C  C562  1  0.50640000  0.29200000  0.44284000  1
  C  C563  1  0.50640000  0.70800000  0.94284000  1
  C  C564  1  0.50830000  0.47550000  0.33110000  1
  C  C565  1  0.50830000  0.52450000  0.83110000  1
  C  C566  1  0.50930000  0.04470000  0.66096000  1
  C  C567  1  0.50930000  0.95530000  0.16096000  1
  C  C568  1  0.50940000  0.18870000  0.50935000  1
  C  C569  1  0.50940000  0.81130000  0.00935000  1
  C  C570  1  0.51360000  0.47450000  0.30610000  1
  C  C571  1  0.51360000  0.52550000  0.80610000  1
  C  C572  1  0.52000000  0.03250000  0.79071000  1
  C  C573  1  0.52000000  0.96750000  0.29071000  1
  C  C574  1  0.52350000  0.34480000  0.40983000  1
  C  C575  1  0.52350000  0.65520000  0.90983000  1
  C  C576  1  0.52710000  0.22280000  0.97409000  1
  C  C577  1  0.52710000  0.77720000  0.47409000  1
  C  C578  1  0.54080000  0.30590000  0.07941000  1
  C  C579  1  0.54080000  0.69410000  0.57941000  1
  C  C580  1  0.54550000  0.39860000  0.60521000  1
  C  C581  1  0.54550000  0.60140000  0.10521000  1
  C  C582  1  0.54670000  0.20070000  0.07970000  1
  C  C583  1  0.54670000  0.79930000  0.57970000  1
  C  C584  1  0.55130000  0.24270000  0.02185000  1
  C  C585  1  0.55130000  0.75730000  0.52185000  1
  C  C586  1  0.55230000  0.17690000  0.58399000  1
  C  C587  1  0.55230000  0.82310000  0.08399000  1
  C  C588  1  0.56480000  0.00100000  0.69619000  1
  C  C589  1  0.56480000  0.99900000  0.19619000  1
  C  C590  1  0.56690000  0.29920000  0.64660000  1
  C  C591  1  0.56690000  0.70080000  0.14660000  1
  C  C592  1  0.57550000  0.07620000  0.82594000  1
  C  C593  1  0.57550000  0.92380000  0.32594000  1
  C  C594  1  0.57560000  0.26690000  0.98141000  1
  C  C595  1  0.57560000  0.73310000  0.48141000  1
  C  C596  1  0.57820000  0.09800000  0.18010000  1
  C  C597  1  0.57820000  0.90200000  0.68010000  1
  C  C598  1  0.57950000  0.00710000  0.67202000  1
  C  C599  1  0.57950000  0.99290000  0.17202000  1
  C  C600  1  0.58440000  0.23710000  0.93230000  1
  C  C601  1  0.58440000  0.76290000  0.43230000  1
  C  C602  1  0.58470000  0.17850000  0.55953000  1
  C  C603  1  0.58470000  0.82150000  0.05953000  1
  C  C604  1  0.58770000  0.27680000  0.00529000  1
  C  C605  1  0.58770000  0.72320000  0.50529000  1
  C  C606  1  0.59020000  0.07010000  0.80177000  1
  C  C607  1  0.59020000  0.92990000  0.30177000  1
  C  C608  1  0.59600000  0.13470000  0.85390000  1
  C  C609  1  0.59600000  0.86530000  0.35390000  1
  C  C610  1  0.60070000  0.16330000  0.09390000  1
  C  C611  1  0.60070000  0.83670000  0.59390000  1
  C  C612  1  0.61580000  0.44150000  0.39560000  1
  C  C613  1  0.61580000  0.55850000  0.89560000  1
  C  C614  1  0.61620000  0.13710000  0.16667000  1
  C  C615  1  0.61620000  0.86290000  0.66666667  1
  C  C616  1  0.61780000  0.31710000  0.45434000  1
  C  C617  1  0.61780000  0.68290000  0.95434000  1
  C  C618  1  0.62330000  0.21520000  0.05970000  1
  C  C619  1  0.62330000  0.78480000  0.55970000  1
  C  C620  1  0.63490000  0.36990000  0.42133000  1
  C  C621  1  0.63490000  0.63010000  0.92133000  1
  C  C622  1  0.63580000  0.36450000  0.68290000  1
  C  C623  1  0.63580000  0.63550000  0.18290000  1
  C  C624  1  0.64730000  0.02910000  0.90022000  1
  C  C625  1  0.64730000  0.97090000  0.40022000  1
  C  C626  1  0.67220000  0.46260000  0.61963000  1
  C  C627  1  0.67220000  0.53740000  0.11963000  1
  C  C628  1  0.67380000  0.40360000  0.69635000  1
  C  C629  1  0.67380000  0.59640000  0.19635000  1
  C  C630  1  0.67600000  0.46840000  0.81900000  1
  C  C631  1  0.67600000  0.53160000  0.31900000  1
  C  C632  1  0.67710000  0.48570000  0.77636000  1
  C  C633  1  0.67710000  0.51430000  0.27636000  1
  C  C634  1  0.68200000  0.35610000  0.44359000  1
  C  C635  1  0.68200000  0.64390000  0.94359000  1
  C  C636  1  0.68270000  0.47690000  0.26060000  1
  C  C637  1  0.68270000  0.52310000  0.76060000  1
  C  C638  1  0.68320000  0.07770000  0.19492000  1
  C  C639  1  0.68320000  0.92230000  0.69492000  1
  C  C640  1  0.69300000  0.33110000  0.35050000  1
  C  C641  1  0.69300000  0.66890000  0.85050000  1
  C  C642  1  0.69450000  0.34250000  0.56600000  1
  C  C643  1  0.69450000  0.65750000  0.06600000  1
  C  C644  1  0.69610000  0.41030000  0.41045000  1
  C  C645  1  0.69610000  0.58970000  0.91045000  1
  C  C646  1  0.69770000  0.23240000  0.14910000  1
  C  C647  1  0.69770000  0.76760000  0.64910000  1
  C  C648  1  0.70700000  0.36970000  0.33310000  1
  C  C649  1  0.70700000  0.63030000  0.83310000  1
  C  C650  1  0.71180000  0.23600000  0.63610000  1
  C  C651  1  0.71180000  0.76400000  0.13610000  1
  C  C652  1  0.71690000  0.02830000  0.23089000  1
  C  C653  1  0.71690000  0.97170000  0.73089000  1
  C  C654  1  0.72250000  0.06780000  0.10880000  1
  C  C655  1  0.72250000  0.93220000  0.60880000  1
  C  C656  1  0.72260000  0.06570000  0.24660000  1
  C  C657  1  0.72260000  0.93430000  0.74660000  1
  C  C658  1  0.72440000  0.44130000  0.76935000  1
  C  C659  1  0.72440000  0.55870000  0.26935000  1
  C  C660  1  0.73570000  0.48390000  0.23790000  1
  C  C661  1  0.73570000  0.51610000  0.73790000  1
  C  C662  1  0.74080000  0.34410000  0.66810000  1
  C  C663  1  0.74080000  0.65590000  0.16810000  1
  C  C664  1  0.74270000  0.14290000  0.08800000  1
  C  C665  1  0.74270000  0.85710000  0.58800000  1
  C  C666  1  0.74960000  0.19560000  0.05300000  1
  C  C667  1  0.74960000  0.80440000  0.55300000  1
  C  C668  1  0.75040000  0.30440000  0.55300000  1
  C  C669  1  0.75040000  0.69560000  0.05300000  1
  C  C670  1  0.75730000  0.35710000  0.58800000  1
  C  C671  1  0.75730000  0.64290000  0.08800000  1
  C  C672  1  0.75920000  0.15590000  0.16810000  1
  C  C673  1  0.75920000  0.84410000  0.66810000  1
  C  C674  1  0.76430000  0.01610000  0.73790000  1
  C  C675  1  0.76430000  0.98390000  0.23790000  1
  C  C676  1  0.77560000  0.05870000  0.26935000  1
  C  C677  1  0.77560000  0.94130000  0.76935000  1
  C  C678  1  0.77740000  0.43430000  0.74660000  1
  C  C679  1  0.77740000  0.56570000  0.24660000  1
  C  C680  1  0.77750000  0.43220000  0.60880000  1
  C  C681  1  0.77750000  0.56780000  0.10880000  1
  C  C682  1  0.78310000  0.47170000  0.73089000  1
  C  C683  1  0.78310000  0.52830000  0.23089000  1
  C  C684  1  0.78820000  0.26400000  0.13610000  1
  C  C685  1  0.78820000  0.73600000  0.63610000  1
  C  C686  1  0.79300000  0.13030000  0.83310000  1
  C  C687  1  0.79300000  0.86970000  0.33310000  1
  C  C688  1  0.80230000  0.26760000  0.64910000  1
  C  C689  1  0.80230000  0.73240000  0.14910000  1
  C  C690  1  0.80390000  0.08970000  0.91045000  1
  C  C691  1  0.80390000  0.91030000  0.41045000  1
  C  C692  1  0.80550000  0.15750000  0.06600000  1
  C  C693  1  0.80550000  0.84250000  0.56600000  1
  C  C694  1  0.80700000  0.16890000  0.85050000  1
  C  C695  1  0.80700000  0.83110000  0.35050000  1
  C  C696  1  0.81680000  0.42230000  0.69492000  1
  C  C697  1  0.81680000  0.57770000  0.19492000  1
  C  C698  1  0.81730000  0.02310000  0.76060000  1
  C  C699  1  0.81730000  0.97690000  0.26060000  1
  C  C700  1  0.81800000  0.14390000  0.94359000  1
  C  C701  1  0.81800000  0.85610000  0.44359000  1
  C  C702  1  0.82290000  0.01430000  0.27636000  1
  C  C703  1  0.82290000  0.98570000  0.77636000  1
  C  C704  1  0.82400000  0.03160000  0.31900000  1
  C  C705  1  0.82400000  0.96840000  0.81900000  1
  C  C706  1  0.82620000  0.09640000  0.19635000  1
  C  C707  1  0.82620000  0.90360000  0.69635000  1
  C  C708  1  0.82780000  0.03740000  0.11963000  1
  C  C709  1  0.82780000  0.96260000  0.61963000  1
  C  C710  1  0.85270000  0.47090000  0.40022000  1
  C  C711  1  0.85270000  0.52910000  0.90022000  1
  C  C712  1  0.86420000  0.13550000  0.18290000  1
  C  C713  1  0.86420000  0.86450000  0.68290000  1
  C  C714  1  0.86510000  0.13010000  0.92133000  1
  C  C715  1  0.86510000  0.86990000  0.42133000  1
  C  C716  1  0.87670000  0.28480000  0.55970000  1
  C  C717  1  0.87670000  0.71520000  0.05970000  1
  C  C718  1  0.88220000  0.18290000  0.95434000  1
  C  C719  1  0.88220000  0.81710000  0.45434000  1
  C  C720  1  0.88380000  0.36290000  0.66666667  1
  C  C721  1  0.88380000  0.63710000  0.16667000  1
  C  C722  1  0.88420000  0.05850000  0.89560000  1
  C  C723  1  0.88420000  0.94150000  0.39560000  1
  C  C724  1  0.89930000  0.33670000  0.59390000  1
  C  C725  1  0.89930000  0.66330000  0.09390000  1
  C  C726  1  0.90400000  0.36530000  0.35390000  1
  C  C727  1  0.90400000  0.63470000  0.85390000  1
  C  C728  1  0.90980000  0.42990000  0.30177000  1
  C  C729  1  0.90980000  0.57010000  0.80177000  1
  C  C730  1  0.91230000  0.22320000  0.50529000  1
  C  C731  1  0.91230000  0.77680000  0.00529000  1
  C  C732  1  0.91530000  0.32150000  0.05953000  1
  C  C733  1  0.91530000  0.67850000  0.55953000  1
  C  C734  1  0.91560000  0.26290000  0.43230000  1
  C  C735  1  0.91560000  0.73710000  0.93230000  1
  C  C736  1  0.92050000  0.49290000  0.17202000  1
  C  C737  1  0.92050000  0.50710000  0.67202000  1
  C  C738  1  0.92180000  0.40200000  0.68010000  1
  C  C739  1  0.92180000  0.59800000  0.18010000  1
  C  C740  1  0.92440000  0.23310000  0.48141000  1
  C  C741  1  0.92440000  0.76690000  0.98141000  1
  C  C742  1  0.92450000  0.42380000  0.32594000  1
  C  C743  1  0.92450000  0.57620000  0.82594000  1
  C  C744  1  0.93310000  0.20080000  0.14660000  1
  C  C745  1  0.93310000  0.79920000  0.64660000  1
  C  C746  1  0.93520000  0.49900000  0.19619000  1
  C  C747  1  0.93520000  0.50100000  0.69619000  1
  C  C748  1  0.94770000  0.32310000  0.08399000  1
  C  C749  1  0.94770000  0.67690000  0.58399000  1
  C  C750  1  0.94870000  0.25730000  0.52185000  1
  C  C751  1  0.94870000  0.74270000  0.02185000  1
  C  C752  1  0.95330000  0.29930000  0.57970000  1
  C  C753  1  0.95330000  0.70070000  0.07970000  1
  C  C754  1  0.95450000  0.10140000  0.10521000  1
  C  C755  1  0.95450000  0.89860000  0.60521000  1
  C  C756  1  0.95920000  0.19410000  0.57941000  1
  C  C757  1  0.95920000  0.80590000  0.07941000  1
  C  C758  1  0.97290000  0.27720000  0.47409000  1
  C  C759  1  0.97290000  0.72280000  0.97409000  1
  C  C760  1  0.97650000  0.15520000  0.90983000  1
  C  C761  1  0.97650000  0.84480000  0.40983000  1
  C  C762  1  0.98000000  0.46750000  0.29071000  1
  C  C763  1  0.98000000  0.53250000  0.79071000  1
  C  C764  1  0.98640000  0.02550000  0.80610000  1
  C  C765  1  0.98640000  0.97450000  0.30610000  1
  C  C766  1  0.99060000  0.31130000  0.00935000  1
  C  C767  1  0.99060000  0.68870000  0.50935000  1
  C  C768  1  0.99070000  0.45530000  0.16096000  1
  C  C769  1  0.99070000  0.54470000  0.66096000  1
  C  C770  1  0.99170000  0.02450000  0.83110000  1
  C  C771  1  0.99170000  0.97550000  0.33110000  1
  C  C772  1  0.99360000  0.20800000  0.94284000  1
  C  C773  1  0.99360000  0.79200000  0.44284000  1
  C  C774  1  0.99720000  0.30130000  0.51454000  1
  C  C775  1  0.99720000  0.69870000  0.01454000  1
  N  N776  1  0.00020000  0.28430000  0.45054000  1
  N  N777  1  0.00020000  0.71570000  0.95054000  1
  N  N778  1  0.02880000  0.05820000  0.38259000  1
  N  N779  1  0.02880000  0.94180000  0.88259000  1
  N  N780  1  0.05210000  0.28690000  0.08904000  1
  N  N781  1  0.05210000  0.71310000  0.58904000  1
  N  N782  1  0.06460000  0.24920000  0.95380000  1
  N  N783  1  0.06460000  0.75080000  0.45380000  1
  N  N784  1  0.06630000  0.24450000  0.36548000  1
  N  N785  1  0.06630000  0.75550000  0.86548000  1
  N  N786  1  0.10870000  0.01070000  0.16095000  1
  N  N787  1  0.10870000  0.98930000  0.66095000  1
  N  N788  1  0.11730000  0.00920000  0.20137000  1
  N  N789  1  0.11730000  0.99080000  0.70137000  1
  N  N790  1  0.14750000  0.46520000  0.79200000  1
  N  N791  1  0.14750000  0.53480000  0.29200000  1
  N  N792  1  0.15750000  0.42850000  0.08667000  1
  N  N793  1  0.15750000  0.57150000  0.58667000  1
  N  N794  1  0.15970000  0.38590000  0.16160000  1
  N  N795  1  0.15970000  0.61410000  0.66160000  1
  N  N796  1  0.16870000  0.32690000  0.13830000  1
  N  N797  1  0.16870000  0.67310000  0.63830000  1
  N  N798  1  0.19920000  0.10740000  0.40011000  1
  N  N799  1  0.19920000  0.89260000  0.90011000  1
  N  N800  1  0.21260000  0.02110000  0.61077000  1
  N  N801  1  0.21260000  0.97890000  0.11077000  1
  N  N802  1  0.21280000  0.19330000  0.34439000  1
  N  N803  1  0.21280000  0.80670000  0.84439000  1
  N  N804  1  0.28720000  0.30670000  0.84439000  1
  N  N805  1  0.28720000  0.69330000  0.34439000  1
  N  N806  1  0.28740000  0.47890000  0.11077000  1
  N  N807  1  0.28740000  0.52110000  0.61077000  1
  N  N808  1  0.30080000  0.39260000  0.90011000  1
  N  N809  1  0.30080000  0.60740000  0.40011000  1
  N  N810  1  0.33130000  0.17310000  0.63830000  1
  N  N811  1  0.33130000  0.82690000  0.13830000  1
  N  N812  1  0.34030000  0.11410000  0.66160000  1
  N  N813  1  0.34030000  0.88590000  0.16160000  1
  N  N814  1  0.34250000  0.07150000  0.58667000  1
  N  N815  1  0.34250000  0.92850000  0.08667000  1
  N  N816  1  0.35250000  0.03480000  0.29200000  1
  N  N817  1  0.35250000  0.96520000  0.79200000  1
  N  N818  1  0.38270000  0.49080000  0.70137000  1
  N  N819  1  0.38270000  0.50920000  0.20137000  1
  N  N820  1  0.39130000  0.48930000  0.66095000  1
  N  N821  1  0.39130000  0.51070000  0.16095000  1
  N  N822  1  0.43370000  0.25550000  0.86548000  1
  N  N823  1  0.43370000  0.74450000  0.36548000  1
  N  N824  1  0.43540000  0.25080000  0.45380000  1
  N  N825  1  0.43540000  0.74920000  0.95380000  1
  N  N826  1  0.44790000  0.21310000  0.58904000  1
  N  N827  1  0.44790000  0.78690000  0.08904000  1
  N  N828  1  0.47120000  0.44180000  0.88259000  1
  N  N829  1  0.47120000  0.55820000  0.38259000  1
  N  N830  1  0.49980000  0.21570000  0.95054000  1
  N  N831  1  0.49980000  0.78430000  0.45054000  1
  N  N832  1  0.50020000  0.21570000  0.54946000  1
  N  N833  1  0.50020000  0.78430000  0.04946000  1
  N  N834  1  0.52880000  0.44180000  0.61741000  1
  N  N835  1  0.52880000  0.55820000  0.11741000  1
  N  N836  1  0.55210000  0.21310000  0.91096000  1
  N  N837  1  0.55210000  0.78690000  0.41096000  1
  N  N838  1  0.56460000  0.25080000  0.04620000  1
  N  N839  1  0.56460000  0.74920000  0.54620000  1
  N  N840  1  0.56630000  0.25550000  0.63452000  1
  N  N841  1  0.56630000  0.74450000  0.13452000  1
  N  N842  1  0.60870000  0.48930000  0.83905000  1
  N  N843  1  0.60870000  0.51070000  0.33905000  1
  N  N844  1  0.61730000  0.49080000  0.79863000  1
  N  N845  1  0.61730000  0.50920000  0.29863000  1
  N  N846  1  0.64750000  0.03480000  0.20800000  1
  N  N847  1  0.64750000  0.96520000  0.70800000  1
  N  N848  1  0.65750000  0.07150000  0.91333000  1
  N  N849  1  0.65750000  0.92850000  0.41333000  1
  N  N850  1  0.65970000  0.11410000  0.83840000  1
  N  N851  1  0.65970000  0.88590000  0.33840000  1
  N  N852  1  0.66870000  0.17310000  0.86170000  1
  N  N853  1  0.66870000  0.82690000  0.36170000  1
  N  N854  1  0.69920000  0.39260000  0.59989000  1
  N  N855  1  0.69920000  0.60740000  0.09989000  1
  N  N856  1  0.71260000  0.47890000  0.38923000  1
  N  N857  1  0.71260000  0.52110000  0.88923000  1
  N  N858  1  0.71280000  0.30670000  0.65561000  1
  N  N859  1  0.71280000  0.69330000  0.15561000  1
  N  N860  1  0.78720000  0.19330000  0.15561000  1
  N  N861  1  0.78720000  0.80670000  0.65561000  1
  N  N862  1  0.78740000  0.02110000  0.88923000  1
  N  N863  1  0.78740000  0.97890000  0.38923000  1
  N  N864  1  0.80080000  0.10740000  0.09989000  1
  N  N865  1  0.80080000  0.89260000  0.59989000  1
  N  N866  1  0.83130000  0.32690000  0.36170000  1
  N  N867  1  0.83130000  0.67310000  0.86170000  1
  N  N868  1  0.84030000  0.38590000  0.33840000  1
  N  N869  1  0.84030000  0.61410000  0.83840000  1
  N  N870  1  0.84250000  0.42850000  0.41333000  1
  N  N871  1  0.84250000  0.57150000  0.91333000  1
  N  N872  1  0.85250000  0.46520000  0.70800000  1
  N  N873  1  0.85250000  0.53480000  0.20800000  1
  N  N874  1  0.88270000  0.00920000  0.29863000  1
  N  N875  1  0.88270000  0.99080000  0.79863000  1
  N  N876  1  0.89130000  0.01070000  0.33905000  1
  N  N877  1  0.89130000  0.98930000  0.83905000  1
  N  N878  1  0.93370000  0.24450000  0.13452000  1
  N  N879  1  0.93370000  0.75550000  0.63452000  1
  N  N880  1  0.93540000  0.24920000  0.54620000  1
  N  N881  1  0.93540000  0.75080000  0.04620000  1
  N  N882  1  0.94790000  0.28690000  0.41096000  1
  N  N883  1  0.94790000  0.71310000  0.91096000  1
  N  N884  1  0.97120000  0.05820000  0.11741000  1
  N  N885  1  0.97120000  0.94180000  0.61741000  1
  N  N886  1  0.99980000  0.28430000  0.04946000  1
  N  N887  1  0.99980000  0.71570000  0.54946000  1
  Cl  Cl888  1  0.15880000  0.41867000  0.62813000  1
  Cl  Cl889  1  0.15880000  0.58133000  0.12813000  1
  Cl  Cl890  1  0.20490000  0.28641000  0.62540000  1
  Cl  Cl891  1  0.20490000  0.71359000  0.12540000  1
  Cl  Cl892  1  0.29510000  0.21359000  0.12540000  1
  Cl  Cl893  1  0.29510000  0.78641000  0.62540000  1
  Cl  Cl894  1  0.34120000  0.08133000  0.12813000  1
  Cl  Cl895  1  0.34120000  0.91867000  0.62813000  1
  Cl  Cl896  1  0.65880000  0.08133000  0.37187000  1
  Cl  Cl897  1  0.65880000  0.91867000  0.87187000  1
  Cl  Cl898  1  0.70490000  0.21359000  0.37460000  1
  Cl  Cl899  1  0.70490000  0.78641000  0.87460000  1
  Cl  Cl900  1  0.79510000  0.28641000  0.87460000  1
  Cl  Cl901  1  0.79510000  0.71359000  0.37460000  1
  Cl  Cl902  1  0.84120000  0.41867000  0.87187000  1
  Cl  Cl903  1  0.84120000  0.58133000  0.37187000  1
