# generated using pymatgen
data_Co3H42C66(N5O3)4
_symmetry_space_group_name_H-M   'P 1'
_cell_length_a   10.05100000
_cell_length_b   17.77000000
_cell_length_c   17.95340000
_cell_angle_alpha   67.25000000
_cell_angle_beta   74.92800000
_cell_angle_gamma   81.56900000
_symmetry_Int_Tables_number   1
_chemical_formula_structural   Co3H42C66(N5O3)4
_chemical_formula_sum   'Co3 H42 C66 N20 O12'
_cell_volume   2851.57230561
_cell_formula_units_Z   1
loop_
 _symmetry_equiv_pos_site_id
 _symmetry_equiv_pos_as_xyz
  1  'x, y, z'
loop_
 _atom_site_type_symbol
 _atom_site_label
 _atom_site_symmetry_multiplicity
 _atom_site_fract_x
 _atom_site_fract_y
 _atom_site_fract_z
 _atom_site_occupancy
  Co  Co0  1  0.29772000  0.56891000  0.51300000  1
  Co  Co1  1  0.50000000  0.00000000  0.50000000  1
  Co  Co2  1  0.70228000  0.43109000  0.48700000  1
  H  H3  1  0.00510000  0.68750000  0.93340000  1
  H  H4  1  0.01460000  0.15660000  0.33660000  1
  H  H5  1  0.01680000  0.41200000  0.23410000  1
  H  H6  1  0.07300000  0.48060000  0.30610000  1
  H  H7  1  0.07430000  0.23520000  0.46270000  1
  H  H8  1  0.14230000  0.41760000  0.52510000  1
  H  H9  1  0.14570000  0.79570000  0.85870000  1
  H  H10  1  0.15270000  0.52330000  0.39210000  1
  H  H11  1  0.15610000  0.52320000  0.02360000  1
  H  H12  1  0.15910000  0.26360000  0.26140000  1
  H  H13  1  0.19280000  0.58840000  0.88330000  1
  H  H14  1  0.23450000  0.44970000  0.71770000  1
  H  H15  1  0.24750000  0.87600000  0.59540000  1
  H  H16  1  0.25140000  0.30770000  0.99670000  1
  H  H17  1  0.28330000  0.37320000  0.85480000  1
  H  H18  1  0.31800000  0.67800000  0.61450000  1
  H  H19  1  0.35260000  0.02280000  0.67830000  1
  H  H20  1  0.39960000  0.43180000  0.09500000  1
  H  H21  1  0.44730000  0.25140000  0.49510000  1
  H  H22  1  0.45820000  0.49830000  0.16810000  1
  H  H23  1  0.49080000  0.38470000  0.67050000  1
  H  H24  1  0.50920000  0.61530000  0.32950000  1
  H  H25  1  0.54180000  0.50170000  0.83190000  1
  H  H26  1  0.55270000  0.74860000  0.50490000  1
  H  H27  1  0.60040000  0.56820000  0.90500000  1
  H  H28  1  0.64740000  0.97720000  0.32170000  1
  H  H29  1  0.68200000  0.32200000  0.38550000  1
  H  H30  1  0.71670000  0.62680000  0.14520000  1
  H  H31  1  0.74860000  0.69230000  0.00330000  1
  H  H32  1  0.75250000  0.12400000  0.40460000  1
  H  H33  1  0.76550000  0.55030000  0.28230000  1
  H  H34  1  0.80720000  0.41160000  0.11670000  1
  H  H35  1  0.84090000  0.73640000  0.73860000  1
  H  H36  1  0.84390000  0.47680000  0.97640000  1
  H  H37  1  0.84730000  0.47670000  0.60790000  1
  H  H38  1  0.85430000  0.20430000  0.14130000  1
  H  H39  1  0.85770000  0.58240000  0.47490000  1
  H  H40  1  0.92570000  0.76480000  0.53730000  1
  H  H41  1  0.92700000  0.51940000  0.69390000  1
  H  H42  1  0.98320000  0.58800000  0.76590000  1
  H  H43  1  0.98540000  0.84340000  0.66340000  1
  H  H44  1  0.99490000  0.31250000  0.06660000  1
  C  C45  1  0.00070000  0.71850000  0.87880000  1
  C  C46  1  0.01000000  0.18850000  0.28230000  1
  C  C47  1  0.05670000  0.63302000  0.51166000  1
  C  C48  1  0.08190000  0.82790000  0.75270000  1
  C  C49  1  0.08590000  0.78280000  0.83410000  1
  C  C50  1  0.08690000  0.33172000  0.49231000  1
  C  C51  1  0.09030000  0.30060000  0.15570000  1
  C  C52  1  0.09660000  0.25260000  0.23720000  1
  C  C53  1  0.10610000  0.42890000  0.22100000  1
  C  C54  1  0.13320000  0.26144000  0.47590000  1
  C  C55  1  0.13950000  0.46980000  0.26410000  1
  C  C56  1  0.17460000  0.37131000  0.51218000  1
  C  C57  1  0.18140000  0.49260000  0.98970000  1
  C  C58  1  0.19570000  0.40880000  0.02530000  1
  C  C59  1  0.20340000  0.53180000  0.90620000  1
  C  C60  1  0.20360000  0.41260000  0.15870000  1
  C  C61  1  0.23740000  0.36420000  0.97400000  1
  C  C62  1  0.24130000  0.54036000  0.36416000  1
  C  C63  1  0.24170000  0.48640000  0.85560000  1
  C  C64  1  0.25340000  0.90400000  0.62860000  1
  C  C65  1  0.25350000  0.50260000  0.70890000  1
  C  C66  1  0.25820000  0.40340000  0.88910000  1
  C  C67  1  0.26770000  0.22972000  0.47920000  1
  C  C68  1  0.27090000  0.49460000  0.24520000  1
  C  C69  1  0.29800000  0.62650000  0.65460000  1
  C  C70  1  0.30740000  0.98260000  0.67500000  1
  C  C71  1  0.31150000  0.34150000  0.51279000  1
  C  C72  1  0.31610000  0.15142000  0.46310000  1
  C  C73  1  0.33420000  0.44050000  0.13860000  1
  C  C74  1  0.35620000  0.27110000  0.49560000  1
  C  C75  1  0.36940000  0.48060000  0.18160000  1
  C  C76  1  0.40790000  0.38854000  0.52785000  1
  C  C77  1  0.43530000  0.58980000  0.32880000  1
  C  C78  1  0.56470000  0.41020000  0.67120000  1
  C  C79  1  0.59210000  0.61146000  0.47215000  1
  C  C80  1  0.63060000  0.51940000  0.81840000  1
  C  C81  1  0.64380000  0.72890000  0.50440000  1
  C  C82  1  0.66580000  0.55950000  0.86140000  1
  C  C83  1  0.68390000  0.84858000  0.53690000  1
  C  C84  1  0.68850000  0.65850000  0.48721000  1
  C  C85  1  0.69260000  0.01740000  0.32500000  1
  C  C86  1  0.70200000  0.37350000  0.34540000  1
  C  C87  1  0.72910000  0.50540000  0.75480000  1
  C  C88  1  0.73230000  0.77028000  0.52080000  1
  C  C89  1  0.74180000  0.59660000  0.11090000  1
  C  C90  1  0.74650000  0.49740000  0.29110000  1
  C  C91  1  0.74660000  0.09600000  0.37140000  1
  C  C92  1  0.75830000  0.51360000  0.14440000  1
  C  C93  1  0.75870000  0.45964000  0.63584000  1
  C  C94  1  0.76260000  0.63580000  0.02600000  1
  C  C95  1  0.79640000  0.58740000  0.84130000  1
  C  C96  1  0.79660000  0.46820000  0.09380000  1
  C  C97  1  0.80430000  0.59120000  0.97470000  1
  C  C98  1  0.81860000  0.50740000  0.01030000  1
  C  C99  1  0.82540000  0.62869000  0.48782000  1
  C  C100  1  0.86050000  0.53020000  0.73590000  1
  C  C101  1  0.86680000  0.73856000  0.52410000  1
  C  C102  1  0.89390000  0.57110000  0.77900000  1
  C  C103  1  0.90340000  0.74740000  0.76280000  1
  C  C104  1  0.90970000  0.69940000  0.84430000  1
  C  C105  1  0.91310000  0.66828000  0.50769000  1
  C  C106  1  0.91410000  0.21720000  0.16590000  1
  C  C107  1  0.91810000  0.17210000  0.24730000  1
  C  C108  1  0.94330000  0.36698000  0.48834000  1
  C  C109  1  0.99000000  0.81150000  0.71770000  1
  C  C110  1  0.99930000  0.28150000  0.12120000  1
  N  N111  1  0.17090000  0.36933000  0.11335000  1
  N  N112  1  0.17860000  0.89019000  0.70420000  1
  N  N113  1  0.21220000  0.94210000  0.73500000  1
  N  N114  1  0.26080000  0.52872000  0.76788000  1
  N  N115  1  0.27740000  0.56284000  0.63574000  1
  N  N116  1  0.28760000  0.61026000  0.73313000  1
  N  N117  1  0.30850000  0.53378000  0.29236000  1
  N  N118  1  0.31950000  0.57481000  0.38960000  1
  N  N119  1  0.33720000  0.96249000  0.60671000  1
  N  N120  1  0.43490000  0.56530000  0.26878000  1
  N  N121  1  0.56510000  0.43470000  0.73122000  1
  N  N122  1  0.66280000  0.03751000  0.39329000  1
  N  N123  1  0.68050000  0.42519000  0.61040000  1
  N  N124  1  0.69150000  0.46622000  0.70764000  1
  N  N125  1  0.71240000  0.38974000  0.26687000  1
  N  N126  1  0.72260000  0.43716000  0.36426000  1
  N  N127  1  0.73920000  0.47128000  0.23212000  1
  N  N128  1  0.78780000  0.05790000  0.26500000  1
  N  N129  1  0.82140000  0.10981000  0.29580000  1
  N  N130  1  0.82910000  0.63067000  0.88665000  1
  O  O131  1  0.07920000  0.55699000  0.53115000  1
  O  O132  1  0.15350000  0.67885000  0.49528000  1
  O  O133  1  0.23760000  0.12202000  0.43930000  1
  O  O134  1  0.36000000  0.44917000  0.54775000  1
  O  O135  1  0.43140000  0.12114000  0.47670000  1
  O  O136  1  0.46720000  0.63568000  0.48179000  1
  O  O137  1  0.53280000  0.36432000  0.51821000  1
  O  O138  1  0.56860000  0.87886000  0.52330000  1
  O  O139  1  0.64000000  0.55083000  0.45225000  1
  O  O140  1  0.76240000  0.87798000  0.56070000  1
  O  O141  1  0.84650000  0.32115000  0.50472000  1
  O  O142  1  0.92080000  0.44301000  0.46885000  1
