# generated using pymatgen
data_ZnH7C9N3O4
_symmetry_space_group_name_H-M   'P 1'
_cell_length_a   8.62960000
_cell_length_b   9.60800000
_cell_length_c   14.49700000
_cell_angle_alpha   90.00000000
_cell_angle_beta   93.09700000
_cell_angle_gamma   90.00000000
_symmetry_Int_Tables_number   1
_chemical_formula_structural   ZnH7C9N3O4
_chemical_formula_sum   'Zn4 H28 C36 N12 O16'
_cell_volume   1200.23710442
_cell_formula_units_Z   4
loop_
 _symmetry_equiv_pos_site_id
 _symmetry_equiv_pos_as_xyz
  1  'x, y, z'
loop_
 _atom_site_type_symbol
 _atom_site_label
 _atom_site_symmetry_multiplicity
 _atom_site_fract_x
 _atom_site_fract_y
 _atom_site_fract_z
 _atom_site_occupancy
  Zn  Zn0  1  0.15674000  0.99706000  0.17169000  1
  Zn  Zn1  1  0.34326000  0.49706000  0.32831000  1
  Zn  Zn2  1  0.65674000  0.50294000  0.67169000  1
  Zn  Zn3  1  0.84326000  0.00294000  0.82831000  1
  H  H4  1  0.04400000  0.04040000  0.59140000  1
  H  H5  1  0.04970000  0.27340000  0.04870000  1
  H  H6  1  0.06560000  0.73320000  0.35160000  1
  H  H7  1  0.09770000  0.18450000  0.42310000  1
  H  H8  1  0.16170000  0.98520000  0.51820000  1
  H  H9  1  0.18310000  0.22470000  0.52010000  1
  H  H10  1  0.21580000  0.00420000  0.95970000  1
  H  H11  1  0.28420000  0.50420000  0.54030000  1
  H  H12  1  0.31690000  0.72470000  0.97990000  1
  H  H13  1  0.33830000  0.48520000  0.98180000  1
  H  H14  1  0.40230000  0.68450000  0.07690000  1
  H  H15  1  0.43440000  0.23320000  0.14840000  1
  H  H16  1  0.45030000  0.77340000  0.45130000  1
  H  H17  1  0.45600000  0.54040000  0.90860000  1
  H  H18  1  0.54400000  0.45960000  0.09140000  1
  H  H19  1  0.54970000  0.22660000  0.54870000  1
  H  H20  1  0.56560000  0.76680000  0.85160000  1
  H  H21  1  0.59770000  0.31550000  0.92310000  1
  H  H22  1  0.66170000  0.51480000  0.01820000  1
  H  H23  1  0.68310000  0.27530000  0.02010000  1
  H  H24  1  0.71580000  0.49580000  0.45970000  1
  H  H25  1  0.78420000  0.99580000  0.04030000  1
  H  H26  1  0.81690000  0.77530000  0.47990000  1
  H  H27  1  0.83830000  0.01480000  0.48180000  1
  H  H28  1  0.90230000  0.81550000  0.57690000  1
  H  H29  1  0.93440000  0.26680000  0.64840000  1
  H  H30  1  0.95030000  0.72660000  0.95130000  1
  H  H31  1  0.95600000  0.95960000  0.40860000  1
  C  C32  1  0.02620000  0.61090000  0.06110000  1
  C  C33  1  0.03050000  0.36620000  0.02850000  1
  C  C34  1  0.04240000  0.73240000  0.12660000  1
  C  C35  1  0.06000000  0.47470000  0.08970000  1
  C  C36  1  0.06410000  0.03760000  0.52480000  1
  C  C37  1  0.08620000  0.18620000  0.49070000  1
  C  C38  1  0.09990000  0.69210000  0.40870000  1
  C  C39  1  0.13830000  0.44400000  0.18310000  1
  C  C40  1  0.21580000  0.57060000  0.51150000  1
  C  C41  1  0.28420000  0.07060000  0.98850000  1
  C  C42  1  0.36170000  0.94400000  0.31690000  1
  C  C43  1  0.40010000  0.19210000  0.09130000  1
  C  C44  1  0.41380000  0.68620000  0.00930000  1
  C  C45  1  0.43590000  0.53760000  0.97520000  1
  C  C46  1  0.44000000  0.97470000  0.41030000  1
  C  C47  1  0.45760000  0.23240000  0.37340000  1
  C  C48  1  0.46950000  0.86620000  0.47150000  1
  C  C49  1  0.47380000  0.11090000  0.43890000  1
  C  C50  1  0.52620000  0.88910000  0.56110000  1
  C  C51  1  0.53050000  0.13380000  0.52850000  1
  C  C52  1  0.54240000  0.76760000  0.62660000  1
  C  C53  1  0.56000000  0.02530000  0.58970000  1
  C  C54  1  0.56410000  0.46240000  0.02480000  1
  C  C55  1  0.58620000  0.31380000  0.99070000  1
  C  C56  1  0.59990000  0.80790000  0.90870000  1
  C  C57  1  0.63830000  0.05600000  0.68310000  1
  C  C58  1  0.71580000  0.92940000  0.01150000  1
  C  C59  1  0.78420000  0.42940000  0.48850000  1
  C  C60  1  0.86170000  0.55600000  0.81690000  1
  C  C61  1  0.90010000  0.30790000  0.59130000  1
  C  C62  1  0.91380000  0.81380000  0.50930000  1
  C  C63  1  0.93590000  0.96240000  0.47520000  1
  C  C64  1  0.94000000  0.52530000  0.91030000  1
  C  C65  1  0.95760000  0.26760000  0.87340000  1
  C  C66  1  0.96950000  0.63380000  0.97150000  1
  C  C67  1  0.97380000  0.38910000  0.93890000  1
  N  N68  1  0.04480000  0.72140000  0.48890000  1
  N  N69  1  0.11940000  0.64440000  0.55710000  1
  N  N70  1  0.21060000  0.59630000  0.41900000  1
  N  N71  1  0.28940000  0.09630000  0.08100000  1
  N  N72  1  0.38060000  0.14440000  0.94290000  1
  N  N73  1  0.45520000  0.22140000  0.01110000  1
  N  N74  1  0.54480000  0.77860000  0.98890000  1
  N  N75  1  0.61940000  0.85560000  0.05710000  1
  N  N76  1  0.71060000  0.90370000  0.91900000  1
  N  N77  1  0.78940000  0.40370000  0.58100000  1
  N  N78  1  0.88060000  0.35560000  0.44290000  1
  N  N79  1  0.95520000  0.27860000  0.51110000  1
  O  O80  1  0.00700000  0.27520000  0.79540000  1
  O  O81  1  0.09100000  0.35070000  0.23330000  1
  O  O82  1  0.10580000  0.83920000  0.09290000  1
  O  O83  1  0.24190000  0.01760000  0.29680000  1
  O  O84  1  0.25810000  0.51760000  0.20320000  1
  O  O85  1  0.39420000  0.33920000  0.40710000  1
  O  O86  1  0.40900000  0.85070000  0.26670000  1
  O  O87  1  0.49300000  0.77520000  0.70460000  1
  O  O88  1  0.50700000  0.22480000  0.29540000  1
  O  O89  1  0.59100000  0.14930000  0.73330000  1
  O  O90  1  0.60580000  0.66080000  0.59290000  1
  O  O91  1  0.74190000  0.48240000  0.79680000  1
  O  O92  1  0.75810000  0.98240000  0.70320000  1
  O  O93  1  0.89420000  0.16080000  0.90710000  1
  O  O94  1  0.90900000  0.64930000  0.76670000  1
  O  O95  1  0.99300000  0.72480000  0.20460000  1
