# generated using pymatgen
data_PrH12(C3O2)3
_symmetry_space_group_name_H-M   'P 1'
_cell_length_a   7.85380000
_cell_length_b   11.02190000
_cell_length_c   11.66930000
_cell_angle_alpha   108.67400000
_cell_angle_beta   105.81200000
_cell_angle_gamma   104.10800000
_symmetry_Int_Tables_number   1
_chemical_formula_structural   PrH12(C3O2)3
_chemical_formula_sum   'Pr2 H24 C18 O12'
_cell_volume   857.89917923
_cell_formula_units_Z   2
loop_
 _symmetry_equiv_pos_site_id
 _symmetry_equiv_pos_as_xyz
  1  'x, y, z'
loop_
 _atom_site_type_symbol
 _atom_site_label
 _atom_site_symmetry_multiplicity
 _atom_site_fract_x
 _atom_site_fract_y
 _atom_site_fract_z
 _atom_site_occupancy
  Pr  Pr0  1  0.27462000  0.02108000  0.06542000  1
  Pr  Pr1  1  0.72538000  0.97892000  0.93458000  1
  H  H2  1  0.01210000  0.57720000  0.11760000  1
  H  H3  1  0.06430000  0.84550000  0.58250000  1
  H  H4  1  0.06660000  0.34590000  0.78290000  1
  H  H5  1  0.09160000  0.94800000  0.41860000  1
  H  H6  1  0.10330000  0.64680000  0.83390000  1
  H  H7  1  0.12700000  0.08130000  0.63020000  1
  H  H8  1  0.15430000  0.18270000  0.46420000  1
  H  H9  1  0.16780000  0.55650000  0.73210000  1
  H  H10  1  0.23080000  0.40520000  0.05140000  1
  H  H11  1  0.26220000  0.30270000  0.93790000  1
  H  H12  1  0.28390000  0.60310000  0.99920000  1
  H  H13  1  0.36950000  0.52540000  0.90620000  1
  H  H14  1  0.63050000  0.47460000  0.09380000  1
  H  H15  1  0.71610000  0.39690000  0.00080000  1
  H  H16  1  0.73780000  0.69730000  0.06210000  1
  H  H17  1  0.76920000  0.59480000  0.94860000  1
  H  H18  1  0.83220000  0.44350000  0.26790000  1
  H  H19  1  0.84570000  0.81730000  0.53580000  1
  H  H20  1  0.87300000  0.91870000  0.36980000  1
  H  H21  1  0.89670000  0.35320000  0.16610000  1
  H  H22  1  0.90840000  0.05200000  0.58140000  1
  H  H23  1  0.93340000  0.65410000  0.21710000  1
  H  H24  1  0.93570000  0.15450000  0.41750000  1
  H  H25  1  0.98790000  0.42280000  0.88240000  1
  C  C26  1  0.00370000  0.01340000  0.56800000  1
  C  C27  1  0.01440000  0.21860000  0.95590000  1
  C  C28  1  0.01800000  0.08110000  0.26560000  1
  C  C29  1  0.02990000  0.11490000  0.40380000  1
  C  C30  1  0.10040000  0.40620000  0.87350000  1
  C  C31  1  0.16820000  0.33660000  0.96170000  1
  C  C32  1  0.20700000  0.61750000  0.82330000  1
  C  C33  1  0.25530000  0.54270000  0.90950000  1
  C  C34  1  0.38100000  0.74100000  0.86250000  1
  C  C35  1  0.61900000  0.25900000  0.13750000  1
  C  C36  1  0.74470000  0.45730000  0.09050000  1
  C  C37  1  0.79300000  0.38250000  0.17670000  1
  C  C38  1  0.83180000  0.66340000  0.03830000  1
  C  C39  1  0.89960000  0.59380000  0.12650000  1
  C  C40  1  0.97010000  0.88510000  0.59620000  1
  C  C41  1  0.98200000  0.91890000  0.73440000  1
  C  C42  1  0.98560000  0.78140000  0.04410000  1
  C  C43  1  0.99630000  0.98660000  0.43200000  1
  O  O44  1  0.06820000  0.14930000  0.01830000  1
  O  O45  1  0.14680000  0.96010000  0.82350000  1
  O  O46  1  0.15610000  0.80850000  0.10440000  1
  O  O47  1  0.16540000  0.08950000  0.24310000  1
  O  O48  1  0.41010000  0.85600000  0.95220000  1
  O  O49  1  0.49990000  0.72840000  0.81120000  1
  O  O50  1  0.50010000  0.27160000  0.18880000  1
  O  O51  1  0.58990000  0.14400000  0.04780000  1
  O  O52  1  0.83460000  0.91050000  0.75690000  1
  O  O53  1  0.84390000  0.19150000  0.89560000  1
  O  O54  1  0.85320000  0.03990000  0.17650000  1
  O  O55  1  0.93180000  0.85070000  0.98170000  1
