# generated using pymatgen
data_PrH3C6SO6
_symmetry_space_group_name_H-M   'P 1'
_cell_length_a   11.52880000
_cell_length_b   12.35650000
_cell_length_c   21.86100000
_cell_angle_alpha   90.00000000
_cell_angle_beta   90.00000000
_cell_angle_gamma   117.80800000
_symmetry_Int_Tables_number   1
_chemical_formula_structural   PrH3C6SO6
_chemical_formula_sum   'Pr8 H24 C48 S8 O48'
_cell_volume   2754.57892826
_cell_formula_units_Z   8
loop_
 _symmetry_equiv_pos_site_id
 _symmetry_equiv_pos_as_xyz
  1  'x, y, z'
loop_
 _atom_site_type_symbol
 _atom_site_label
 _atom_site_symmetry_multiplicity
 _atom_site_fract_x
 _atom_site_fract_y
 _atom_site_fract_z
 _atom_site_occupancy
  Pr  Pr0  1  0.04248000  0.00000000  0.65343000  1
  Pr  Pr1  1  0.04248000  0.00000000  0.84657000  1
  Pr  Pr2  1  0.08946000  0.81312000  0.25000000  1
  Pr  Pr3  1  0.27634000  0.18688000  0.25000000  1
  Pr  Pr4  1  0.72366000  0.81312000  0.75000000  1
  Pr  Pr5  1  0.91054000  0.18688000  0.75000000  1
  Pr  Pr6  1  0.95752000  0.00000000  0.15343000  1
  Pr  Pr7  1  0.95752000  0.00000000  0.34657000  1
  H  H8  1  0.01190000  0.77880000  0.52670000  1
  H  H9  1  0.01190000  0.77880000  0.97330000  1
  H  H10  1  0.01430000  0.43880000  0.61370000  1
  H  H11  1  0.01430000  0.43880000  0.88630000  1
  H  H12  1  0.03530000  0.18840000  0.25000000  1
  H  H13  1  0.15310000  0.18840000  0.75000000  1
  H  H14  1  0.19330000  0.00000000  0.15430000  1
  H  H15  1  0.19330000  0.00000000  0.34570000  1
  H  H16  1  0.23310000  0.22120000  0.52670000  1
  H  H17  1  0.23310000  0.22120000  0.97330000  1
  H  H18  1  0.42450000  0.43880000  0.11370000  1
  H  H19  1  0.42450000  0.43880000  0.38630000  1
  H  H20  1  0.57550000  0.56120000  0.61370000  1
  H  H21  1  0.57550000  0.56120000  0.88630000  1
  H  H22  1  0.76690000  0.77880000  0.02670000  1
  H  H23  1  0.76690000  0.77880000  0.47330000  1
  H  H24  1  0.80670000  0.00000000  0.65430000  1
  H  H25  1  0.80670000  0.00000000  0.84570000  1
  H  H26  1  0.84690000  0.81160000  0.25000000  1
  H  H27  1  0.96470000  0.81160000  0.75000000  1
  H  H28  1  0.98570000  0.56120000  0.11370000  1
  H  H29  1  0.98570000  0.56120000  0.38630000  1
  H  H30  1  0.98810000  0.22120000  0.02670000  1
  H  H31  1  0.98810000  0.22120000  0.47330000  1
  C  C32  1  0.00040000  0.68340000  0.05100000  1
  C  C33  1  0.00040000  0.68340000  0.44900000  1
  C  C34  1  0.00200000  0.77560000  0.09520000  1
  C  C35  1  0.00200000  0.77560000  0.40480000  1
  C  C36  1  0.00580000  0.51260000  0.53250000  1
  C  C37  1  0.00580000  0.51260000  0.96750000  1
  C  C38  1  0.00750000  0.42400000  0.57180000  1
  C  C39  1  0.00750000  0.42400000  0.92820000  1
  C  C40  1  0.00840000  0.70640000  0.51230000  1
  C  C41  1  0.00840000  0.70640000  0.98770000  1
  C  C42  1  0.01110000  0.62460000  0.55240000  1
  C  C43  1  0.01110000  0.62460000  0.94760000  1
  C  C44  1  0.22640000  0.22440000  0.09520000  1
  C  C45  1  0.22640000  0.22440000  0.40480000  1
  C  C46  1  0.30200000  0.29360000  0.51230000  1
  C  C47  1  0.30200000  0.29360000  0.98770000  1
  C  C48  1  0.31700000  0.31660000  0.05100000  1
  C  C49  1  0.31700000  0.31660000  0.44900000  1
  C  C50  1  0.38650000  0.37540000  0.55240000  1
  C  C51  1  0.38650000  0.37540000  0.94760000  1
  C  C52  1  0.41650000  0.42400000  0.07180000  1
  C  C53  1  0.41650000  0.42400000  0.42820000  1
  C  C54  1  0.49320000  0.48740000  0.53250000  1
  C  C55  1  0.49320000  0.48740000  0.96750000  1
  C  C56  1  0.50680000  0.51260000  0.03250000  1
  C  C57  1  0.50680000  0.51260000  0.46750000  1
  C  C58  1  0.58350000  0.57600000  0.57180000  1
  C  C59  1  0.58350000  0.57600000  0.92820000  1
  C  C60  1  0.61350000  0.62460000  0.05240000  1
  C  C61  1  0.61350000  0.62460000  0.44760000  1
  C  C62  1  0.68300000  0.68340000  0.55100000  1
  C  C63  1  0.68300000  0.68340000  0.94900000  1
  C  C64  1  0.69800000  0.70640000  0.01230000  1
  C  C65  1  0.69800000  0.70640000  0.48770000  1
  C  C66  1  0.77360000  0.77560000  0.59520000  1
  C  C67  1  0.77360000  0.77560000  0.90480000  1
  C  C68  1  0.98890000  0.37540000  0.05240000  1
  C  C69  1  0.98890000  0.37540000  0.44760000  1
  C  C70  1  0.99160000  0.29360000  0.01230000  1
  C  C71  1  0.99160000  0.29360000  0.48770000  1
  C  C72  1  0.99250000  0.57600000  0.07180000  1
  C  C73  1  0.99250000  0.57600000  0.42820000  1
  C  C74  1  0.99420000  0.48740000  0.03250000  1
  C  C75  1  0.99420000  0.48740000  0.46750000  1
  C  C76  1  0.99800000  0.22440000  0.59520000  1
  C  C77  1  0.99800000  0.22440000  0.90480000  1
  C  C78  1  0.99960000  0.31660000  0.55100000  1
  C  C79  1  0.99960000  0.31660000  0.94900000  1
  S  S80  1  0.01988000  0.65964000  0.63205000  1
  S  S81  1  0.01988000  0.65964000  0.86795000  1
  S  S82  1  0.36024000  0.34036000  0.63205000  1
  S  S83  1  0.36024000  0.34036000  0.86795000  1
  S  S84  1  0.63976000  0.65964000  0.13205000  1
  S  S85  1  0.63976000  0.65964000  0.36795000  1
  S  S86  1  0.98012000  0.34036000  0.13205000  1
  S  S87  1  0.98012000  0.34036000  0.36795000  1
  O  O88  1  0.00030000  0.25120000  0.65150000  1
  O  O89  1  0.00030000  0.25120000  0.84850000  1
  O  O90  1  0.00640000  0.87320000  0.07650000  1
  O  O91  1  0.00640000  0.87320000  0.42350000  1
  O  O92  1  0.03190000  0.78080000  0.63700000  1
  O  O93  1  0.03190000  0.78080000  0.86300000  1
  O  O94  1  0.03650000  0.12020000  0.25000000  1
  O  O95  1  0.08370000  0.12020000  0.75000000  1
  O  O96  1  0.10250000  0.43420000  0.15770000  1
  O  O97  1  0.10250000  0.43420000  0.34230000  1
  O  O98  1  0.13190000  0.65100000  0.65620000  1
  O  O99  1  0.13190000  0.65100000  0.84380000  1
  O  O100  1  0.13320000  0.12680000  0.07650000  1
  O  O101  1  0.13320000  0.12680000  0.42350000  1
  O  O102  1  0.15970000  0.00000000  0.18890000  1
  O  O103  1  0.15970000  0.00000000  0.31110000  1
  O  O104  1  0.25090000  0.25120000  0.15150000  1
  O  O105  1  0.25090000  0.25120000  0.34850000  1
  O  O106  1  0.25110000  0.21920000  0.63700000  1
  O  O107  1  0.25110000  0.21920000  0.86300000  1
  O  O108  1  0.33170000  0.43420000  0.65770000  1
  O  O109  1  0.33170000  0.43420000  0.84230000  1
  O  O110  1  0.48090000  0.34900000  0.65620000  1
  O  O111  1  0.48090000  0.34900000  0.84380000  1
  O  O112  1  0.51910000  0.65100000  0.15620000  1
  O  O113  1  0.51910000  0.65100000  0.34380000  1
  O  O114  1  0.66830000  0.56580000  0.15770000  1
  O  O115  1  0.66830000  0.56580000  0.34230000  1
  O  O116  1  0.74890000  0.78080000  0.13700000  1
  O  O117  1  0.74890000  0.78080000  0.36300000  1
  O  O118  1  0.74910000  0.74880000  0.65150000  1
  O  O119  1  0.74910000  0.74880000  0.84850000  1
  O  O120  1  0.84030000  0.00000000  0.68890000  1
  O  O121  1  0.84030000  0.00000000  0.81110000  1
  O  O122  1  0.86680000  0.87320000  0.57650000  1
  O  O123  1  0.86680000  0.87320000  0.92350000  1
  O  O124  1  0.86810000  0.34900000  0.15620000  1
  O  O125  1  0.86810000  0.34900000  0.34380000  1
  O  O126  1  0.89750000  0.56580000  0.65770000  1
  O  O127  1  0.89750000  0.56580000  0.84230000  1
  O  O128  1  0.91630000  0.87980000  0.25000000  1
  O  O129  1  0.96350000  0.87980000  0.75000000  1
  O  O130  1  0.96810000  0.21920000  0.13700000  1
  O  O131  1  0.96810000  0.21920000  0.36300000  1
  O  O132  1  0.99360000  0.12680000  0.57650000  1
  O  O133  1  0.99360000  0.12680000  0.92350000  1
  O  O134  1  0.99970000  0.74880000  0.15150000  1
  O  O135  1  0.99970000  0.74880000  0.34850000  1
