# generated using pymatgen
data_EuPH11C7NO5
_symmetry_space_group_name_H-M   'P 1'
_cell_length_a   5.53130000
_cell_length_b   13.39600000
_cell_length_c   20.93400000
_cell_angle_alpha   90.00000000
_cell_angle_beta   96.17700000
_cell_angle_gamma   90.00000000
_symmetry_Int_Tables_number   1
_chemical_formula_structural   EuPH11C7NO5
_chemical_formula_sum   'Eu4 P4 H44 C28 N4 O20'
_cell_volume   1542.14714490
_cell_formula_units_Z   4
loop_
 _symmetry_equiv_pos_site_id
 _symmetry_equiv_pos_as_xyz
  1  'x, y, z'
loop_
 _atom_site_type_symbol
 _atom_site_label
 _atom_site_symmetry_multiplicity
 _atom_site_fract_x
 _atom_site_fract_y
 _atom_site_fract_z
 _atom_site_occupancy
  Eu  Eu0  1  0.37323000  0.63215000  0.52763000  1
  Eu  Eu1  1  0.37323000  0.86785000  0.02763000  1
  Eu  Eu2  1  0.62677000  0.13215000  0.97237000  1
  Eu  Eu3  1  0.62677000  0.36785000  0.47237000  1
  P  P4  1  0.08690000  0.52230000  0.41341000  1
  P  P5  1  0.08690000  0.97770000  0.91341000  1
  P  P6  1  0.91310000  0.02230000  0.08659000  1
  P  P7  1  0.91310000  0.47770000  0.58659000  1
  H  H8  1  0.01230000  0.74760000  0.67560000  1
  H  H9  1  0.01230000  0.75240000  0.17560000  1
  H  H10  1  0.03700000  0.09750000  0.37220000  1
  H  H11  1  0.03700000  0.40250000  0.87220000  1
  H  H12  1  0.07310000  0.19820000  0.16180000  1
  H  H13  1  0.07310000  0.30180000  0.66180000  1
  H  H14  1  0.10390000  0.00470000  0.71220000  1
  H  H15  1  0.10390000  0.49530000  0.21220000  1
  H  H16  1  0.13170000  0.72020000  0.29370000  1
  H  H17  1  0.13170000  0.77980000  0.79370000  1
  H  H18  1  0.22160000  0.19460000  0.74570000  1
  H  H19  1  0.22160000  0.30540000  0.24570000  1
  H  H20  1  0.22820000  0.02850000  0.81840000  1
  H  H21  1  0.22820000  0.47150000  0.31840000  1
  H  H22  1  0.23790000  0.59870000  0.21840000  1
  H  H23  1  0.23790000  0.90130000  0.71840000  1
  H  H24  1  0.24850000  0.07160000  0.33080000  1
  H  H25  1  0.24850000  0.42840000  0.83080000  1
  H  H26  1  0.32590000  0.57840000  0.33650000  1
  H  H27  1  0.32590000  0.92160000  0.83650000  1
  H  H28  1  0.36930000  0.20510000  0.25020000  1
  H  H29  1  0.36930000  0.29490000  0.75020000  1
  H  H30  1  0.63070000  0.70510000  0.24980000  1
  H  H31  1  0.63070000  0.79490000  0.74980000  1
  H  H32  1  0.67410000  0.07840000  0.16350000  1
  H  H33  1  0.67410000  0.42160000  0.66350000  1
  H  H34  1  0.75150000  0.57160000  0.16920000  1
  H  H35  1  0.75150000  0.92840000  0.66920000  1
  H  H36  1  0.76210000  0.09870000  0.28160000  1
  H  H37  1  0.76210000  0.40130000  0.78160000  1
  H  H38  1  0.77180000  0.52850000  0.68160000  1
  H  H39  1  0.77180000  0.97150000  0.18160000  1
  H  H40  1  0.77840000  0.69460000  0.75430000  1
  H  H41  1  0.77840000  0.80540000  0.25430000  1
  H  H42  1  0.86830000  0.22020000  0.20630000  1
  H  H43  1  0.86830000  0.27980000  0.70630000  1
  H  H44  1  0.89610000  0.50470000  0.78780000  1
  H  H45  1  0.89610000  0.99530000  0.28780000  1
  H  H46  1  0.92690000  0.69820000  0.33820000  1
  H  H47  1  0.92690000  0.80180000  0.83820000  1
  H  H48  1  0.96300000  0.59750000  0.12780000  1
  H  H49  1  0.96300000  0.90250000  0.62780000  1
  H  H50  1  0.98770000  0.24760000  0.82440000  1
  H  H51  1  0.98770000  0.25240000  0.32440000  1
  C  C52  1  0.02400000  0.18770000  0.20440000  1
  C  C53  1  0.02400000  0.31230000  0.70440000  1
  C  C54  1  0.08200000  0.56600000  0.22000000  1
  C  C55  1  0.08200000  0.93400000  0.72000000  1
  C  C56  1  0.09600000  0.10760000  0.33070000  1
  C  C57  1  0.09600000  0.39240000  0.83070000  1
  C  C58  1  0.14300000  0.21790000  0.32170000  1
  C  C59  1  0.14300000  0.28210000  0.82170000  1
  C  C60  1  0.18200000  0.53660000  0.33333333  1
  C  C61  1  0.18200000  0.96340000  0.83330000  1
  C  C62  1  0.21100000  0.23440000  0.25390000  1
  C  C63  1  0.21100000  0.26560000  0.75390000  1
  C  C64  1  0.32600000  0.23700000  0.87340000  1
  C  C65  1  0.32600000  0.26300000  0.37340000  1
  C  C66  1  0.67400000  0.73700000  0.62660000  1
  C  C67  1  0.67400000  0.76300000  0.12660000  1
  C  C68  1  0.78900000  0.73440000  0.24610000  1
  C  C69  1  0.78900000  0.76560000  0.74610000  1
  C  C70  1  0.81800000  0.03660000  0.16670000  1
  C  C71  1  0.81800000  0.46340000  0.66666667  1
  C  C72  1  0.85700000  0.71790000  0.17830000  1
  C  C73  1  0.85700000  0.78210000  0.67830000  1
  C  C74  1  0.90400000  0.60760000  0.16930000  1
  C  C75  1  0.90400000  0.89240000  0.66930000  1
  C  C76  1  0.91800000  0.06600000  0.28000000  1
  C  C77  1  0.91800000  0.43400000  0.78000000  1
  C  C78  1  0.97600000  0.68770000  0.29560000  1
  C  C79  1  0.97600000  0.81230000  0.79560000  1
  N  N80  1  0.00200000  0.57970000  0.28430000  1
  N  N81  1  0.00200000  0.92030000  0.78430000  1
  N  N82  1  0.99800000  0.07970000  0.21570000  1
  N  N83  1  0.99800000  0.42030000  0.71570000  1
  O  O84  1  0.03870000  0.62200000  0.44280000  1
  O  O85  1  0.03870000  0.87800000  0.94280000  1
  O  O86  1  0.12670000  0.54690000  0.59000000  1
  O  O87  1  0.12670000  0.95310000  0.09000000  1
  O  O88  1  0.29650000  0.24640000  0.43240000  1
  O  O89  1  0.29650000  0.25360000  0.93240000  1
  O  O90  1  0.31650000  0.01770000  0.95450000  1
  O  O91  1  0.31650000  0.48230000  0.45450000  1
  O  O92  1  0.49730000  0.18350000  0.85980000  1
  O  O93  1  0.49730000  0.31650000  0.35980000  1
  O  O94  1  0.50270000  0.68350000  0.64020000  1
  O  O95  1  0.50270000  0.81650000  0.14020000  1
  O  O96  1  0.68350000  0.51770000  0.54550000  1
  O  O97  1  0.68350000  0.98230000  0.04550000  1
  O  O98  1  0.70350000  0.74640000  0.06760000  1
  O  O99  1  0.70350000  0.75360000  0.56760000  1
  O  O100  1  0.87330000  0.04690000  0.91000000  1
  O  O101  1  0.87330000  0.45310000  0.41000000  1
  O  O102  1  0.96130000  0.12200000  0.05720000  1
  O  O103  1  0.96130000  0.37800000  0.55720000  1
