# generated using pymatgen
data_Zn3H4(C5O4)4
_symmetry_space_group_name_H-M   'P 1'
_cell_length_a   14.39290000
_cell_length_b   17.85160000
_cell_length_c   26.71110000
_cell_angle_alpha   90.00000000
_cell_angle_beta   90.00000000
_cell_angle_gamma   90.00000000
_symmetry_Int_Tables_number   1
_chemical_formula_structural   Zn3H4(C5O4)4
_chemical_formula_sum   'Zn24 H32 C160 O128'
_cell_volume   6863.05103305
_cell_formula_units_Z   8
loop_
 _symmetry_equiv_pos_site_id
 _symmetry_equiv_pos_as_xyz
  1  'x, y, z'
loop_
 _atom_site_type_symbol
 _atom_site_label
 _atom_site_symmetry_multiplicity
 _atom_site_fract_x
 _atom_site_fract_y
 _atom_site_fract_z
 _atom_site_occupancy
  Zn  Zn0  1  0.06416000  0.02868000  0.79596000  1
  Zn  Zn1  1  0.06416000  0.47132000  0.79596000  1
  Zn  Zn2  1  0.13343000  0.54218000  0.55590000  1
  Zn  Zn3  1  0.13343000  0.95782000  0.55590000  1
  Zn  Zn4  1  0.24583000  0.03592000  0.65801000  1
  Zn  Zn5  1  0.24583000  0.46408000  0.65801000  1
  Zn  Zn6  1  0.25417000  0.53592000  0.15801000  1
  Zn  Zn7  1  0.25417000  0.96408000  0.15801000  1
  Zn  Zn8  1  0.36657000  0.04218000  0.05590000  1
  Zn  Zn9  1  0.36657000  0.45782000  0.05590000  1
  Zn  Zn10  1  0.43584000  0.52868000  0.29596000  1
  Zn  Zn11  1  0.43584000  0.97132000  0.29596000  1
  Zn  Zn12  1  0.56416000  0.02868000  0.70404000  1
  Zn  Zn13  1  0.56416000  0.47132000  0.70404000  1
  Zn  Zn14  1  0.63343000  0.54218000  0.94410000  1
  Zn  Zn15  1  0.63343000  0.95782000  0.94410000  1
  Zn  Zn16  1  0.74583000  0.03592000  0.84199000  1
  Zn  Zn17  1  0.74583000  0.46408000  0.84199000  1
  Zn  Zn18  1  0.75417000  0.53592000  0.34199000  1
  Zn  Zn19  1  0.75417000  0.96408000  0.34199000  1
  Zn  Zn20  1  0.86657000  0.04218000  0.44410000  1
  Zn  Zn21  1  0.86657000  0.45782000  0.44410000  1
  Zn  Zn22  1  0.93584000  0.52868000  0.20404000  1
  Zn  Zn23  1  0.93584000  0.97132000  0.20404000  1
  H  H24  1  0.03060000  0.75000000  0.52650000  1
  H  H25  1  0.04740000  0.75000000  0.21140000  1
  H  H26  1  0.11410000  0.75000000  0.79720000  1
  H  H27  1  0.13460000  0.04090000  0.96410000  1
  H  H28  1  0.13460000  0.45910000  0.96410000  1
  H  H29  1  0.13560000  0.75000000  0.62500000  1
  H  H30  1  0.14620000  0.25000000  0.76180000  1
  H  H31  1  0.16520000  0.25000000  0.60960000  1
  H  H32  1  0.33480000  0.75000000  0.10960000  1
  H  H33  1  0.35380000  0.75000000  0.26180000  1
  H  H34  1  0.36440000  0.25000000  0.12500000  1
  H  H35  1  0.36540000  0.54090000  0.46410000  1
  H  H36  1  0.36540000  0.95910000  0.46410000  1
  H  H37  1  0.38590000  0.25000000  0.29720000  1
  H  H38  1  0.45260000  0.25000000  0.71140000  1
  H  H39  1  0.46940000  0.25000000  0.02650000  1
  H  H40  1  0.53060000  0.75000000  0.97350000  1
  H  H41  1  0.54740000  0.75000000  0.28860000  1
  H  H42  1  0.61410000  0.75000000  0.70280000  1
  H  H43  1  0.63460000  0.04090000  0.53590000  1
  H  H44  1  0.63460000  0.45910000  0.53590000  1
  H  H45  1  0.63560000  0.75000000  0.87500000  1
  H  H46  1  0.64620000  0.25000000  0.73820000  1
  H  H47  1  0.66520000  0.25000000  0.89040000  1
  H  H48  1  0.83480000  0.75000000  0.39040000  1
  H  H49  1  0.85380000  0.75000000  0.23820000  1
  H  H50  1  0.86440000  0.25000000  0.37500000  1
  H  H51  1  0.86540000  0.54090000  0.03590000  1
  H  H52  1  0.86540000  0.95910000  0.03590000  1
  H  H53  1  0.88590000  0.25000000  0.20280000  1
  H  H54  1  0.95260000  0.25000000  0.78860000  1
  H  H55  1  0.96940000  0.25000000  0.47350000  1
  C  C56  1  0.00130000  0.02280000  0.94960000  1
  C  C57  1  0.00130000  0.47720000  0.94960000  1
  C  C58  1  0.00530000  0.11290000  0.49390000  1
  C  C59  1  0.00530000  0.38710000  0.49390000  1
  C  C60  1  0.00870000  0.25000000  0.50110000  1
  C  C61  1  0.00950000  0.04930000  0.89590000  1
  C  C62  1  0.00950000  0.45070000  0.89590000  1
  C  C63  1  0.03750000  0.18230000  0.52140000  1
  C  C64  1  0.03750000  0.31770000  0.52140000  1
  C  C65  1  0.07930000  0.02510000  0.97869000  1
  C  C66  1  0.07930000  0.47490000  0.97869000  1
  C  C67  1  0.08040000  0.00500000  0.02895000  1
  C  C68  1  0.08040000  0.49500000  0.02895000  1
  C  C69  1  0.09610000  0.18250000  0.56182000  1
  C  C70  1  0.09610000  0.31750000  0.56182000  1
  C  C71  1  0.10380000  0.60990000  0.21842000  1
  C  C72  1  0.10380000  0.89010000  0.21842000  1
  C  C73  1  0.11020000  0.75000000  0.21970000  1
  C  C74  1  0.12050000  0.75000000  0.76260000  1
  C  C75  1  0.12370000  0.60930000  0.76623000  1
  C  C76  1  0.12370000  0.89070000  0.76623000  1
  C  C77  1  0.12530000  0.68170000  0.73702000  1
  C  C78  1  0.12530000  0.81830000  0.73702000  1
  C  C79  1  0.12550000  0.25000000  0.58210000  1
  C  C80  1  0.13020000  0.11160000  0.58530000  1
  C  C81  1  0.13020000  0.38840000  0.58530000  1
  C  C82  1  0.13130000  0.68200000  0.68474000  1
  C  C83  1  0.13130000  0.81800000  0.68474000  1
  C  C84  1  0.13310000  0.75000000  0.65980000  1
  C  C85  1  0.14900000  0.61260000  0.65492000  1
  C  C86  1  0.14900000  0.88740000  0.65492000  1
  C  C87  1  0.15660000  0.68160000  0.22577000  1
  C  C88  1  0.15660000  0.81840000  0.22577000  1
  C  C89  1  0.16900000  0.01200000  0.05762000  1
  C  C90  1  0.16900000  0.48800000  0.05762000  1
  C  C91  1  0.19310000  0.11310000  0.75098000  1
  C  C92  1  0.19310000  0.38690000  0.75098000  1
  C  C93  1  0.20700000  0.25000000  0.74990000  1
  C  C94  1  0.24810000  0.68220000  0.24116000  1
  C  C95  1  0.24810000  0.81780000  0.24116000  1
  C  C96  1  0.25190000  0.18220000  0.74116000  1
  C  C97  1  0.25190000  0.31780000  0.74116000  1
  C  C98  1  0.29300000  0.75000000  0.24990000  1
  C  C99  1  0.30690000  0.61310000  0.25098000  1
  C  C100  1  0.30690000  0.88690000  0.25098000  1
  C  C101  1  0.33100000  0.51200000  0.55762000  1
  C  C102  1  0.33100000  0.98800000  0.55762000  1
  C  C103  1  0.34340000  0.18160000  0.72577000  1
  C  C104  1  0.34340000  0.31840000  0.72577000  1
  C  C105  1  0.35100000  0.11260000  0.15492000  1
  C  C106  1  0.35100000  0.38740000  0.15492000  1
  C  C107  1  0.36690000  0.25000000  0.15980000  1
  C  C108  1  0.36870000  0.18200000  0.18474000  1
  C  C109  1  0.36870000  0.31800000  0.18474000  1
  C  C110  1  0.36980000  0.61160000  0.08530000  1
  C  C111  1  0.36980000  0.88840000  0.08530000  1
  C  C112  1  0.37450000  0.75000000  0.08210000  1
  C  C113  1  0.37470000  0.18170000  0.23702000  1
  C  C114  1  0.37470000  0.31830000  0.23702000  1
  C  C115  1  0.37630000  0.10930000  0.26623000  1
  C  C116  1  0.37630000  0.39070000  0.26623000  1
  C  C117  1  0.37950000  0.25000000  0.26260000  1
  C  C118  1  0.38980000  0.25000000  0.71970000  1
  C  C119  1  0.39620000  0.10990000  0.71842000  1
  C  C120  1  0.39620000  0.39010000  0.71842000  1
  C  C121  1  0.40390000  0.68250000  0.06182000  1
  C  C122  1  0.40390000  0.81750000  0.06182000  1
  C  C123  1  0.41960000  0.50500000  0.52895000  1
  C  C124  1  0.41960000  0.99500000  0.52895000  1
  C  C125  1  0.42070000  0.52510000  0.47869000  1
  C  C126  1  0.42070000  0.97490000  0.47869000  1
  C  C127  1  0.46250000  0.68230000  0.02140000  1
  C  C128  1  0.46250000  0.81770000  0.02140000  1
  C  C129  1  0.49050000  0.54930000  0.39590000  1
  C  C130  1  0.49050000  0.95070000  0.39590000  1
  C  C131  1  0.49130000  0.75000000  0.00110000  1
  C  C132  1  0.49470000  0.61290000  0.99390000  1
  C  C133  1  0.49470000  0.88710000  0.99390000  1
  C  C134  1  0.49870000  0.52280000  0.44960000  1
  C  C135  1  0.49870000  0.97720000  0.44960000  1
  C  C136  1  0.50130000  0.02280000  0.55040000  1
  C  C137  1  0.50130000  0.47720000  0.55040000  1
  C  C138  1  0.50530000  0.11290000  0.00610000  1
  C  C139  1  0.50530000  0.38710000  0.00610000  1
  C  C140  1  0.50870000  0.25000000  0.99890000  1
  C  C141  1  0.50950000  0.04930000  0.60410000  1
  C  C142  1  0.50950000  0.45070000  0.60410000  1
  C  C143  1  0.53750000  0.18230000  0.97860000  1
  C  C144  1  0.53750000  0.31770000  0.97860000  1
  C  C145  1  0.57930000  0.02510000  0.52131000  1
  C  C146  1  0.57930000  0.47490000  0.52131000  1
  C  C147  1  0.58040000  0.00500000  0.47105000  1
  C  C148  1  0.58040000  0.49500000  0.47105000  1
  C  C149  1  0.59610000  0.18250000  0.93818000  1
  C  C150  1  0.59610000  0.31750000  0.93818000  1
  C  C151  1  0.60380000  0.60990000  0.28158000  1
  C  C152  1  0.60380000  0.89010000  0.28158000  1
  C  C153  1  0.61020000  0.75000000  0.28030000  1
  C  C154  1  0.62050000  0.75000000  0.73740000  1
  C  C155  1  0.62370000  0.60930000  0.73377000  1
  C  C156  1  0.62370000  0.89070000  0.73377000  1
  C  C157  1  0.62530000  0.68170000  0.76298000  1
  C  C158  1  0.62530000  0.81830000  0.76298000  1
  C  C159  1  0.62550000  0.25000000  0.91790000  1
  C  C160  1  0.63020000  0.11160000  0.91470000  1
  C  C161  1  0.63020000  0.38840000  0.91470000  1
  C  C162  1  0.63130000  0.68200000  0.81526000  1
  C  C163  1  0.63130000  0.81800000  0.81526000  1
  C  C164  1  0.63310000  0.75000000  0.84020000  1
  C  C165  1  0.64900000  0.61260000  0.84508000  1
  C  C166  1  0.64900000  0.88740000  0.84508000  1
  C  C167  1  0.65660000  0.68160000  0.27423000  1
  C  C168  1  0.65660000  0.81840000  0.27423000  1
  C  C169  1  0.66900000  0.01200000  0.44238000  1
  C  C170  1  0.66900000  0.48800000  0.44238000  1
  C  C171  1  0.69310000  0.11310000  0.74902000  1
  C  C172  1  0.69310000  0.38690000  0.74902000  1
  C  C173  1  0.70700000  0.25000000  0.75010000  1
  C  C174  1  0.74810000  0.68220000  0.25884000  1
  C  C175  1  0.74810000  0.81780000  0.25884000  1
  C  C176  1  0.75190000  0.18220000  0.75884000  1
  C  C177  1  0.75190000  0.31780000  0.75884000  1
  C  C178  1  0.79300000  0.75000000  0.25010000  1
  C  C179  1  0.80690000  0.61310000  0.24902000  1
  C  C180  1  0.80690000  0.88690000  0.24902000  1
  C  C181  1  0.83100000  0.51200000  0.94238000  1
  C  C182  1  0.83100000  0.98800000  0.94238000  1
  C  C183  1  0.84340000  0.18160000  0.77423000  1
  C  C184  1  0.84340000  0.31840000  0.77423000  1
  C  C185  1  0.85100000  0.11260000  0.34508000  1
  C  C186  1  0.85100000  0.38740000  0.34508000  1
  C  C187  1  0.86690000  0.25000000  0.34020000  1
  C  C188  1  0.86870000  0.18200000  0.31526000  1
  C  C189  1  0.86870000  0.31800000  0.31526000  1
  C  C190  1  0.86980000  0.61160000  0.41470000  1
  C  C191  1  0.86980000  0.88840000  0.41470000  1
  C  C192  1  0.87450000  0.75000000  0.41790000  1
  C  C193  1  0.87470000  0.18170000  0.26298000  1
  C  C194  1  0.87470000  0.31830000  0.26298000  1
  C  C195  1  0.87630000  0.10930000  0.23377000  1
  C  C196  1  0.87630000  0.39070000  0.23377000  1
  C  C197  1  0.87950000  0.25000000  0.23740000  1
  C  C198  1  0.88980000  0.25000000  0.78030000  1
  C  C199  1  0.89620000  0.10990000  0.78158000  1
  C  C200  1  0.89620000  0.39010000  0.78158000  1
  C  C201  1  0.90390000  0.68250000  0.43818000  1
  C  C202  1  0.90390000  0.81750000  0.43818000  1
  C  C203  1  0.91960000  0.50500000  0.97105000  1
  C  C204  1  0.91960000  0.99500000  0.97105000  1
  C  C205  1  0.92070000  0.52510000  0.02131000  1
  C  C206  1  0.92070000  0.97490000  0.02131000  1
  C  C207  1  0.96250000  0.68230000  0.47860000  1
  C  C208  1  0.96250000  0.81770000  0.47860000  1
  C  C209  1  0.99050000  0.54930000  0.10410000  1
  C  C210  1  0.99050000  0.95070000  0.10410000  1
  C  C211  1  0.99130000  0.75000000  0.49890000  1
  C  C212  1  0.99470000  0.61290000  0.50610000  1
  C  C213  1  0.99470000  0.88710000  0.50610000  1
  C  C214  1  0.99870000  0.52280000  0.05040000  1
  C  C215  1  0.99870000  0.97720000  0.05040000  1
  O  O216  1  0.00880000  0.61550000  0.11425000  1
  O  O217  1  0.00880000  0.88450000  0.11425000  1
  O  O218  1  0.01940000  0.60935000  0.23022000  1
  O  O219  1  0.01940000  0.89065000  0.23022000  1
  O  O220  1  0.04260000  0.00340000  0.86591000  1
  O  O221  1  0.04260000  0.49660000  0.86591000  1
  O  O222  1  0.05370000  0.56651000  0.75874000  1
  O  O223  1  0.05370000  0.93349000  0.75874000  1
  O  O224  1  0.05780000  0.08000000  0.46580000  1
  O  O225  1  0.05780000  0.42000000  0.46580000  1
  O  O226  1  0.08070000  0.59870000  0.50163000  1
  O  O227  1  0.08070000  0.90130000  0.50163000  1
  O  O228  1  0.08270000  0.05290000  0.57753000  1
  O  O229  1  0.08270000  0.44710000  0.57753000  1
  O  O230  1  0.11780000  0.61240000  0.61113000  1
  O  O231  1  0.11780000  0.88760000  0.61113000  1
  O  O232  1  0.14440000  0.55225000  0.20171000  1
  O  O233  1  0.14440000  0.94775000  0.20171000  1
  O  O234  1  0.16050000  0.07750000  0.71520000  1
  O  O235  1  0.16050000  0.42250000  0.71520000  1
  O  O236  1  0.16560000  0.00410000  0.10332000  1
  O  O237  1  0.16560000  0.49590000  0.10332000  1
  O  O238  1  0.17430000  0.09790000  0.79566000  1
  O  O239  1  0.17430000  0.40210000  0.79566000  1
  O  O240  1  0.18660000  0.59620000  0.79574000  1
  O  O241  1  0.18660000  0.90380000  0.79574000  1
  O  O242  1  0.19580000  0.56320000  0.67558000  1
  O  O243  1  0.19580000  0.93680000  0.67558000  1
  O  O244  1  0.20080000  0.11520000  0.61193000  1
  O  O245  1  0.20080000  0.38480000  0.61193000  1
  O  O246  1  0.24120000  0.02470000  0.03289000  1
  O  O247  1  0.24120000  0.47530000  0.03289000  1
  O  O248  1  0.25880000  0.52470000  0.53289000  1
  O  O249  1  0.25880000  0.97530000  0.53289000  1
  O  O250  1  0.29920000  0.61520000  0.11193000  1
  O  O251  1  0.29920000  0.88480000  0.11193000  1
  O  O252  1  0.30420000  0.06320000  0.17558000  1
  O  O253  1  0.30420000  0.43680000  0.17558000  1
  O  O254  1  0.31340000  0.09620000  0.29574000  1
  O  O255  1  0.31340000  0.40380000  0.29574000  1
  O  O256  1  0.32570000  0.59790000  0.29566000  1
  O  O257  1  0.32570000  0.90210000  0.29566000  1
  O  O258  1  0.33440000  0.50410000  0.60332000  1
  O  O259  1  0.33440000  0.99590000  0.60332000  1
  O  O260  1  0.33950000  0.57750000  0.21520000  1
  O  O261  1  0.33950000  0.92250000  0.21520000  1
  O  O262  1  0.35560000  0.05225000  0.70171000  1
  O  O263  1  0.35560000  0.44775000  0.70171000  1
  O  O264  1  0.38220000  0.11240000  0.11113000  1
  O  O265  1  0.38220000  0.38760000  0.11113000  1
  O  O266  1  0.41730000  0.55290000  0.07753000  1
  O  O267  1  0.41730000  0.94710000  0.07753000  1
  O  O268  1  0.41930000  0.09870000  0.00163000  1
  O  O269  1  0.41930000  0.40130000  0.00163000  1
  O  O270  1  0.44220000  0.58000000  0.96580000  1
  O  O271  1  0.44220000  0.92000000  0.96580000  1
  O  O272  1  0.44630000  0.06651000  0.25874000  1
  O  O273  1  0.44630000  0.43349000  0.25874000  1
  O  O274  1  0.45740000  0.50340000  0.36591000  1
  O  O275  1  0.45740000  0.99660000  0.36591000  1
  O  O276  1  0.48060000  0.10935000  0.73022000  1
  O  O277  1  0.48060000  0.39065000  0.73022000  1
  O  O278  1  0.49120000  0.11550000  0.61425000  1
  O  O279  1  0.49120000  0.38450000  0.61425000  1
  O  O280  1  0.50880000  0.61550000  0.38575000  1
  O  O281  1  0.50880000  0.88450000  0.38575000  1
  O  O282  1  0.51940000  0.60935000  0.26978000  1
  O  O283  1  0.51940000  0.89065000  0.26978000  1
  O  O284  1  0.54260000  0.00340000  0.63409000  1
  O  O285  1  0.54260000  0.49660000  0.63409000  1
  O  O286  1  0.55370000  0.56651000  0.74126000  1
  O  O287  1  0.55370000  0.93349000  0.74126000  1
  O  O288  1  0.55780000  0.08000000  0.03420000  1
  O  O289  1  0.55780000  0.42000000  0.03420000  1
  O  O290  1  0.58070000  0.59870000  0.99837000  1
  O  O291  1  0.58070000  0.90130000  0.99837000  1
  O  O292  1  0.58270000  0.05290000  0.92247000  1
  O  O293  1  0.58270000  0.44710000  0.92247000  1
  O  O294  1  0.61780000  0.61240000  0.88887000  1
  O  O295  1  0.61780000  0.88760000  0.88887000  1
  O  O296  1  0.64440000  0.55225000  0.29829000  1
  O  O297  1  0.64440000  0.94775000  0.29829000  1
  O  O298  1  0.66050000  0.07750000  0.78480000  1
  O  O299  1  0.66050000  0.42250000  0.78480000  1
  O  O300  1  0.66560000  0.00410000  0.39668000  1
  O  O301  1  0.66560000  0.49590000  0.39668000  1
  O  O302  1  0.67430000  0.09790000  0.70434000  1
  O  O303  1  0.67430000  0.40210000  0.70434000  1
  O  O304  1  0.68660000  0.59620000  0.70426000  1
  O  O305  1  0.68660000  0.90380000  0.70426000  1
  O  O306  1  0.69580000  0.56320000  0.82442000  1
  O  O307  1  0.69580000  0.93680000  0.82442000  1
  O  O308  1  0.70080000  0.11520000  0.88807000  1
  O  O309  1  0.70080000  0.38480000  0.88807000  1
  O  O310  1  0.74120000  0.02470000  0.46711000  1
  O  O311  1  0.74120000  0.47530000  0.46711000  1
  O  O312  1  0.75880000  0.52470000  0.96711000  1
  O  O313  1  0.75880000  0.97530000  0.96711000  1
  O  O314  1  0.79920000  0.61520000  0.38807000  1
  O  O315  1  0.79920000  0.88480000  0.38807000  1
  O  O316  1  0.80420000  0.06320000  0.32442000  1
  O  O317  1  0.80420000  0.43680000  0.32442000  1
  O  O318  1  0.81340000  0.09620000  0.20426000  1
  O  O319  1  0.81340000  0.40380000  0.20426000  1
  O  O320  1  0.82570000  0.59790000  0.20434000  1
  O  O321  1  0.82570000  0.90210000  0.20434000  1
  O  O322  1  0.83440000  0.50410000  0.89668000  1
  O  O323  1  0.83440000  0.99590000  0.89668000  1
  O  O324  1  0.83950000  0.57750000  0.28480000  1
  O  O325  1  0.83950000  0.92250000  0.28480000  1
  O  O326  1  0.85560000  0.05225000  0.79829000  1
  O  O327  1  0.85560000  0.44775000  0.79829000  1
  O  O328  1  0.88220000  0.11240000  0.38887000  1
  O  O329  1  0.88220000  0.38760000  0.38887000  1
  O  O330  1  0.91730000  0.55290000  0.42247000  1
  O  O331  1  0.91730000  0.94710000  0.42247000  1
  O  O332  1  0.91930000  0.09870000  0.49837000  1
  O  O333  1  0.91930000  0.40130000  0.49837000  1
  O  O334  1  0.94220000  0.58000000  0.53420000  1
  O  O335  1  0.94220000  0.92000000  0.53420000  1
  O  O336  1  0.94630000  0.06651000  0.24126000  1
  O  O337  1  0.94630000  0.43349000  0.24126000  1
  O  O338  1  0.95740000  0.50340000  0.13409000  1
  O  O339  1  0.95740000  0.99660000  0.13409000  1
  O  O340  1  0.98060000  0.10935000  0.76978000  1
  O  O341  1  0.98060000  0.39065000  0.76978000  1
  O  O342  1  0.99120000  0.11550000  0.88575000  1
  O  O343  1  0.99120000  0.38450000  0.88575000  1
