# generated using pymatgen
data_Cu2H12C21(N3O4)2
_symmetry_space_group_name_H-M   'P 1'
_cell_length_a   18.56530000
_cell_length_b   18.56530000
_cell_length_c   23.96360000
_cell_angle_alpha   90.00000000
_cell_angle_beta   90.00000000
_cell_angle_gamma   120.00000000
_symmetry_Int_Tables_number   1
_chemical_formula_structural   Cu2H12C21(N3O4)2
_chemical_formula_sum   'Cu12 H72 C126 N36 O48'
_cell_volume   7152.97383380
_cell_formula_units_Z   6
loop_
 _symmetry_equiv_pos_site_id
 _symmetry_equiv_pos_as_xyz
  1  'x, y, z'
loop_
 _atom_site_type_symbol
 _atom_site_label
 _atom_site_symmetry_multiplicity
 _atom_site_fract_x
 _atom_site_fract_y
 _atom_site_fract_z
 _atom_site_occupancy
  Cu  Cu0  1  0.95246000  0.47623000  0.95469000  1
  Cu  Cu1  1  0.95246000  0.47623000  0.54531000  1
  Cu  Cu2  1  0.52377000  0.04754000  0.95469000  1
  Cu  Cu3  1  0.52377000  0.04754000  0.54531000  1
  Cu  Cu4  1  0.52377000  0.47623000  0.95469000  1
  Cu  Cu5  1  0.52377000  0.47623000  0.54531000  1
  Cu  Cu6  1  0.47623000  0.52377000  0.45469000  1
  Cu  Cu7  1  0.47623000  0.52377000  0.04531000  1
  Cu  Cu8  1  0.47623000  0.95246000  0.45469000  1
  Cu  Cu9  1  0.47623000  0.95246000  0.04531000  1
  Cu  Cu10  1  0.04754000  0.52377000  0.45469000  1
  Cu  Cu11  1  0.04754000  0.52377000  0.04531000  1
  H  H12  1  0.98890000  0.14290000  0.25000000  1
  H  H13  1  0.98890000  0.84600000  0.25000000  1
  H  H14  1  0.92450000  0.29210000  0.36350000  1
  H  H15  1  0.92450000  0.29210000  0.13650000  1
  H  H16  1  0.92450000  0.63240000  0.36350000  1
  H  H17  1  0.92450000  0.63240000  0.13650000  1
  H  H18  1  0.85710000  0.01110000  0.25000000  1
  H  H19  1  0.85710000  0.84600000  0.25000000  1
  H  H20  1  0.84600000  0.85710000  0.75000000  1
  H  H21  1  0.84600000  0.98890000  0.75000000  1
  H  H22  1  0.82150000  0.28180000  0.28190000  1
  H  H23  1  0.82150000  0.28180000  0.21810000  1
  H  H24  1  0.82150000  0.53970000  0.28190000  1
  H  H25  1  0.82150000  0.53970000  0.21810000  1
  H  H26  1  0.76495000  0.23505000  0.49080000  1
  H  H27  1  0.76495000  0.23505000  0.00920000  1
  H  H28  1  0.76495000  0.52990000  0.49080000  1
  H  H29  1  0.76495000  0.52990000  0.00920000  1
  H  H30  1  0.71820000  0.17850000  0.28190000  1
  H  H31  1  0.71820000  0.17850000  0.21810000  1
  H  H32  1  0.71820000  0.53970000  0.28190000  1
  H  H33  1  0.71820000  0.53970000  0.21810000  1
  H  H34  1  0.70790000  0.07550000  0.36350000  1
  H  H35  1  0.70790000  0.07550000  0.13650000  1
  H  H36  1  0.70790000  0.63240000  0.36350000  1
  H  H37  1  0.70790000  0.63240000  0.13650000  1
  H  H38  1  0.63240000  0.70790000  0.86350000  1
  H  H39  1  0.63240000  0.70790000  0.63650000  1
  H  H40  1  0.63240000  0.92450000  0.86350000  1
  H  H41  1  0.63240000  0.92450000  0.63650000  1
  H  H42  1  0.53970000  0.71820000  0.78190000  1
  H  H43  1  0.53970000  0.71820000  0.71810000  1
  H  H44  1  0.53970000  0.82150000  0.78190000  1
  H  H45  1  0.53970000  0.82150000  0.71810000  1
  H  H46  1  0.52990000  0.76495000  0.99080000  1
  H  H47  1  0.52990000  0.76495000  0.50920000  1
  H  H48  1  0.47010000  0.23505000  0.49080000  1
  H  H49  1  0.47010000  0.23505000  0.00920000  1
  H  H50  1  0.46030000  0.17850000  0.28190000  1
  H  H51  1  0.46030000  0.17850000  0.21810000  1
  H  H52  1  0.46030000  0.28180000  0.28190000  1
  H  H53  1  0.46030000  0.28180000  0.21810000  1
  H  H54  1  0.36760000  0.07550000  0.36350000  1
  H  H55  1  0.36760000  0.07550000  0.13650000  1
  H  H56  1  0.36760000  0.29210000  0.36350000  1
  H  H57  1  0.36760000  0.29210000  0.13650000  1
  H  H58  1  0.29210000  0.36760000  0.86350000  1
  H  H59  1  0.29210000  0.36760000  0.63650000  1
  H  H60  1  0.29210000  0.92450000  0.86350000  1
  H  H61  1  0.29210000  0.92450000  0.63650000  1
  H  H62  1  0.28180000  0.46030000  0.78190000  1
  H  H63  1  0.28180000  0.46030000  0.71810000  1
  H  H64  1  0.28180000  0.82150000  0.78190000  1
  H  H65  1  0.28180000  0.82150000  0.71810000  1
  H  H66  1  0.23505000  0.47010000  0.99080000  1
  H  H67  1  0.23505000  0.47010000  0.50920000  1
  H  H68  1  0.23505000  0.76495000  0.99080000  1
  H  H69  1  0.23505000  0.76495000  0.50920000  1
  H  H70  1  0.17850000  0.46030000  0.78190000  1
  H  H71  1  0.17850000  0.46030000  0.71810000  1
  H  H72  1  0.17850000  0.71820000  0.78190000  1
  H  H73  1  0.17850000  0.71820000  0.71810000  1
  H  H74  1  0.15400000  0.01110000  0.25000000  1
  H  H75  1  0.15400000  0.14290000  0.25000000  1
  H  H76  1  0.14290000  0.15400000  0.75000000  1
  H  H77  1  0.14290000  0.98890000  0.75000000  1
  H  H78  1  0.07550000  0.36760000  0.86350000  1
  H  H79  1  0.07550000  0.36760000  0.63650000  1
  H  H80  1  0.07550000  0.70790000  0.86350000  1
  H  H81  1  0.07550000  0.70790000  0.63650000  1
  H  H82  1  0.01110000  0.15400000  0.75000000  1
  H  H83  1  0.01110000  0.85710000  0.75000000  1
  C  C84  1  0.94260000  0.14990000  0.25000000  1
  C  C85  1  0.94260000  0.79270000  0.25000000  1
  C  C86  1  0.90950000  0.35950000  0.45713000  1
  C  C87  1  0.90950000  0.35950000  0.04287000  1
  C  C88  1  0.90950000  0.55000000  0.45713000  1
  C  C89  1  0.90950000  0.55000000  0.04287000  1
  C  C90  1  0.87420000  0.25560000  0.38050000  1
  C  C91  1  0.87420000  0.25560000  0.11950000  1
  C  C92  1  0.87420000  0.61860000  0.38050000  1
  C  C93  1  0.87420000  0.61860000  0.11950000  1
  C  C94  1  0.85390000  0.27640000  0.43077000  1
  C  C95  1  0.85390000  0.27640000  0.06923000  1
  C  C96  1  0.85390000  0.57750000  0.43077000  1
  C  C97  1  0.85390000  0.57750000  0.06923000  1
  C  C98  1  0.85010000  0.05740000  0.25000000  1
  C  C99  1  0.85010000  0.79270000  0.25000000  1
  C  C100  1  0.84165000  0.15835000  0.29950000  1
  C  C101  1  0.84165000  0.15835000  0.20050000  1
  C  C102  1  0.84165000  0.68330000  0.29950000  1
  C  C103  1  0.84165000  0.68330000  0.20050000  1
  C  C104  1  0.82120000  0.17880000  0.25000000  1
  C  C105  1  0.82120000  0.64240000  0.25000000  1
  C  C106  1  0.81985000  0.18015000  0.35480000  1
  C  C107  1  0.81985000  0.18015000  0.14520000  1
  C  C108  1  0.81985000  0.63970000  0.35480000  1
  C  C109  1  0.81985000  0.63970000  0.14520000  1
  C  C110  1  0.79270000  0.85010000  0.75000000  1
  C  C111  1  0.79270000  0.94260000  0.75000000  1
  C  C112  1  0.77855000  0.22145000  0.45650000  1
  C  C113  1  0.77855000  0.22145000  0.04350000  1
  C  C114  1  0.77855000  0.55710000  0.45650000  1
  C  C115  1  0.77855000  0.55710000  0.04350000  1
  C  C116  1  0.74440000  0.12580000  0.38050000  1
  C  C117  1  0.74440000  0.12580000  0.11950000  1
  C  C118  1  0.74440000  0.61860000  0.38050000  1
  C  C119  1  0.74440000  0.61860000  0.11950000  1
  C  C120  1  0.72360000  0.14610000  0.43077000  1
  C  C121  1  0.72360000  0.14610000  0.06923000  1
  C  C122  1  0.72360000  0.57750000  0.43077000  1
  C  C123  1  0.72360000  0.57750000  0.06923000  1
  C  C124  1  0.68330000  0.84165000  0.79950000  1
  C  C125  1  0.68330000  0.84165000  0.70050000  1
  C  C126  1  0.64240000  0.82120000  0.75000000  1
  C  C127  1  0.64050000  0.09050000  0.45713000  1
  C  C128  1  0.64050000  0.09050000  0.04287000  1
  C  C129  1  0.64050000  0.55000000  0.45713000  1
  C  C130  1  0.64050000  0.55000000  0.04287000  1
  C  C131  1  0.63970000  0.81985000  0.85480000  1
  C  C132  1  0.63970000  0.81985000  0.64520000  1
  C  C133  1  0.61860000  0.74440000  0.88050000  1
  C  C134  1  0.61860000  0.74440000  0.61950000  1
  C  C135  1  0.61860000  0.87420000  0.88050000  1
  C  C136  1  0.61860000  0.87420000  0.61950000  1
  C  C137  1  0.57750000  0.72360000  0.93077000  1
  C  C138  1  0.57750000  0.72360000  0.56923000  1
  C  C139  1  0.57750000  0.85390000  0.93077000  1
  C  C140  1  0.57750000  0.85390000  0.56923000  1
  C  C141  1  0.55710000  0.77855000  0.95650000  1
  C  C142  1  0.55710000  0.77855000  0.54350000  1
  C  C143  1  0.55000000  0.64050000  0.95713000  1
  C  C144  1  0.55000000  0.64050000  0.54287000  1
  C  C145  1  0.55000000  0.90950000  0.95713000  1
  C  C146  1  0.55000000  0.90950000  0.54287000  1
  C  C147  1  0.45000000  0.09050000  0.45713000  1
  C  C148  1  0.45000000  0.09050000  0.04287000  1
  C  C149  1  0.45000000  0.35950000  0.45713000  1
  C  C150  1  0.45000000  0.35950000  0.04287000  1
  C  C151  1  0.44290000  0.22145000  0.45650000  1
  C  C152  1  0.44290000  0.22145000  0.04350000  1
  C  C153  1  0.42250000  0.14610000  0.43077000  1
  C  C154  1  0.42250000  0.14610000  0.06923000  1
  C  C155  1  0.42250000  0.27640000  0.43077000  1
  C  C156  1  0.42250000  0.27640000  0.06923000  1
  C  C157  1  0.38140000  0.12580000  0.38050000  1
  C  C158  1  0.38140000  0.12580000  0.11950000  1
  C  C159  1  0.38140000  0.25560000  0.38050000  1
  C  C160  1  0.38140000  0.25560000  0.11950000  1
  C  C161  1  0.36030000  0.18015000  0.35480000  1
  C  C162  1  0.36030000  0.18015000  0.14520000  1
  C  C163  1  0.35950000  0.45000000  0.95713000  1
  C  C164  1  0.35950000  0.45000000  0.54287000  1
  C  C165  1  0.35950000  0.90950000  0.95713000  1
  C  C166  1  0.35950000  0.90950000  0.54287000  1
  C  C167  1  0.35760000  0.17880000  0.25000000  1
  C  C168  1  0.31670000  0.15835000  0.29950000  1
  C  C169  1  0.31670000  0.15835000  0.20050000  1
  C  C170  1  0.27640000  0.42250000  0.93077000  1
  C  C171  1  0.27640000  0.42250000  0.56923000  1
  C  C172  1  0.27640000  0.85390000  0.93077000  1
  C  C173  1  0.27640000  0.85390000  0.56923000  1
  C  C174  1  0.25560000  0.38140000  0.88050000  1
  C  C175  1  0.25560000  0.38140000  0.61950000  1
  C  C176  1  0.25560000  0.87420000  0.88050000  1
  C  C177  1  0.25560000  0.87420000  0.61950000  1
  C  C178  1  0.22145000  0.44290000  0.95650000  1
  C  C179  1  0.22145000  0.44290000  0.54350000  1
  C  C180  1  0.22145000  0.77855000  0.95650000  1
  C  C181  1  0.22145000  0.77855000  0.54350000  1
  C  C182  1  0.20730000  0.05740000  0.25000000  1
  C  C183  1  0.20730000  0.14990000  0.25000000  1
  C  C184  1  0.18015000  0.36030000  0.85480000  1
  C  C185  1  0.18015000  0.36030000  0.64520000  1
  C  C186  1  0.18015000  0.81985000  0.85480000  1
  C  C187  1  0.18015000  0.81985000  0.64520000  1
  C  C188  1  0.17880000  0.35760000  0.75000000  1
  C  C189  1  0.17880000  0.82120000  0.75000000  1
  C  C190  1  0.15835000  0.31670000  0.79950000  1
  C  C191  1  0.15835000  0.31670000  0.70050000  1
  C  C192  1  0.15835000  0.84165000  0.79950000  1
  C  C193  1  0.15835000  0.84165000  0.70050000  1
  C  C194  1  0.14990000  0.20730000  0.75000000  1
  C  C195  1  0.14990000  0.94260000  0.75000000  1
  C  C196  1  0.14610000  0.42250000  0.93077000  1
  C  C197  1  0.14610000  0.42250000  0.56923000  1
  C  C198  1  0.14610000  0.72360000  0.93077000  1
  C  C199  1  0.14610000  0.72360000  0.56923000  1
  C  C200  1  0.12580000  0.38140000  0.88050000  1
  C  C201  1  0.12580000  0.38140000  0.61950000  1
  C  C202  1  0.12580000  0.74440000  0.88050000  1
  C  C203  1  0.12580000  0.74440000  0.61950000  1
  C  C204  1  0.09050000  0.45000000  0.95713000  1
  C  C205  1  0.09050000  0.45000000  0.54287000  1
  C  C206  1  0.09050000  0.64050000  0.95713000  1
  C  C207  1  0.09050000  0.64050000  0.54287000  1
  C  C208  1  0.05740000  0.20730000  0.75000000  1
  C  C209  1  0.05740000  0.85010000  0.75000000  1
  N  N210  1  0.91520000  0.15410000  0.29930000  1
  N  N211  1  0.91520000  0.15410000  0.20070000  1
  N  N212  1  0.91520000  0.76110000  0.29930000  1
  N  N213  1  0.91520000  0.76110000  0.20070000  1
  N  N214  1  0.84590000  0.08480000  0.29930000  1
  N  N215  1  0.84590000  0.08480000  0.20070000  1
  N  N216  1  0.84590000  0.76110000  0.29930000  1
  N  N217  1  0.84590000  0.76110000  0.20070000  1
  N  N218  1  0.82180000  0.25770000  0.25000000  1
  N  N219  1  0.82180000  0.56410000  0.25000000  1
  N  N220  1  0.76110000  0.84590000  0.79930000  1
  N  N221  1  0.76110000  0.84590000  0.70070000  1
  N  N222  1  0.76110000  0.91520000  0.79930000  1
  N  N223  1  0.76110000  0.91520000  0.70070000  1
  N  N224  1  0.74230000  0.17820000  0.25000000  1
  N  N225  1  0.74230000  0.56410000  0.25000000  1
  N  N226  1  0.56410000  0.74230000  0.75000000  1
  N  N227  1  0.56410000  0.82180000  0.75000000  1
  N  N228  1  0.43590000  0.17820000  0.25000000  1
  N  N229  1  0.43590000  0.25770000  0.25000000  1
  N  N230  1  0.25770000  0.43590000  0.75000000  1
  N  N231  1  0.25770000  0.82180000  0.75000000  1
  N  N232  1  0.23890000  0.08480000  0.29930000  1
  N  N233  1  0.23890000  0.08480000  0.20070000  1
  N  N234  1  0.23890000  0.15410000  0.29930000  1
  N  N235  1  0.23890000  0.15410000  0.20070000  1
  N  N236  1  0.17820000  0.43590000  0.75000000  1
  N  N237  1  0.17820000  0.74230000  0.75000000  1
  N  N238  1  0.15410000  0.23890000  0.79930000  1
  N  N239  1  0.15410000  0.23890000  0.70070000  1
  N  N240  1  0.15410000  0.91520000  0.79930000  1
  N  N241  1  0.15410000  0.91520000  0.70070000  1
  N  N242  1  0.08480000  0.23890000  0.79930000  1
  N  N243  1  0.08480000  0.23890000  0.70070000  1
  N  N244  1  0.08480000  0.84590000  0.79930000  1
  N  N245  1  0.08480000  0.84590000  0.70070000  1
  O  O246  1  0.97063000  0.41081000  0.42880000  1
  O  O247  1  0.97063000  0.41081000  0.07120000  1
  O  O248  1  0.97063000  0.55982000  0.42880000  1
  O  O249  1  0.97063000  0.55982000  0.07120000  1
  O  O250  1  0.88965000  0.37099000  0.99451000  1
  O  O251  1  0.88965000  0.37099000  0.50549000  1
  O  O252  1  0.88965000  0.51866000  0.99451000  1
  O  O253  1  0.88965000  0.51866000  0.50549000  1
  O  O254  1  0.62901000  0.11035000  0.99451000  1
  O  O255  1  0.62901000  0.11035000  0.50549000  1
  O  O256  1  0.62901000  0.51866000  0.99451000  1
  O  O257  1  0.62901000  0.51866000  0.50549000  1
  O  O258  1  0.58919000  0.02937000  0.42880000  1
  O  O259  1  0.58919000  0.02937000  0.07120000  1
  O  O260  1  0.58919000  0.55982000  0.42880000  1
  O  O261  1  0.58919000  0.55982000  0.07120000  1
  O  O262  1  0.55982000  0.58919000  0.92880000  1
  O  O263  1  0.55982000  0.58919000  0.57120000  1
  O  O264  1  0.55982000  0.97063000  0.92880000  1
  O  O265  1  0.55982000  0.97063000  0.57120000  1
  O  O266  1  0.51866000  0.62901000  0.49451000  1
  O  O267  1  0.51866000  0.62901000  0.00549000  1
  O  O268  1  0.51866000  0.88965000  0.49451000  1
  O  O269  1  0.51866000  0.88965000  0.00549000  1
  O  O270  1  0.48134000  0.11035000  0.99451000  1
  O  O271  1  0.48134000  0.11035000  0.50549000  1
  O  O272  1  0.48134000  0.37099000  0.99451000  1
  O  O273  1  0.48134000  0.37099000  0.50549000  1
  O  O274  1  0.44018000  0.02937000  0.42880000  1
  O  O275  1  0.44018000  0.02937000  0.07120000  1
  O  O276  1  0.44018000  0.41081000  0.42880000  1
  O  O277  1  0.44018000  0.41081000  0.07120000  1
  O  O278  1  0.41081000  0.44018000  0.92880000  1
  O  O279  1  0.41081000  0.44018000  0.57120000  1
  O  O280  1  0.41081000  0.97063000  0.92880000  1
  O  O281  1  0.41081000  0.97063000  0.57120000  1
  O  O282  1  0.37099000  0.48134000  0.49451000  1
  O  O283  1  0.37099000  0.48134000  0.00549000  1
  O  O284  1  0.37099000  0.88965000  0.49451000  1
  O  O285  1  0.37099000  0.88965000  0.00549000  1
  O  O286  1  0.11035000  0.48134000  0.49451000  1
  O  O287  1  0.11035000  0.48134000  0.00549000  1
  O  O288  1  0.11035000  0.62901000  0.49451000  1
  O  O289  1  0.11035000  0.62901000  0.00549000  1
  O  O290  1  0.02937000  0.44018000  0.92880000  1
  O  O291  1  0.02937000  0.44018000  0.57120000  1
  O  O292  1  0.02937000  0.58919000  0.92880000  1
  O  O293  1  0.02937000  0.58919000  0.57120000  1
