# generated using pymatgen
data_Cd2H31C35(N2O3)2
_symmetry_space_group_name_H-M   'P 1'
_cell_length_a   9.89760000
_cell_length_b   14.58220000
_cell_length_c   26.57320000
_cell_angle_alpha   90.00000000
_cell_angle_beta   91.93000000
_cell_angle_gamma   90.00000000
_symmetry_Int_Tables_number   1
_chemical_formula_structural   Cd2H31C35(N2O3)2
_chemical_formula_sum   'Cd8 H124 C140 N16 O24'
_cell_volume   3833.10192859
_cell_formula_units_Z   4
loop_
 _symmetry_equiv_pos_site_id
 _symmetry_equiv_pos_as_xyz
  1  'x, y, z'
loop_
 _atom_site_type_symbol
 _atom_site_label
 _atom_site_symmetry_multiplicity
 _atom_site_fract_x
 _atom_site_fract_y
 _atom_site_fract_z
 _atom_site_occupancy
  Cd  Cd0  1  0.20516000  0.36894000  0.41556000  1
  Cd  Cd1  1  0.22199000  0.12533000  0.44561000  1
  Cd  Cd2  1  0.27801000  0.62533000  0.05439000  1
  Cd  Cd3  1  0.29484000  0.86894000  0.08444000  1
  Cd  Cd4  1  0.70516000  0.13106000  0.91556000  1
  Cd  Cd5  1  0.72199000  0.37467000  0.94561000  1
  Cd  Cd6  1  0.77801000  0.87467000  0.55439000  1
  Cd  Cd7  1  0.79484000  0.63106000  0.58444000  1
  H  H8  1  0.00140000  0.88420000  0.11200000  1
  H  H9  1  0.02370000  0.12370000  0.25870000  1
  H  H10  1  0.02410000  0.12050000  0.99430000  1
  H  H11  1  0.02660000  0.13680000  0.34550000  1
  H  H12  1  0.02880000  0.94630000  0.43160000  1
  H  H13  1  0.03340000  0.79570000  0.40630000  1
  H  H14  1  0.05810000  0.30600000  0.08400000  1
  H  H15  1  0.05870000  0.10010000  0.69190000  1
  H  H16  1  0.06860000  0.61720000  0.51400000  1
  H  H17  1  0.06990000  0.59560000  0.23340000  1
  H  H18  1  0.07660000  0.61440000  0.14740000  1
  H  H19  1  0.07790000  0.45850000  0.05680000  1
  H  H20  1  0.09310000  0.68120000  0.80350000  1
  H  H21  1  0.13180000  0.57590000  0.79680000  1
  H  H22  1  0.14220000  0.07270000  0.18280000  1
  H  H23  1  0.14550000  0.03420000  0.72840000  1
  H  H24  1  0.14900000  0.09840000  0.82560000  1
  H  H25  1  0.16480000  0.65470000  0.39450000  1
  H  H26  1  0.16570000  0.87290000  0.27580000  1
  H  H27  1  0.16590000  0.72100000  0.31340000  1
  H  H28  1  0.17340000  0.15780000  0.10130000  1
  H  H29  1  0.17370000  0.23470000  0.18210000  1
  H  H30  1  0.18500000  0.49100000  0.87220000  1
  H  H31  1  0.18620000  0.22320000  0.71360000  1
  H  H32  1  0.19410000  0.35190000  0.29090000  1
  H  H33  1  0.19720000  0.55780000  0.31410000  1
  H  H34  1  0.21810000  0.33790000  0.93590000  1
  H  H35  1  0.21910000  0.25790000  0.54070000  1
  H  H36  1  0.22880000  0.49110000  0.95840000  1
  H  H37  1  0.23230000  0.76360000  0.87340000  1
  H  H38  1  0.24140000  0.66970000  0.74050000  1
  H  H39  1  0.25860000  0.16970000  0.75950000  1
  H  H40  1  0.26770000  0.26360000  0.62660000  1
  H  H41  1  0.27120000  0.99110000  0.54160000  1
  H  H42  1  0.28090000  0.75790000  0.95930000  1
  H  H43  1  0.28190000  0.83790000  0.56410000  1
  H  H44  1  0.30280000  0.05780000  0.18590000  1
  H  H45  1  0.30590000  0.85190000  0.20910000  1
  H  H46  1  0.31380000  0.72320000  0.78640000  1
  H  H47  1  0.31500000  0.99100000  0.62780000  1
  H  H48  1  0.32630000  0.73470000  0.31790000  1
  H  H49  1  0.32660000  0.65780000  0.39870000  1
  H  H50  1  0.33410000  0.22100000  0.18660000  1
  H  H51  1  0.33430000  0.37290000  0.22420000  1
  H  H52  1  0.33520000  0.15470000  0.10550000  1
  H  H53  1  0.35100000  0.59840000  0.67440000  1
  H  H54  1  0.35450000  0.53420000  0.77160000  1
  H  H55  1  0.35780000  0.57270000  0.31720000  1
  H  H56  1  0.36820000  0.07590000  0.70320000  1
  H  H57  1  0.40690000  0.18120000  0.69650000  1
  H  H58  1  0.42210000  0.95850000  0.44320000  1
  H  H59  1  0.42340000  0.11440000  0.35260000  1
  H  H60  1  0.43010000  0.09560000  0.26660000  1
  H  H61  1  0.43140000  0.11720000  0.98600000  1
  H  H62  1  0.44130000  0.60010000  0.80810000  1
  H  H63  1  0.44190000  0.80600000  0.41600000  1
  H  H64  1  0.46660000  0.29570000  0.09370000  1
  H  H65  1  0.47120000  0.44630000  0.06840000  1
  H  H66  1  0.47340000  0.63680000  0.15450000  1
  H  H67  1  0.47590000  0.62050000  0.50570000  1
  H  H68  1  0.47630000  0.62370000  0.24130000  1
  H  H69  1  0.49860000  0.38420000  0.38800000  1
  H  H70  1  0.50140000  0.61580000  0.61200000  1
  H  H71  1  0.52370000  0.37630000  0.75870000  1
  H  H72  1  0.52410000  0.37950000  0.49430000  1
  H  H73  1  0.52660000  0.36320000  0.84550000  1
  H  H74  1  0.52880000  0.55370000  0.93160000  1
  H  H75  1  0.53340000  0.70430000  0.90630000  1
  H  H76  1  0.55810000  0.19400000  0.58400000  1
  H  H77  1  0.55870000  0.39990000  0.19190000  1
  H  H78  1  0.56860000  0.88280000  0.01400000  1
  H  H79  1  0.56990000  0.90440000  0.73340000  1
  H  H80  1  0.57660000  0.88560000  0.64740000  1
  H  H81  1  0.57790000  0.04150000  0.55680000  1
  H  H82  1  0.59310000  0.81880000  0.30350000  1
  H  H83  1  0.63180000  0.92410000  0.29680000  1
  H  H84  1  0.64220000  0.42730000  0.68280000  1
  H  H85  1  0.64550000  0.46580000  0.22840000  1
  H  H86  1  0.64900000  0.40160000  0.32560000  1
  H  H87  1  0.66480000  0.84530000  0.89450000  1
  H  H88  1  0.66570000  0.62710000  0.77580000  1
  H  H89  1  0.66590000  0.77900000  0.81340000  1
  H  H90  1  0.67340000  0.34220000  0.60130000  1
  H  H91  1  0.67370000  0.26530000  0.68210000  1
  H  H92  1  0.68500000  0.00900000  0.37220000  1
  H  H93  1  0.68620000  0.27680000  0.21360000  1
  H  H94  1  0.69410000  0.14810000  0.79090000  1
  H  H95  1  0.69720000  0.94220000  0.81410000  1
  H  H96  1  0.71810000  0.16210000  0.43590000  1
  H  H97  1  0.71910000  0.24210000  0.04070000  1
  H  H98  1  0.72880000  0.00890000  0.45840000  1
  H  H99  1  0.73230000  0.73640000  0.37340000  1
  H  H100  1  0.74140000  0.83030000  0.24050000  1
  H  H101  1  0.75860000  0.33030000  0.25950000  1
  H  H102  1  0.76770000  0.23640000  0.12660000  1
  H  H103  1  0.77120000  0.50890000  0.04160000  1
  H  H104  1  0.78090000  0.74210000  0.45930000  1
  H  H105  1  0.78190000  0.66210000  0.06410000  1
  H  H106  1  0.80280000  0.44220000  0.68590000  1
  H  H107  1  0.80590000  0.64810000  0.70910000  1
  H  H108  1  0.81380000  0.77680000  0.28640000  1
  H  H109  1  0.81500000  0.50900000  0.12780000  1
  H  H110  1  0.82630000  0.76530000  0.81790000  1
  H  H111  1  0.82660000  0.84220000  0.89870000  1
  H  H112  1  0.83410000  0.27900000  0.68660000  1
  H  H113  1  0.83430000  0.12710000  0.72420000  1
  H  H114  1  0.83520000  0.34530000  0.60550000  1
  H  H115  1  0.85100000  0.90160000  0.17440000  1
  H  H116  1  0.85450000  0.96580000  0.27160000  1
  H  H117  1  0.85780000  0.92730000  0.81720000  1
  H  H118  1  0.86820000  0.42410000  0.20320000  1
  H  H119  1  0.90690000  0.31880000  0.19650000  1
  H  H120  1  0.92210000  0.54150000  0.94320000  1
  H  H121  1  0.92340000  0.38560000  0.85260000  1
  H  H122  1  0.93010000  0.40440000  0.76660000  1
  H  H123  1  0.93140000  0.38280000  0.48600000  1
  H  H124  1  0.94130000  0.89990000  0.30810000  1
  H  H125  1  0.94190000  0.69400000  0.91600000  1
  H  H126  1  0.96660000  0.20430000  0.59370000  1
  H  H127  1  0.97120000  0.05370000  0.56840000  1
  H  H128  1  0.97340000  0.86320000  0.65450000  1
  H  H129  1  0.97590000  0.87950000  0.00570000  1
  H  H130  1  0.97630000  0.87630000  0.74130000  1
  H  H131  1  0.99860000  0.11580000  0.88800000  1
  C  C132  1  0.00540000  0.11040000  0.76600000  1
  C  C133  1  0.02790000  0.78540000  0.55110000  1
  C  C134  1  0.03060000  0.71850000  0.04720000  1
  C  C135  1  0.03410000  0.88100000  0.14590000  1
  C  C136  1  0.05570000  0.10780000  0.81770000  1
  C  C137  1  0.10330000  0.23550000  0.96220000  1
  C  C138  1  0.10600000  0.14930000  0.98530000  1
  C  C139  1  0.10740000  0.12030000  0.27720000  1
  C  C140  1  0.10760000  0.09680000  0.72500000  1
  C  C141  1  0.10960000  0.12910000  0.32910000  1
  C  C142  1  0.11430000  0.91760000  0.42850000  1
  C  C143  1  0.11550000  0.82800000  0.41280000  1
  C  C144  1  0.12900000  0.87490000  0.24230000  1
  C  C145  1  0.14450000  0.33350000  0.08130000  1
  C  C146  1  0.15220000  0.64820000  0.51920000  1
  C  C147  1  0.15450000  0.60450000  0.21820000  1
  C  C148  1  0.15510000  0.73570000  0.54120000  1
  C  C149  1  0.15800000  0.42510000  0.06500000  1
  C  C150  1  0.15910000  0.61530000  0.16670000  1
  C  C151  1  0.16710000  0.63610000  0.80830000  1
  C  C152  1  0.20150000  0.62940000  0.86370000  1
  C  C153  1  0.20290000  0.54700000  0.88940000  1
  C  C154  1  0.21240000  0.86260000  0.20220000  1
  C  C155  1  0.22120000  0.27830000  0.95030000  1
  C  C156  1  0.22150000  0.16270000  0.72460000  1
  C  C157  1  0.22730000  0.10640000  0.25170000  1
  C  C158  1  0.22750000  0.10660000  0.99500000  1
  C  C159  1  0.22870000  0.09910000  0.19570000  1
  C  C160  1  0.23090000  0.54790000  0.94090000  1
  C  C161  1  0.23130000  0.70610000  0.89020000  1
  C  C162  1  0.23450000  0.01790000  0.02490000  1
  C  C163  1  0.23930000  0.78560000  0.40670000  1
  C  C164  1  0.23960000  0.20270000  0.55840000  1
  C  C165  1  0.24550000  0.68990000  0.38480000  1
  C  C166  1  0.24890000  0.19410000  0.17270000  1
  C  C167  1  0.25110000  0.69410000  0.32730000  1
  C  C168  1  0.25450000  0.18990000  0.11520000  1
  C  C169  1  0.26040000  0.70270000  0.94160000  1
  C  C170  1  0.26070000  0.28560000  0.09330000  1
  C  C171  1  0.26550000  0.51790000  0.47510000  1
  C  C172  1  0.26870000  0.20610000  0.60980000  1
  C  C173  1  0.26910000  0.04790000  0.55910000  1
  C  C174  1  0.27130000  0.59910000  0.30430000  1
  C  C175  1  0.27250000  0.60660000  0.50500000  1
  C  C176  1  0.27270000  0.60640000  0.24830000  1
  C  C177  1  0.27850000  0.66270000  0.77540000  1
  C  C178  1  0.27880000  0.77830000  0.54970000  1
  C  C179  1  0.28760000  0.36260000  0.29780000  1
  C  C180  1  0.29710000  0.04700000  0.61060000  1
  C  C181  1  0.29850000  0.12940000  0.63630000  1
  C  C182  1  0.33290000  0.13610000  0.69170000  1
  C  C183  1  0.34090000  0.11530000  0.33333333  1
  C  C184  1  0.34200000  0.92510000  0.43500000  1
  C  C185  1  0.34490000  0.23570000  0.95880000  1
  C  C186  1  0.34550000  0.10450000  0.28180000  1
  C  C187  1  0.34780000  0.14820000  0.98080000  1
  C  C188  1  0.35550000  0.83350000  0.41870000  1
  C  C189  1  0.37100000  0.37490000  0.25770000  1
  C  C190  1  0.38450000  0.32800000  0.08720000  1
  C  C191  1  0.38570000  0.41760000  0.07150000  1
  C  C192  1  0.39040000  0.62910000  0.17090000  1
  C  C193  1  0.39240000  0.59680000  0.77500000  1
  C  C194  1  0.39260000  0.62030000  0.22280000  1
  C  C195  1  0.39400000  0.64930000  0.51470000  1
  C  C196  1  0.39670000  0.73550000  0.53780000  1
  C  C197  1  0.44430000  0.60780000  0.68230000  1
  C  C198  1  0.46590000  0.38100000  0.35410000  1
  C  C199  1  0.46940000  0.21850000  0.45280000  1
  C  C200  1  0.47210000  0.28540000  0.94890000  1
  C  C201  1  0.49460000  0.61040000  0.73400000  1
  C  C202  1  0.50540000  0.38960000  0.26600000  1
  C  C203  1  0.52790000  0.71460000  0.05110000  1
  C  C204  1  0.53060000  0.78150000  0.54720000  1
  C  C205  1  0.53410000  0.61900000  0.64590000  1
  C  C206  1  0.55570000  0.39220000  0.31770000  1
  C  C207  1  0.60330000  0.26450000  0.46220000  1
  C  C208  1  0.60600000  0.35070000  0.48530000  1
  C  C209  1  0.60740000  0.37970000  0.77720000  1
  C  C210  1  0.60760000  0.40320000  0.22500000  1
  C  C211  1  0.60960000  0.37090000  0.82910000  1
  C  C212  1  0.61430000  0.58240000  0.92850000  1
  C  C213  1  0.61550000  0.67200000  0.91280000  1
  C  C214  1  0.62900000  0.62510000  0.74230000  1
  C  C215  1  0.64450000  0.16650000  0.58130000  1
  C  C216  1  0.65220000  0.85180000  0.01920000  1
  C  C217  1  0.65450000  0.89550000  0.71820000  1
  C  C218  1  0.65510000  0.76430000  0.04120000  1
  C  C219  1  0.65800000  0.07490000  0.56500000  1
  C  C220  1  0.65910000  0.88470000  0.66666667  1
  C  C221  1  0.66710000  0.86390000  0.30830000  1
  C  C222  1  0.70150000  0.87060000  0.36370000  1
  C  C223  1  0.70290000  0.95300000  0.38940000  1
  C  C224  1  0.71240000  0.63740000  0.70220000  1
  C  C225  1  0.72120000  0.22170000  0.45030000  1
  C  C226  1  0.72150000  0.33730000  0.22460000  1
  C  C227  1  0.72730000  0.39360000  0.75170000  1
  C  C228  1  0.72750000  0.39340000  0.49500000  1
  C  C229  1  0.72870000  0.40090000  0.69570000  1
  C  C230  1  0.73090000  0.95210000  0.44090000  1
  C  C231  1  0.73130000  0.79390000  0.39020000  1
  C  C232  1  0.73450000  0.48210000  0.52490000  1
  C  C233  1  0.73930000  0.71440000  0.90670000  1
  C  C234  1  0.73960000  0.29730000  0.05840000  1
  C  C235  1  0.74550000  0.81010000  0.88480000  1
  C  C236  1  0.74890000  0.30590000  0.67270000  1
  C  C237  1  0.75110000  0.80590000  0.82730000  1
  C  C238  1  0.75450000  0.31010000  0.61520000  1
  C  C239  1  0.76040000  0.79730000  0.44160000  1
  C  C240  1  0.76070000  0.21440000  0.59330000  1
  C  C241  1  0.76550000  0.98210000  0.97510000  1
  C  C242  1  0.76870000  0.29390000  0.10980000  1
  C  C243  1  0.76910000  0.45210000  0.05910000  1
  C  C244  1  0.77130000  0.90090000  0.80430000  1
  C  C245  1  0.77250000  0.89340000  0.00500000  1
  C  C246  1  0.77270000  0.89360000  0.74830000  1
  C  C247  1  0.77850000  0.83730000  0.27540000  1
  C  C248  1  0.77880000  0.72170000  0.04970000  1
  C  C249  1  0.78760000  0.13740000  0.79780000  1
  C  C250  1  0.79710000  0.45300000  0.11060000  1
  C  C251  1  0.79850000  0.37060000  0.13630000  1
  C  C252  1  0.83290000  0.36390000  0.19170000  1
  C  C253  1  0.84090000  0.38470000  0.83330000  1
  C  C254  1  0.84200000  0.57490000  0.93500000  1
  C  C255  1  0.84490000  0.26430000  0.45880000  1
  C  C256  1  0.84550000  0.39550000  0.78180000  1
  C  C257  1  0.84780000  0.35180000  0.48080000  1
  C  C258  1  0.85550000  0.66650000  0.91870000  1
  C  C259  1  0.87100000  0.12510000  0.75770000  1
  C  C260  1  0.88450000  0.17200000  0.58720000  1
  C  C261  1  0.88570000  0.08240000  0.57150000  1
  C  C262  1  0.89040000  0.87090000  0.67090000  1
  C  C263  1  0.89240000  0.90320000  0.27500000  1
  C  C264  1  0.89260000  0.87970000  0.72280000  1
  C  C265  1  0.89400000  0.85070000  0.01470000  1
  C  C266  1  0.89670000  0.76450000  0.03780000  1
  C  C267  1  0.94430000  0.89220000  0.18230000  1
  C  C268  1  0.96590000  0.11900000  0.85410000  1
  C  C269  1  0.96940000  0.28150000  0.95280000  1
  C  C270  1  0.97210000  0.21460000  0.44890000  1
  C  C271  1  0.99460000  0.88960000  0.23400000  1
  N  N272  1  0.16870000  0.86510000  0.15430000  1
  N  N273  1  0.22420000  0.96730000  0.43960000  1
  N  N274  1  0.22570000  0.12700000  0.35710000  1
  N  N275  1  0.23990000  0.12240000  0.53300000  1
  N  N276  1  0.26010000  0.62240000  0.96700000  1
  N  N277  1  0.27430000  0.62700000  0.14290000  1
  N  N278  1  0.27580000  0.46730000  0.06040000  1
  N  N279  1  0.33130000  0.36510000  0.34570000  1
  N  N280  1  0.66870000  0.63490000  0.65430000  1
  N  N281  1  0.72420000  0.53270000  0.93960000  1
  N  N282  1  0.72570000  0.37300000  0.85710000  1
  N  N283  1  0.73990000  0.37760000  0.03300000  1
  N  N284  1  0.76010000  0.87760000  0.46700000  1
  N  N285  1  0.77430000  0.87300000  0.64290000  1
  N  N286  1  0.77580000  0.03270000  0.56040000  1
  N  N287  1  0.83130000  0.13490000  0.84570000  1
  O  O288  1  0.03050000  0.86970000  0.55920000  1
  O  O289  1  0.03340000  0.63190000  0.05380000  1
  O  O290  1  0.08450000  0.25830000  0.45090000  1
  O  O291  1  0.13910000  0.76450000  0.04790000  1
  O  O292  1  0.14060000  0.99800000  0.05360000  1
  O  O293  1  0.16100000  0.46840000  0.47870000  1
  O  O294  1  0.33900000  0.96840000  0.02130000  1
  O  O295  1  0.35940000  0.49800000  0.44640000  1
  O  O296  1  0.36090000  0.26450000  0.45210000  1
  O  O297  1  0.41550000  0.75830000  0.04910000  1
  O  O298  1  0.46660000  0.13190000  0.44620000  1
  O  O299  1  0.46950000  0.36970000  0.94080000  1
  O  O300  1  0.53050000  0.63030000  0.05920000  1
  O  O301  1  0.53340000  0.86810000  0.55380000  1
  O  O302  1  0.58450000  0.24170000  0.95090000  1
  O  O303  1  0.63910000  0.73550000  0.54790000  1
  O  O304  1  0.64060000  0.50200000  0.55360000  1
  O  O305  1  0.66100000  0.03160000  0.97870000  1
  O  O306  1  0.83900000  0.53160000  0.52130000  1
  O  O307  1  0.85940000  0.00200000  0.94640000  1
  O  O308  1  0.86090000  0.23550000  0.95210000  1
  O  O309  1  0.91550000  0.74170000  0.54910000  1
  O  O310  1  0.96660000  0.36810000  0.94620000  1
  O  O311  1  0.96950000  0.13030000  0.44080000  1
