# generated using pymatgen
data_V2NiH14C10(NO)4
_symmetry_space_group_name_H-M   'P 1'
_cell_length_a   11.08600000
_cell_length_b   17.97800000
_cell_length_c   17.97800000
_cell_angle_alpha   90.00000000
_cell_angle_beta   90.00000000
_cell_angle_gamma   90.00000000
_symmetry_Int_Tables_number   1
_chemical_formula_structural   V2NiH14C10(NO)4
_chemical_formula_sum   'V16 Ni8 H112 C80 N32 O32'
_cell_volume   3583.08925362
_cell_formula_units_Z   8
loop_
 _symmetry_equiv_pos_site_id
 _symmetry_equiv_pos_as_xyz
  1  'x, y, z'
loop_
 _atom_site_type_symbol
 _atom_site_label
 _atom_site_symmetry_multiplicity
 _atom_site_fract_x
 _atom_site_fract_y
 _atom_site_fract_z
 _atom_site_occupancy
  V  V0  1  0.00000000  0.96063000  0.96063000  1
  V  V1  1  0.09509000  0.55968000  0.96267000  1
  V  V2  1  0.15491000  0.05968000  0.53733000  1
  V  V3  1  0.25000000  0.06713000  0.93287000  1
  V  V4  1  0.25000000  0.46063000  0.53937000  1
  V  V5  1  0.34509000  0.46267000  0.94032000  1
  V  V6  1  0.40491000  0.03733000  0.44032000  1
  V  V7  1  0.50000000  0.03937000  0.03937000  1
  V  V8  1  0.50000000  0.43287000  0.43287000  1
  V  V9  1  0.59509000  0.44032000  0.03733000  1
  V  V10  1  0.65491000  0.94032000  0.46267000  1
  V  V11  1  0.75000000  0.53937000  0.46063000  1
  V  V12  1  0.75000000  0.93287000  0.06713000  1
  V  V13  1  0.84509000  0.53733000  0.05968000  1
  V  V14  1  0.90491000  0.96267000  0.55968000  1
  V  V15  1  0.00000000  0.56713000  0.56713000  1
  Ni  Ni16  1  0.07769000  0.76463000  0.97094000  1
  Ni  Ni17  1  0.17231000  0.26463000  0.52906000  1
  Ni  Ni18  1  0.32769000  0.47094000  0.73537000  1
  Ni  Ni19  1  0.42231000  0.02906000  0.23537000  1
  Ni  Ni20  1  0.57769000  0.23537000  0.02906000  1
  Ni  Ni21  1  0.67231000  0.73537000  0.47094000  1
  Ni  Ni22  1  0.82769000  0.52906000  0.26463000  1
  Ni  Ni23  1  0.92231000  0.97094000  0.76463000  1
  H  H24  1  0.01650000  0.15140000  0.03420000  1
  H  H25  1  0.02480000  0.37780000  0.11070000  1
  H  H26  1  0.02590000  0.86800000  0.27780000  1
  H  H27  1  0.03730000  0.65350000  0.10950000  1
  H  H28  1  0.05140000  0.68730000  0.24080000  1
  H  H29  1  0.05170000  0.34320000  0.98580000  1
  H  H30  1  0.05510000  0.53810000  0.38360000  1
  H  H31  1  0.05530000  0.26290000  0.17010000  1
  H  H32  1  0.05780000  0.76540000  0.35220000  1
  H  H33  1  0.06760000  0.52570000  0.16670000  1
  H  H34  1  0.08570000  0.37500000  0.23870000  1
  H  H35  1  0.08890000  0.87980000  0.41190000  1
  H  H36  1  0.10690000  0.86620000  0.11870000  1
  H  H37  1  0.11860000  0.77590000  0.48900000  1
  H  H38  1  0.13140000  0.27590000  0.01100000  1
  H  H39  1  0.14310000  0.36620000  0.38130000  1
  H  H40  1  0.16110000  0.37980000  0.08810000  1
  H  H41  1  0.16430000  0.87500000  0.26130000  1
  H  H42  1  0.18240000  0.02570000  0.33333333  1
  H  H43  1  0.19220000  0.26540000  0.14780000  1
  H  H44  1  0.19470000  0.76290000  0.32990000  1
  H  H45  1  0.19490000  0.03810000  0.11640000  1
  H  H46  1  0.19830000  0.84320000  0.51420000  1
  H  H47  1  0.19860000  0.18730000  0.25920000  1
  H  H48  1  0.21270000  0.15350000  0.39050000  1
  H  H49  1  0.22410000  0.36800000  0.22220000  1
  H  H50  1  0.22520000  0.87780000  0.38930000  1
  H  H51  1  0.23350000  0.65140000  0.46580000  1
  H  H52  1  0.26650000  0.53420000  0.34860000  1
  H  H53  1  0.27480000  0.61070000  0.12220000  1
  H  H54  1  0.27590000  0.77780000  0.63200000  1
  H  H55  1  0.28730000  0.60950000  0.84650000  1
  H  H56  1  0.30140000  0.74080000  0.81270000  1
  H  H57  1  0.30170000  0.48580000  0.15680000  1
  H  H58  1  0.30510000  0.88360000  0.96190000  1
  H  H59  1  0.30530000  0.67010000  0.23710000  1
  H  H60  1  0.30780000  0.85220000  0.73460000  1
  H  H61  1  0.31760000  0.66666667  0.97430000  1
  H  H62  1  0.33570000  0.73870000  0.12500000  1
  H  H63  1  0.33890000  0.91190000  0.62020000  1
  H  H64  1  0.35690000  0.61870000  0.63380000  1
  H  H65  1  0.36860000  0.98900000  0.72410000  1
  H  H66  1  0.38140000  0.51100000  0.22410000  1
  H  H67  1  0.39310000  0.88130000  0.13380000  1
  H  H68  1  0.41110000  0.58810000  0.12020000  1
  H  H69  1  0.41430000  0.76130000  0.62500000  1
  H  H70  1  0.43240000  0.83330000  0.47430000  1
  H  H71  1  0.44220000  0.64780000  0.23460000  1
  H  H72  1  0.44470000  0.82990000  0.73710000  1
  H  H73  1  0.44490000  0.61640000  0.46190000  1
  H  H74  1  0.44830000  0.01420000  0.65680000  1
  H  H75  1  0.44860000  0.75920000  0.31270000  1
  H  H76  1  0.46270000  0.89050000  0.34650000  1
  H  H77  1  0.47410000  0.72220000  0.13200000  1
  H  H78  1  0.47520000  0.88930000  0.62220000  1
  H  H79  1  0.48350000  0.96580000  0.84860000  1
  H  H80  1  0.51650000  0.84860000  0.96580000  1
  H  H81  1  0.52480000  0.62220000  0.88930000  1
  H  H82  1  0.52590000  0.13200000  0.72220000  1
  H  H83  1  0.53730000  0.34650000  0.89050000  1
  H  H84  1  0.55140000  0.31270000  0.75920000  1
  H  H85  1  0.55170000  0.65680000  0.01420000  1
  H  H86  1  0.55510000  0.46190000  0.61640000  1
  H  H87  1  0.55530000  0.73710000  0.82990000  1
  H  H88  1  0.55780000  0.23460000  0.64780000  1
  H  H89  1  0.56760000  0.47430000  0.83330000  1
  H  H90  1  0.58570000  0.62500000  0.76130000  1
  H  H91  1  0.58890000  0.12020000  0.58810000  1
  H  H92  1  0.60690000  0.13380000  0.88130000  1
  H  H93  1  0.61860000  0.22410000  0.51100000  1
  H  H94  1  0.63140000  0.72410000  0.98900000  1
  H  H95  1  0.64310000  0.63380000  0.61870000  1
  H  H96  1  0.66110000  0.62020000  0.91190000  1
  H  H97  1  0.66430000  0.12500000  0.73870000  1
  H  H98  1  0.68240000  0.97430000  0.66666667  1
  H  H99  1  0.69220000  0.73460000  0.85220000  1
  H  H100  1  0.69470000  0.23710000  0.67010000  1
  H  H101  1  0.69490000  0.96190000  0.88360000  1
  H  H102  1  0.69830000  0.15680000  0.48580000  1
  H  H103  1  0.69860000  0.81270000  0.74080000  1
  H  H104  1  0.71270000  0.84650000  0.60950000  1
  H  H105  1  0.72410000  0.63200000  0.77780000  1
  H  H106  1  0.72520000  0.12220000  0.61070000  1
  H  H107  1  0.73350000  0.34860000  0.53420000  1
  H  H108  1  0.76650000  0.46580000  0.65140000  1
  H  H109  1  0.77480000  0.38930000  0.87780000  1
  H  H110  1  0.77590000  0.22220000  0.36800000  1
  H  H111  1  0.78730000  0.39050000  0.15350000  1
  H  H112  1  0.80140000  0.25920000  0.18730000  1
  H  H113  1  0.80170000  0.51420000  0.84320000  1
  H  H114  1  0.80510000  0.11640000  0.03810000  1
  H  H115  1  0.80530000  0.32990000  0.76290000  1
  H  H116  1  0.80780000  0.14780000  0.26540000  1
  H  H117  1  0.81760000  0.33333333  0.02570000  1
  H  H118  1  0.83570000  0.26130000  0.87500000  1
  H  H119  1  0.83890000  0.08810000  0.37980000  1
  H  H120  1  0.85690000  0.38130000  0.36620000  1
  H  H121  1  0.86860000  0.01100000  0.27590000  1
  H  H122  1  0.88140000  0.48900000  0.77590000  1
  H  H123  1  0.89310000  0.11870000  0.86620000  1
  H  H124  1  0.91110000  0.41190000  0.87980000  1
  H  H125  1  0.91430000  0.23870000  0.37500000  1
  H  H126  1  0.93240000  0.16670000  0.52570000  1
  H  H127  1  0.94220000  0.35220000  0.76540000  1
  H  H128  1  0.94470000  0.17010000  0.26290000  1
  H  H129  1  0.94490000  0.38360000  0.53810000  1
  H  H130  1  0.94830000  0.98580000  0.34320000  1
  H  H131  1  0.94860000  0.24080000  0.68730000  1
  H  H132  1  0.96270000  0.10950000  0.65350000  1
  H  H133  1  0.97410000  0.27780000  0.86800000  1
  H  H134  1  0.97520000  0.11070000  0.37780000  1
  H  H135  1  0.98350000  0.03420000  0.15140000  1
  C  C136  1  0.04900000  0.03320000  0.18363000  1
  C  C137  1  0.05280000  0.70095000  0.12780000  1
  C  C138  1  0.06070000  0.71918000  0.20053000  1
  C  C139  1  0.06323000  0.30672000  0.02483000  1
  C  C140  1  0.08400000  0.53522000  0.33511000  1
  C  C141  1  0.09013000  0.52857000  0.21641000  1
  C  C142  1  0.09090000  0.81728000  0.13248000  1
  C  C143  1  0.09300000  0.34707000  0.09677000  1
  C  C144  1  0.09940000  0.83981000  0.26988000  1
  C  C145  1  0.12300000  0.29578000  0.16080000  1
  C  C146  1  0.12700000  0.79578000  0.33920000  1
  C  C147  1  0.15060000  0.33981000  0.23012000  1
  C  C148  1  0.15700000  0.84707000  0.40323000  1
  C  C149  1  0.15910000  0.31728000  0.36752000  1
  C  C150  1  0.15987000  0.02857000  0.28359000  1
  C  C151  1  0.16600000  0.03522000  0.16489000  1
  C  C152  1  0.18677000  0.80672000  0.47517000  1
  C  C153  1  0.18930000  0.21918000  0.29947000  1
  C  C154  1  0.19720000  0.20095000  0.37220000  1
  C  C155  1  0.20100000  0.53320000  0.31637000  1
  C  C156  1  0.29900000  0.68363000  0.46680000  1
  C  C157  1  0.30280000  0.62780000  0.79905000  1
  C  C158  1  0.31070000  0.70053000  0.78082000  1
  C  C159  1  0.31323000  0.52483000  0.19328000  1
  C  C160  1  0.33400000  0.83511000  0.96478000  1
  C  C161  1  0.34013000  0.71641000  0.97143000  1
  C  C162  1  0.34090000  0.63248000  0.68272000  1
  C  C163  1  0.34300000  0.59677000  0.15293000  1
  C  C164  1  0.34940000  0.76988000  0.66019000  1
  C  C165  1  0.37300000  0.66080000  0.20422000  1
  C  C166  1  0.37700000  0.83920000  0.70422000  1
  C  C167  1  0.40060000  0.73012000  0.16019000  1
  C  C168  1  0.40700000  0.90323000  0.65293000  1
  C  C169  1  0.40910000  0.86752000  0.18272000  1
  C  C170  1  0.40987000  0.78359000  0.47143000  1
  C  C171  1  0.41600000  0.66489000  0.46478000  1
  C  C172  1  0.43677000  0.97517000  0.69328000  1
  C  C173  1  0.43930000  0.79947000  0.28082000  1
  C  C174  1  0.44720000  0.87220000  0.29905000  1
  C  C175  1  0.45100000  0.81637000  0.96680000  1
  C  C176  1  0.54900000  0.96680000  0.81637000  1
  C  C177  1  0.55280000  0.29905000  0.87220000  1
  C  C178  1  0.56070000  0.28082000  0.79947000  1
  C  C179  1  0.56323000  0.69328000  0.97517000  1
  C  C180  1  0.58400000  0.46478000  0.66489000  1
  C  C181  1  0.59013000  0.47143000  0.78359000  1
  C  C182  1  0.59090000  0.18272000  0.86752000  1
  C  C183  1  0.59300000  0.65293000  0.90323000  1
  C  C184  1  0.59940000  0.16019000  0.73012000  1
  C  C185  1  0.62300000  0.70422000  0.83920000  1
  C  C186  1  0.62700000  0.20422000  0.66080000  1
  C  C187  1  0.65060000  0.66019000  0.76988000  1
  C  C188  1  0.65700000  0.15293000  0.59677000  1
  C  C189  1  0.65910000  0.68272000  0.63248000  1
  C  C190  1  0.65987000  0.97143000  0.71641000  1
  C  C191  1  0.66600000  0.96478000  0.83511000  1
  C  C192  1  0.68677000  0.19328000  0.52483000  1
  C  C193  1  0.68930000  0.78082000  0.70053000  1
  C  C194  1  0.69720000  0.79905000  0.62780000  1
  C  C195  1  0.70100000  0.46680000  0.68363000  1
  C  C196  1  0.79900000  0.31637000  0.53320000  1
  C  C197  1  0.80280000  0.37220000  0.20095000  1
  C  C198  1  0.81070000  0.29947000  0.21918000  1
  C  C199  1  0.81323000  0.47517000  0.80672000  1
  C  C200  1  0.83400000  0.16489000  0.03522000  1
  C  C201  1  0.84013000  0.28359000  0.02857000  1
  C  C202  1  0.84090000  0.36752000  0.31728000  1
  C  C203  1  0.84300000  0.40323000  0.84707000  1
  C  C204  1  0.84940000  0.23012000  0.33981000  1
  C  C205  1  0.87300000  0.33920000  0.79578000  1
  C  C206  1  0.87700000  0.16080000  0.29578000  1
  C  C207  1  0.90060000  0.26988000  0.83981000  1
  C  C208  1  0.90700000  0.09677000  0.34707000  1
  C  C209  1  0.90910000  0.13248000  0.81728000  1
  C  C210  1  0.90987000  0.21641000  0.52857000  1
  C  C211  1  0.91600000  0.33511000  0.53522000  1
  C  C212  1  0.93677000  0.02483000  0.30672000  1
  C  C213  1  0.93930000  0.20053000  0.71918000  1
  C  C214  1  0.94720000  0.12780000  0.70095000  1
  C  C215  1  0.95100000  0.18363000  0.03320000  1
  N  N216  1  0.01295000  0.53241000  0.27261000  1
  N  N217  1  0.04508000  0.02940000  0.25962000  1
  N  N218  1  0.07127000  0.76293000  0.08529000  1
  N  N219  1  0.08476000  0.79325000  0.20336000  1
  N  N220  1  0.16524000  0.29325000  0.29664000  1
  N  N221  1  0.17873000  0.26293000  0.41471000  1
  N  N222  1  0.20492000  0.52940000  0.24038000  1
  N  N223  1  0.23705000  0.03241000  0.22739000  1
  N  N224  1  0.26295000  0.77261000  0.96759000  1
  N  N225  1  0.29508000  0.75962000  0.47060000  1
  N  N226  1  0.32127000  0.58529000  0.73707000  1
  N  N227  1  0.33476000  0.70336000  0.70675000  1
  N  N228  1  0.41524000  0.79664000  0.20675000  1
  N  N229  1  0.42873000  0.91471000  0.23707000  1
  N  N230  1  0.45492000  0.74038000  0.97060000  1
  N  N231  1  0.48705000  0.72739000  0.46759000  1
  N  N232  1  0.51295000  0.46759000  0.72739000  1
  N  N233  1  0.54508000  0.97060000  0.74038000  1
  N  N234  1  0.57127000  0.23707000  0.91471000  1
  N  N235  1  0.58476000  0.20675000  0.79664000  1
  N  N236  1  0.66524000  0.70675000  0.70336000  1
  N  N237  1  0.67873000  0.73707000  0.58529000  1
  N  N238  1  0.70492000  0.47060000  0.75962000  1
  N  N239  1  0.73705000  0.96759000  0.77261000  1
  N  N240  1  0.76295000  0.22739000  0.03241000  1
  N  N241  1  0.79508000  0.24038000  0.52940000  1
  N  N242  1  0.82127000  0.41471000  0.26293000  1
  N  N243  1  0.83476000  0.29664000  0.29325000  1
  N  N244  1  0.91524000  0.20336000  0.79325000  1
  N  N245  1  0.92873000  0.08529000  0.76293000  1
  N  N246  1  0.95492000  0.25962000  0.02940000  1
  N  N247  1  0.98705000  0.27261000  0.53241000  1
  O  O248  1  0.00180000  0.03300000  0.52061000  1
  O  O249  1  0.05566000  0.87684000  0.97071000  1
  O  O250  1  0.08875000  0.65094000  0.96613000  1
  O  O251  1  0.11699000  0.02746000  0.97428000  1
  O  O252  1  0.13301000  0.52746000  0.52572000  1
  O  O253  1  0.16125000  0.15094000  0.53387000  1
  O  O254  1  0.19434000  0.37684000  0.52929000  1
  O  O255  1  0.24820000  0.53300000  0.97939000  1
  O  O256  1  0.25180000  0.02061000  0.46700000  1
  O  O257  1  0.30566000  0.47071000  0.62316000  1
  O  O258  1  0.33875000  0.46613000  0.84906000  1
  O  O259  1  0.36699000  0.47428000  0.47254000  1
  O  O260  1  0.38301000  0.02572000  0.97254000  1
  O  O261  1  0.41125000  0.03387000  0.34906000  1
  O  O262  1  0.44434000  0.02929000  0.12316000  1
  O  O263  1  0.49820000  0.47939000  0.96700000  1
  O  O264  1  0.50180000  0.96700000  0.47939000  1
  O  O265  1  0.55566000  0.12316000  0.02929000  1
  O  O266  1  0.58875000  0.34906000  0.03387000  1
  O  O267  1  0.61699000  0.97254000  0.02572000  1
  O  O268  1  0.63301000  0.47254000  0.47428000  1
  O  O269  1  0.66125000  0.84906000  0.46613000  1
  O  O270  1  0.69434000  0.62316000  0.47071000  1
  O  O271  1  0.74820000  0.46700000  0.02061000  1
  O  O272  1  0.75180000  0.97939000  0.53300000  1
  O  O273  1  0.80566000  0.52929000  0.37684000  1
  O  O274  1  0.83875000  0.53387000  0.15094000  1
  O  O275  1  0.86699000  0.52572000  0.52746000  1
  O  O276  1  0.88301000  0.97428000  0.02746000  1
  O  O277  1  0.91125000  0.96613000  0.65094000  1
  O  O278  1  0.94434000  0.97071000  0.87684000  1
  O  O279  1  0.99820000  0.52061000  0.03300000  1
