# generated using pymatgen
data_ZnH6(C3N2)2
_symmetry_space_group_name_H-M   'P 1'
_cell_length_a   9.51610000
_cell_length_b   30.15750000
_cell_length_c   45.93670000
_cell_angle_alpha   90.00000000
_cell_angle_beta   90.00000000
_cell_angle_gamma   90.00000000
_symmetry_Int_Tables_number   1
_chemical_formula_structural   ZnH6(C3N2)2
_chemical_formula_sum   'Zn40 H240 C240 N160'
_cell_volume   13182.99619746
_cell_formula_units_Z   40
loop_
 _symmetry_equiv_pos_site_id
 _symmetry_equiv_pos_as_xyz
  1  'x, y, z'
loop_
 _atom_site_type_symbol
 _atom_site_label
 _atom_site_symmetry_multiplicity
 _atom_site_fract_x
 _atom_site_fract_y
 _atom_site_fract_z
 _atom_site_occupancy
  Zn  Zn0  1  0.00145000  0.94560000  0.23536000  1
  Zn  Zn1  1  0.00354000  0.67173000  0.76321000  1
  Zn  Zn2  1  0.07038000  0.27058000  0.84729000  1
  Zn  Zn3  1  0.07208000  0.13154000  0.19598000  1
  Zn  Zn4  1  0.08599000  0.35769000  0.52476000  1
  Zn  Zn5  1  0.08772000  0.23741000  0.42481000  1
  Zn  Zn6  1  0.15175000  0.21838000  0.97008000  1
  Zn  Zn7  1  0.15511000  0.02926000  0.93277000  1
  Zn  Zn8  1  0.15798000  0.68311000  0.18749000  1
  Zn  Zn9  1  0.16414000  0.49645000  0.14204000  1
  Zn  Zn10  1  0.33586000  0.50355000  0.64204000  1
  Zn  Zn11  1  0.34202000  0.31689000  0.68749000  1
  Zn  Zn12  1  0.34489000  0.97074000  0.43277000  1
  Zn  Zn13  1  0.34825000  0.78162000  0.47008000  1
  Zn  Zn14  1  0.41228000  0.76259000  0.92481000  1
  Zn  Zn15  1  0.41401000  0.64231000  0.02476000  1
  Zn  Zn16  1  0.42792000  0.86846000  0.69598000  1
  Zn  Zn17  1  0.42962000  0.72942000  0.34729000  1
  Zn  Zn18  1  0.49646000  0.32827000  0.26321000  1
  Zn  Zn19  1  0.49855000  0.05440000  0.73536000  1
  Zn  Zn20  1  0.50145000  0.55440000  0.76464000  1
  Zn  Zn21  1  0.50354000  0.82827000  0.23679000  1
  Zn  Zn22  1  0.57038000  0.22942000  0.15271000  1
  Zn  Zn23  1  0.57208000  0.36846000  0.80402000  1
  Zn  Zn24  1  0.58599000  0.14231000  0.47524000  1
  Zn  Zn25  1  0.58772000  0.26259000  0.57519000  1
  Zn  Zn26  1  0.65175000  0.28162000  0.02992000  1
  Zn  Zn27  1  0.65511000  0.47074000  0.06723000  1
  Zn  Zn28  1  0.65798000  0.81689000  0.81251000  1
  Zn  Zn29  1  0.66414000  0.00355000  0.85796000  1
  Zn  Zn30  1  0.83586000  0.99645000  0.35796000  1
  Zn  Zn31  1  0.84202000  0.18311000  0.31251000  1
  Zn  Zn32  1  0.84489000  0.52926000  0.56723000  1
  Zn  Zn33  1  0.84825000  0.71838000  0.52992000  1
  Zn  Zn34  1  0.91228000  0.73741000  0.07519000  1
  Zn  Zn35  1  0.91401000  0.85769000  0.97524000  1
  Zn  Zn36  1  0.92792000  0.63154000  0.30402000  1
  Zn  Zn37  1  0.92962000  0.77058000  0.65271000  1
  Zn  Zn38  1  0.99646000  0.17173000  0.73679000  1
  Zn  Zn39  1  0.99855000  0.44560000  0.26464000  1
  H  H40  1  0.00110000  0.34330000  0.41710000  1
  H  H41  1  0.00460000  0.32670000  0.69690000  1
  H  H42  1  0.00590000  0.12150000  0.80010000  1
  H  H43  1  0.00750000  0.89250000  0.04000000  1
  H  H44  1  0.02050000  0.27590000  0.31850000  1
  H  H45  1  0.02940000  0.16300000  0.84570000  1
  H  H46  1  0.03110000  0.09140000  0.69130000  1
  H  H47  1  0.03370000  0.24910000  0.78100000  1
  H  H48  1  0.03470000  0.37730000  0.85620000  1
  H  H49  1  0.03820000  0.34450000  0.59230000  1
  H  H50  1  0.04270000  0.36820000  0.31260000  1
  H  H51  1  0.05920000  0.78720000  0.43920000  1
  H  H52  1  0.06060000  0.55460000  0.34510000  1
  H  H53  1  0.06140000  0.04840000  0.23550000  1
  H  H54  1  0.06190000  0.52420000  0.51480000  1
  H  H55  1  0.06820000  0.13230000  0.43210000  1
  H  H56  1  0.07010000  0.68610000  0.12180000  1
  H  H57  1  0.07260000  0.56360000  0.09470000  1
  H  H58  1  0.08050000  0.19240000  0.13850000  1
  H  H59  1  0.08330000  0.57460000  0.66120000  1
  H  H60  1  0.09670000  0.92470000  0.94060000  1
  H  H61  1  0.09880000  0.57940000  0.18250000  1
  H  H62  1  0.10000000  0.78440000  0.55110000  1
  H  H63  1  0.10510000  0.47910000  0.32680000  1
  H  H64  1  0.10530000  0.13040000  0.93250000  1
  H  H65  1  0.10900000  0.95160000  0.38830000  1
  H  H66  1  0.12180000  0.05390000  0.43980000  1
  H  H67  1  0.12450000  0.27520000  0.48610000  1
  H  H68  1  0.12540000  0.08490000  0.87010000  1
  H  H69  1  0.12560000  0.42560000  0.61870000  1
  H  H70  1  0.12630000  0.35010000  0.63910000  1
  H  H71  1  0.12630000  0.73380000  0.37960000  1
  H  H72  1  0.12750000  0.29880000  0.36540000  1
  H  H73  1  0.13610000  0.50310000  0.59050000  1
  H  H74  1  0.13680000  0.80340000  0.60250000  1
  H  H75  1  0.13720000  0.59310000  0.04680000  1
  H  H76  1  0.14030000  0.64740000  0.25250000  1
  H  H77  1  0.14050000  0.76620000  0.78260000  1
  H  H78  1  0.14410000  0.73410000  0.51250000  1
  H  H79  1  0.15150000  0.96750000  0.33830000  1
  H  H80  1  0.16120000  0.25940000  0.03880000  1
  H  H81  1  0.16260000  0.21190000  0.90150000  1
  H  H82  1  0.16390000  0.80510000  0.88600000  1
  H  H83  1  0.16530000  0.93460000  0.48650000  1
  H  H84  1  0.17050000  0.91750000  0.66130000  1
  H  H85  1  0.17170000  0.18370000  0.29780000  1
  H  H86  1  0.17670000  0.45530000  0.49830000  1
  H  H87  1  0.19050000  0.79620000  0.97160000  1
  H  H88  1  0.19330000  0.47490000  0.21080000  1
  H  H89  1  0.20340000  0.79460000  0.68930000  1
  H  H90  1  0.20750000  0.85790000  0.50500000  1
  H  H91  1  0.20760000  0.86970000  0.25090000  1
  H  H92  1  0.20790000  0.94390000  0.28730000  1
  H  H93  1  0.21390000  0.72130000  0.04280000  1
  H  H94  1  0.21810000  0.60080000  0.74510000  1
  H  H95  1  0.22780000  0.03870000  0.69260000  1
  H  H96  1  0.23290000  0.83500000  0.75050000  1
  H  H97  1  0.23610000  0.66790000  0.31020000  1
  H  H98  1  0.24680000  0.31880000  0.31230000  1
  H  H99  1  0.24840000  0.77490000  0.21240000  1
  H  H100  1  0.25160000  0.22510000  0.71240000  1
  H  H101  1  0.25320000  0.68120000  0.81230000  1
  H  H102  1  0.26390000  0.33210000  0.81020000  1
  H  H103  1  0.26710000  0.16500000  0.25050000  1
  H  H104  1  0.27220000  0.96130000  0.19260000  1
  H  H105  1  0.28190000  0.39920000  0.24510000  1
  H  H106  1  0.28610000  0.27870000  0.54280000  1
  H  H107  1  0.29210000  0.05610000  0.78730000  1
  H  H108  1  0.29240000  0.13030000  0.75090000  1
  H  H109  1  0.29250000  0.14210000  0.00500000  1
  H  H110  1  0.29660000  0.20540000  0.18930000  1
  H  H111  1  0.30670000  0.52510000  0.71080000  1
  H  H112  1  0.30950000  0.20380000  0.47160000  1
  H  H113  1  0.32330000  0.54470000  0.99830000  1
  H  H114  1  0.32830000  0.81630000  0.79780000  1
  H  H115  1  0.32950000  0.08250000  0.16130000  1
  H  H116  1  0.33470000  0.06540000  0.98650000  1
  H  H117  1  0.33610000  0.19490000  0.38600000  1
  H  H118  1  0.33740000  0.78810000  0.40150000  1
  H  H119  1  0.33880000  0.74060000  0.53880000  1
  H  H120  1  0.34850000  0.03250000  0.83830000  1
  H  H121  1  0.35590000  0.26590000  0.01250000  1
  H  H122  1  0.35950000  0.23380000  0.28260000  1
  H  H123  1  0.35970000  0.35260000  0.75250000  1
  H  H124  1  0.36280000  0.40690000  0.54680000  1
  H  H125  1  0.36320000  0.19660000  0.10250000  1
  H  H126  1  0.36390000  0.49690000  0.09050000  1
  H  H127  1  0.37250000  0.70120000  0.86540000  1
  H  H128  1  0.37370000  0.26620000  0.87960000  1
  H  H129  1  0.37370000  0.64990000  0.13910000  1
  H  H130  1  0.37440000  0.57440000  0.11870000  1
  H  H131  1  0.37460000  0.91510000  0.37010000  1
  H  H132  1  0.37550000  0.72480000  0.98610000  1
  H  H133  1  0.37820000  0.94610000  0.93980000  1
  H  H134  1  0.39100000  0.04840000  0.88830000  1
  H  H135  1  0.39470000  0.86960000  0.43250000  1
  H  H136  1  0.39490000  0.52090000  0.82680000  1
  H  H137  1  0.40000000  0.21560000  0.05110000  1
  H  H138  1  0.40120000  0.42060000  0.68250000  1
  H  H139  1  0.40330000  0.07530000  0.44060000  1
  H  H140  1  0.41670000  0.42540000  0.16120000  1
  H  H141  1  0.41950000  0.80760000  0.63850000  1
  H  H142  1  0.42740000  0.43640000  0.59470000  1
  H  H143  1  0.42990000  0.31390000  0.62180000  1
  H  H144  1  0.43180000  0.86770000  0.93210000  1
  H  H145  1  0.43810000  0.47580000  0.01480000  1
  H  H146  1  0.43860000  0.95160000  0.73550000  1
  H  H147  1  0.43940000  0.44540000  0.84510000  1
  H  H148  1  0.44080000  0.21280000  0.93920000  1
  H  H149  1  0.45730000  0.63180000  0.81260000  1
  H  H150  1  0.46180000  0.65550000  0.09230000  1
  H  H151  1  0.46530000  0.62270000  0.35620000  1
  H  H152  1  0.46630000  0.75090000  0.28100000  1
  H  H153  1  0.46890000  0.90860000  0.19130000  1
  H  H154  1  0.47060000  0.83700000  0.34570000  1
  H  H155  1  0.47950000  0.72410000  0.81850000  1
  H  H156  1  0.49250000  0.10750000  0.54000000  1
  H  H157  1  0.49410000  0.87850000  0.30010000  1
  H  H158  1  0.49540000  0.67330000  0.19690000  1
  H  H159  1  0.49890000  0.65670000  0.91710000  1
  H  H160  1  0.50110000  0.15670000  0.58290000  1
  H  H161  1  0.50460000  0.17330000  0.30310000  1
  H  H162  1  0.50590000  0.37850000  0.19990000  1
  H  H163  1  0.50750000  0.60750000  0.96000000  1
  H  H164  1  0.52050000  0.22410000  0.68150000  1
  H  H165  1  0.52940000  0.33700000  0.15430000  1
  H  H166  1  0.53110000  0.40860000  0.30870000  1
  H  H167  1  0.53370000  0.25090000  0.21900000  1
  H  H168  1  0.53470000  0.12270000  0.14380000  1
  H  H169  1  0.53820000  0.15550000  0.40770000  1
  H  H170  1  0.54270000  0.13180000  0.68740000  1
  H  H171  1  0.55920000  0.71280000  0.56080000  1
  H  H172  1  0.56060000  0.94540000  0.65490000  1
  H  H173  1  0.56140000  0.45160000  0.76450000  1
  H  H174  1  0.56190000  0.97580000  0.48520000  1
  H  H175  1  0.56820000  0.36770000  0.56790000  1
  H  H176  1  0.57010000  0.81390000  0.87820000  1
  H  H177  1  0.57260000  0.93640000  0.90530000  1
  H  H178  1  0.58050000  0.30760000  0.86150000  1
  H  H179  1  0.58330000  0.92540000  0.33880000  1
  H  H180  1  0.59670000  0.57530000  0.05940000  1
  H  H181  1  0.59880000  0.92060000  0.81750000  1
  H  H182  1  0.60000000  0.71560000  0.44890000  1
  H  H183  1  0.60510000  0.02090000  0.67320000  1
  H  H184  1  0.60530000  0.36960000  0.06750000  1
  H  H185  1  0.60900000  0.54840000  0.61170000  1
  H  H186  1  0.62180000  0.44610000  0.56020000  1
  H  H187  1  0.62450000  0.22480000  0.51390000  1
  H  H188  1  0.62540000  0.41510000  0.12990000  1
  H  H189  1  0.62560000  0.07440000  0.38130000  1
  H  H190  1  0.62630000  0.14990000  0.36090000  1
  H  H191  1  0.62630000  0.76620000  0.62040000  1
  H  H192  1  0.62750000  0.20120000  0.63460000  1
  H  H193  1  0.63610000  0.99690000  0.40950000  1
  H  H194  1  0.63680000  0.69660000  0.39750000  1
  H  H195  1  0.63720000  0.90690000  0.95320000  1
  H  H196  1  0.64030000  0.85260000  0.74750000  1
  H  H197  1  0.64050000  0.73380000  0.21740000  1
  H  H198  1  0.64410000  0.76590000  0.48750000  1
  H  H199  1  0.65150000  0.53250000  0.66170000  1
  H  H200  1  0.66120000  0.24060000  0.96120000  1
  H  H201  1  0.66260000  0.28810000  0.09850000  1
  H  H202  1  0.66390000  0.69490000  0.11400000  1
  H  H203  1  0.66530000  0.56540000  0.51350000  1
  H  H204  1  0.67050000  0.58250000  0.33870000  1
  H  H205  1  0.67170000  0.31630000  0.70220000  1
  H  H206  1  0.67670000  0.04470000  0.50170000  1
  H  H207  1  0.69050000  0.70380000  0.02840000  1
  H  H208  1  0.69330000  0.02510000  0.78920000  1
  H  H209  1  0.70340000  0.70540000  0.31070000  1
  H  H210  1  0.70750000  0.64210000  0.49500000  1
  H  H211  1  0.70760000  0.63030000  0.74910000  1
  H  H212  1  0.70790000  0.55610000  0.71270000  1
  H  H213  1  0.71390000  0.77870000  0.95720000  1
  H  H214  1  0.71810000  0.89920000  0.25490000  1
  H  H215  1  0.72780000  0.46130000  0.30740000  1
  H  H216  1  0.73290000  0.66500000  0.24950000  1
  H  H217  1  0.73610000  0.83210000  0.68980000  1
  H  H218  1  0.74680000  0.18120000  0.68770000  1
  H  H219  1  0.74840000  0.72510000  0.78760000  1
  H  H220  1  0.75160000  0.27490000  0.28760000  1
  H  H221  1  0.75320000  0.81880000  0.18770000  1
  H  H222  1  0.76390000  0.16790000  0.18980000  1
  H  H223  1  0.76710000  0.33500000  0.74950000  1
  H  H224  1  0.77220000  0.53870000  0.80740000  1
  H  H225  1  0.78190000  0.10080000  0.75490000  1
  H  H226  1  0.78610000  0.22130000  0.45720000  1
  H  H227  1  0.79210000  0.44390000  0.21270000  1
  H  H228  1  0.79240000  0.36970000  0.24910000  1
  H  H229  1  0.79250000  0.35790000  0.99500000  1
  H  H230  1  0.79660000  0.29460000  0.81070000  1
  H  H231  1  0.80670000  0.97490000  0.28920000  1
  H  H232  1  0.80950000  0.29620000  0.52840000  1
  H  H233  1  0.82330000  0.95530000  0.00170000  1
  H  H234  1  0.82830000  0.68370000  0.20220000  1
  H  H235  1  0.82950000  0.41750000  0.83870000  1
  H  H236  1  0.83470000  0.43460000  0.01350000  1
  H  H237  1  0.83610000  0.30510000  0.61400000  1
  H  H238  1  0.83740000  0.71190000  0.59850000  1
  H  H239  1  0.83880000  0.75940000  0.46120000  1
  H  H240  1  0.84850000  0.46750000  0.16170000  1
  H  H241  1  0.85590000  0.23410000  0.98750000  1
  H  H242  1  0.85950000  0.26620000  0.71740000  1
  H  H243  1  0.85970000  0.14740000  0.24750000  1
  H  H244  1  0.86280000  0.09310000  0.45320000  1
  H  H245  1  0.86320000  0.30340000  0.89750000  1
  H  H246  1  0.86390000  0.00310000  0.90950000  1
  H  H247  1  0.87250000  0.79880000  0.13460000  1
  H  H248  1  0.87370000  0.23380000  0.12040000  1
  H  H249  1  0.87370000  0.85010000  0.86090000  1
  H  H250  1  0.87440000  0.92560000  0.88130000  1
  H  H251  1  0.87460000  0.58490000  0.62990000  1
  H  H252  1  0.87550000  0.77520000  0.01390000  1
  H  H253  1  0.87820000  0.55390000  0.06020000  1
  H  H254  1  0.89100000  0.45160000  0.11170000  1
  H  H255  1  0.89470000  0.63040000  0.56750000  1
  H  H256  1  0.89490000  0.97910000  0.17320000  1
  H  H257  1  0.90000000  0.28440000  0.94890000  1
  H  H258  1  0.90120000  0.07940000  0.31750000  1
  H  H259  1  0.90330000  0.42470000  0.55940000  1
  H  H260  1  0.91670000  0.07460000  0.83880000  1
  H  H261  1  0.91950000  0.69240000  0.36150000  1
  H  H262  1  0.92740000  0.06360000  0.40530000  1
  H  H263  1  0.92990000  0.18610000  0.37820000  1
  H  H264  1  0.93180000  0.63230000  0.06790000  1
  H  H265  1  0.93810000  0.02420000  0.98520000  1
  H  H266  1  0.93860000  0.54840000  0.26450000  1
  H  H267  1  0.93940000  0.05460000  0.15490000  1
  H  H268  1  0.94080000  0.28720000  0.06080000  1
  H  H269  1  0.95730000  0.86820000  0.18740000  1
  H  H270  1  0.96180000  0.84450000  0.90770000  1
  H  H271  1  0.96530000  0.87730000  0.64380000  1
  H  H272  1  0.96630000  0.74910000  0.71900000  1
  H  H273  1  0.96890000  0.59140000  0.80870000  1
  H  H274  1  0.97060000  0.66300000  0.65430000  1
  H  H275  1  0.97950000  0.77590000  0.18150000  1
  H  H276  1  0.99250000  0.39250000  0.46000000  1
  H  H277  1  0.99410000  0.62150000  0.69990000  1
  H  H278  1  0.99540000  0.82670000  0.80310000  1
  H  H279  1  0.99890000  0.84330000  0.08290000  1
  C  C280  1  0.01070000  0.69210000  0.35310000  1
  C  C281  1  0.01350000  0.64600000  0.06007000  1
  C  C282  1  0.01400000  0.53810000  0.09340000  1
  C  C283  1  0.01490000  0.26010000  0.33634000  1
  C  C284  1  0.01560000  0.15270000  0.80177000  1
  C  C285  1  0.01970000  0.36220000  0.46018000  1
  C  C286  1  0.02300000  0.04050000  0.21709000  1
  C  C287  1  0.02400000  0.33510000  0.43647000  1
  C  C288  1  0.02870000  0.17570000  0.82679000  1
  C  C289  1  0.03140000  0.22210000  0.79163000  1
  C  C290  1  0.03410000  0.71180000  0.13108000  1
  C  C291  1  0.03410000  0.82980000  0.91820000  1
  C  C292  1  0.03860000  0.29860000  0.70290000  1
  C  C293  1  0.03880000  0.86510000  0.65529000  1
  C  C294  1  0.04190000  0.54440000  0.32590000  1
  C  C295  1  0.04230000  0.76490000  0.78620000  1
  C  C296  1  0.04240000  0.94110000  0.95421000  1
  C  C297  1  0.04270000  0.49530000  0.52200000  1
  C  C298  1  0.04600000  0.06700000  0.87453000  1
  C  C299  1  0.04870000  0.65500000  0.24594000  1
  C  C300  1  0.05030000  0.77190000  0.56710000  1
  C  C301  1  0.05220000  0.76990000  0.45640000  1
  C  C302  1  0.06480000  0.50260000  0.31580000  1
  C  C303  1  0.06950000  0.25570000  0.03100000  1
  C  C304  1  0.06950000  0.56140000  0.64267000  1
  C  C305  1  0.07040000  0.78260000  0.59528000  1
  C  C306  1  0.07290000  0.27290000  0.36227000  1
  C  C307  1  0.08500000  0.97840000  0.39797000  1
  C  C308  1  0.08720000  0.96500000  0.32250000  1
  C  C309  1  0.09030000  0.29850000  0.47411000  1
  C  C310  1  0.09270000  0.23280000  0.90708000  1
  C  C311  1  0.09300000  0.74050000  0.49520000  1
  C  C312  1  0.09540000  0.03340000  0.42510000  1
  C  C313  1  0.09730000  0.52290000  0.60444000  1
  C  C314  1  0.10050000  0.46890000  0.20426000  1
  C  C315  1  0.10540000  0.45730000  0.51270000  1
  C  C316  1  0.10890000  0.09300000  0.70420000  1
  C  C317  1  0.11770000  0.36890000  0.29892000  1
  C  C318  1  0.11830000  0.95280000  0.29420000  1
  C  C319  1  0.11850000  0.17450000  0.28137000  1
  C  C320  1  0.12470000  0.71500000  0.36300000  1
  C  C321  1  0.12690000  0.62440000  0.04850000  1
  C  C322  1  0.14460000  0.80780000  0.90621000  1
  C  C323  1  0.15150000  0.88700000  0.66496000  1
  C  C324  1  0.15160000  0.12320000  0.95020000  1
  C  C325  1  0.15810000  0.80340000  0.95261000  1
  C  C326  1  0.16720000  0.69400000  0.04634000  1
  C  C327  1  0.16850000  0.58770000  0.16872000  1
  C  C328  1  0.16870000  0.82050000  0.68006000  1
  C  C329  1  0.17040000  0.16390000  0.25553000  1
  C  C330  1  0.17050000  0.24340000  0.71121000  1
  C  C331  1  0.18130000  0.67930000  0.32583000  1
  C  C332  1  0.18240000  0.41540000  0.63440000  1
  C  C333  1  0.18420000  0.37380000  0.64547000  1
  C  C334  1  0.21740000  0.06400000  0.70460000  1
  C  C335  1  0.22630000  0.91280000  0.47860000  1
  C  C336  1  0.22840000  0.34150000  0.29841000  1
  C  C337  1  0.24410000  0.86940000  0.48740000  1
  C  C338  1  0.24750000  0.38540000  0.26232000  1
  C  C339  1  0.24940000  0.11330000  0.73590000  1
  C  C340  1  0.25060000  0.88670000  0.23590000  1
  C  C341  1  0.25250000  0.61460000  0.76232000  1
  C  C342  1  0.25590000  0.13060000  0.98740000  1
  C  C343  1  0.27160000  0.65850000  0.79841000  1
  C  C344  1  0.27370000  0.08720000  0.97860000  1
  C  C345  1  0.28260000  0.93600000  0.20460000  1
  C  C346  1  0.31580000  0.62620000  0.14547000  1
  C  C347  1  0.31760000  0.58460000  0.13440000  1
  C  C348  1  0.31870000  0.32070000  0.82583000  1
  C  C349  1  0.32950000  0.75660000  0.21121000  1
  C  C350  1  0.32960000  0.83610000  0.75553000  1
  C  C351  1  0.33130000  0.17950000  0.18006000  1
  C  C352  1  0.33150000  0.41230000  0.66872000  1
  C  C353  1  0.33280000  0.30600000  0.54634000  1
  C  C354  1  0.34190000  0.19660000  0.45261000  1
  C  C355  1  0.34840000  0.87680000  0.45020000  1
  C  C356  1  0.34850000  0.11300000  0.16496000  1
  C  C357  1  0.35540000  0.19220000  0.40621000  1
  C  C358  1  0.37310000  0.37560000  0.54850000  1
  C  C359  1  0.37530000  0.28500000  0.86300000  1
  C  C360  1  0.38150000  0.82550000  0.78137000  1
  C  C361  1  0.38170000  0.04720000  0.79420000  1
  C  C362  1  0.38230000  0.63110000  0.79892000  1
  C  C363  1  0.39110000  0.90700000  0.20420000  1
  C  C364  1  0.39460000  0.54270000  0.01270000  1
  C  C365  1  0.39950000  0.53110000  0.70426000  1
  C  C366  1  0.40270000  0.47710000  0.10444000  1
  C  C367  1  0.40460000  0.96660000  0.92510000  1
  C  C368  1  0.40700000  0.25950000  0.99520000  1
  C  C369  1  0.40730000  0.76720000  0.40708000  1
  C  C370  1  0.40970000  0.70150000  0.97411000  1
  C  C371  1  0.41280000  0.03500000  0.82250000  1
  C  C372  1  0.41500000  0.02160000  0.89797000  1
  C  C373  1  0.42710000  0.72710000  0.86227000  1
  C  C374  1  0.42960000  0.21740000  0.09528000  1
  C  C375  1  0.43050000  0.43860000  0.14267000  1
  C  C376  1  0.43050000  0.74430000  0.53100000  1
  C  C377  1  0.43520000  0.49740000  0.81580000  1
  C  C378  1  0.44780000  0.23010000  0.95640000  1
  C  C379  1  0.44970000  0.22810000  0.06710000  1
  C  C380  1  0.45130000  0.34500000  0.74594000  1
  C  C381  1  0.45400000  0.93300000  0.37453000  1
  C  C382  1  0.45730000  0.50470000  0.02200000  1
  C  C383  1  0.45760000  0.05890000  0.45421000  1
  C  C384  1  0.45770000  0.23510000  0.28620000  1
  C  C385  1  0.45810000  0.45560000  0.82590000  1
  C  C386  1  0.46120000  0.13490000  0.15529000  1
  C  C387  1  0.46140000  0.70140000  0.20290000  1
  C  C388  1  0.46590000  0.17020000  0.41820000  1
  C  C389  1  0.46590000  0.28820000  0.63108000  1
  C  C390  1  0.46860000  0.77790000  0.29163000  1
  C  C391  1  0.47130000  0.82430000  0.32679000  1
  C  C392  1  0.47600000  0.66490000  0.93647000  1
  C  C393  1  0.47700000  0.95950000  0.71709000  1
  C  C394  1  0.48030000  0.63780000  0.96018000  1
  C  C395  1  0.48440000  0.84730000  0.30177000  1
  C  C396  1  0.48510000  0.73990000  0.83634000  1
  C  C397  1  0.48600000  0.46190000  0.59340000  1
  C  C398  1  0.48650000  0.35400000  0.56007000  1
  C  C399  1  0.48930000  0.30790000  0.85310000  1
  C  C400  1  0.51070000  0.80790000  0.64690000  1
  C  C401  1  0.51350000  0.85400000  0.93993000  1
  C  C402  1  0.51400000  0.96190000  0.90660000  1
  C  C403  1  0.51490000  0.23990000  0.66366000  1
  C  C404  1  0.51560000  0.34730000  0.19823000  1
  C  C405  1  0.51970000  0.13780000  0.53982000  1
  C  C406  1  0.52300000  0.45950000  0.78291000  1
  C  C407  1  0.52400000  0.16490000  0.56353000  1
  C  C408  1  0.52870000  0.32430000  0.17321000  1
  C  C409  1  0.53140000  0.27790000  0.20837000  1
  C  C410  1  0.53410000  0.67020000  0.08180000  1
  C  C411  1  0.53410000  0.78820000  0.86892000  1
  C  C412  1  0.53860000  0.20140000  0.29710000  1
  C  C413  1  0.53880000  0.63490000  0.34471000  1
  C  C414  1  0.54190000  0.95560000  0.67410000  1
  C  C415  1  0.54230000  0.73510000  0.21380000  1
  C  C416  1  0.54240000  0.55890000  0.04579000  1
  C  C417  1  0.54270000  0.00470000  0.47800000  1
  C  C418  1  0.54600000  0.43300000  0.12547000  1
  C  C419  1  0.54870000  0.84500000  0.75406000  1
  C  C420  1  0.55030000  0.72810000  0.43290000  1
  C  C421  1  0.55220000  0.73010000  0.54360000  1
  C  C422  1  0.56480000  0.99740000  0.68420000  1
  C  C423  1  0.56950000  0.24430000  0.96900000  1
  C  C424  1  0.56950000  0.93860000  0.35733000  1
  C  C425  1  0.57040000  0.71740000  0.40472000  1
  C  C426  1  0.57290000  0.22710000  0.63773000  1
  C  C427  1  0.58500000  0.52160000  0.60203000  1
  C  C428  1  0.58720000  0.53500000  0.67750000  1
  C  C429  1  0.59030000  0.20150000  0.52589000  1
  C  C430  1  0.59270000  0.26720000  0.09292000  1
  C  C431  1  0.59300000  0.75950000  0.50480000  1
  C  C432  1  0.59540000  0.46660000  0.57490000  1
  C  C433  1  0.59730000  0.97710000  0.39556000  1
  C  C434  1  0.60050000  0.03110000  0.79574000  1
  C  C435  1  0.60540000  0.04270000  0.48730000  1
  C  C436  1  0.60890000  0.40700000  0.29580000  1
  C  C437  1  0.61770000  0.13110000  0.70108000  1
  C  C438  1  0.61830000  0.54720000  0.70580000  1
  C  C439  1  0.61850000  0.32550000  0.71863000  1
  C  C440  1  0.62470000  0.78500000  0.63700000  1
  C  C441  1  0.62690000  0.87560000  0.95150000  1
  C  C442  1  0.64460000  0.69220000  0.09379000  1
  C  C443  1  0.65150000  0.61300000  0.33504000  1
  C  C444  1  0.65160000  0.37680000  0.04980000  1
  C  C445  1  0.65810000  0.69660000  0.04739000  1
  C  C446  1  0.66720000  0.80600000  0.95366000  1
  C  C447  1  0.66850000  0.91230000  0.83128000  1
  C  C448  1  0.66870000  0.67950000  0.31994000  1
  C  C449  1  0.67040000  0.33610000  0.74447000  1
  C  C450  1  0.67050000  0.25660000  0.28879000  1
  C  C451  1  0.68130000  0.82070000  0.67417000  1
  C  C452  1  0.68240000  0.08460000  0.36560000  1
  C  C453  1  0.68420000  0.12620000  0.35453000  1
  C  C454  1  0.71740000  0.43600000  0.29540000  1
  C  C455  1  0.72630000  0.58720000  0.52140000  1
  C  C456  1  0.72840000  0.15850000  0.70159000  1
  C  C457  1  0.74410000  0.63060000  0.51260000  1
  C  C458  1  0.74750000  0.11460000  0.73768000  1
  C  C459  1  0.74940000  0.38670000  0.26410000  1
  C  C460  1  0.75060000  0.61330000  0.76410000  1
  C  C461  1  0.75250000  0.88540000  0.23768000  1
  C  C462  1  0.75590000  0.36940000  0.01260000  1
  C  C463  1  0.77160000  0.84150000  0.20159000  1
  C  C464  1  0.77370000  0.41280000  0.02140000  1
  C  C465  1  0.78260000  0.56400000  0.79540000  1
  C  C466  1  0.81580000  0.87380000  0.85453000  1
  C  C467  1  0.81760000  0.91540000  0.86560000  1
  C  C468  1  0.81870000  0.17930000  0.17417000  1
  C  C469  1  0.82950000  0.74340000  0.78879000  1
  C  C470  1  0.82960000  0.66390000  0.24447000  1
  C  C471  1  0.83130000  0.32050000  0.81994000  1
  C  C472  1  0.83150000  0.08770000  0.33128000  1
  C  C473  1  0.83280000  0.19400000  0.45366000  1
  C  C474  1  0.84190000  0.30340000  0.54739000  1
  C  C475  1  0.84840000  0.62320000  0.54980000  1
  C  C476  1  0.84850000  0.38700000  0.83504000  1
  C  C477  1  0.85540000  0.30780000  0.59379000  1
  C  C478  1  0.87310000  0.12440000  0.45150000  1
  C  C479  1  0.87530000  0.21500000  0.13700000  1
  C  C480  1  0.88150000  0.67450000  0.21863000  1
  C  C481  1  0.88170000  0.45280000  0.20580000  1
  C  C482  1  0.88230000  0.86890000  0.20108000  1
  C  C483  1  0.89110000  0.59300000  0.79580000  1
  C  C484  1  0.89460000  0.95730000  0.98730000  1
  C  C485  1  0.89950000  0.96890000  0.29574000  1
  C  C486  1  0.90270000  0.02290000  0.89556000  1
  C  C487  1  0.90460000  0.53340000  0.07490000  1
  C  C488  1  0.90700000  0.24050000  0.00480000  1
  C  C489  1  0.90730000  0.73280000  0.59292000  1
  C  C490  1  0.90970000  0.79850000  0.02589000  1
  C  C491  1  0.91280000  0.46500000  0.17750000  1
  C  C492  1  0.91500000  0.47840000  0.10203000  1
  C  C493  1  0.92710000  0.77290000  0.13773000  1
  C  C494  1  0.92960000  0.28260000  0.90472000  1
  C  C495  1  0.93050000  0.06140000  0.85733000  1
  C  C496  1  0.93050000  0.75570000  0.46900000  1
  C  C497  1  0.93520000  0.00260000  0.18420000  1
  C  C498  1  0.94780000  0.26990000  0.04360000  1
  C  C499  1  0.94970000  0.27190000  0.93290000  1
  C  C500  1  0.95130000  0.15500000  0.25406000  1
  C  C501  1  0.95400000  0.56700000  0.62547000  1
  C  C502  1  0.95730000  0.99530000  0.97800000  1
  C  C503  1  0.95760000  0.44110000  0.54579000  1
  C  C504  1  0.95770000  0.26490000  0.71380000  1
  C  C505  1  0.95810000  0.04440000  0.17410000  1
  C  C506  1  0.96120000  0.36510000  0.84471000  1
  C  C507  1  0.96140000  0.79860000  0.79710000  1
  C  C508  1  0.96590000  0.21180000  0.36892000  1
  C  C509  1  0.96590000  0.32980000  0.58180000  1
  C  C510  1  0.96860000  0.72210000  0.70837000  1
  C  C511  1  0.97130000  0.67570000  0.67321000  1
  C  C512  1  0.97600000  0.83510000  0.06353000  1
  C  C513  1  0.97700000  0.54050000  0.28291000  1
  C  C514  1  0.98030000  0.86220000  0.03982000  1
  C  C515  1  0.98440000  0.65270000  0.69823000  1
  C  C516  1  0.98510000  0.76010000  0.16366000  1
  C  C517  1  0.98600000  0.03810000  0.40660000  1
  C  C518  1  0.98650000  0.14600000  0.43993000  1
  C  C519  1  0.98930000  0.19210000  0.14690000  1
  N  N520  1  0.00060000  0.95580000  0.27809000  1
  N  N521  1  0.01180000  0.06888000  0.19601000  1
  N  N522  1  0.01860000  0.18237000  0.77930000  1
  N  N523  1  0.02200000  0.49980000  0.28837000  1
  N  N524  1  0.02350000  0.25790000  0.88821000  1
  N  N525  1  0.02360000  0.66996000  0.21947000  1
  N  N526  1  0.02690000  0.50114000  0.10947000  1
  N  N527  1  0.02730000  0.04241000  0.89907000  1
  N  N528  1  0.03630000  0.23440000  0.00458000  1
  N  N529  1  0.03780000  0.69044000  0.05842000  1
  N  N530  1  0.03950000  0.24237000  0.38266000  1
  N  N531  1  0.04090000  0.21976000  0.82096000  1
  N  N532  1  0.04230000  0.22954000  0.71843000  1
  N  N533  1  0.04400000  0.82741000  0.94762000  1
  N  N534  1  0.04750000  0.82140000  0.66494000  1
  N  N535  1  0.04930000  0.42262000  0.52744000  1
  N  N536  1  0.04940000  0.66905000  0.32940000  1
  N  N537  1  0.04990000  0.98571000  0.95706000  1
  N  N538  1  0.05310000  0.72046000  0.15934000  1
  N  N539  1  0.05350000  0.23990000  0.93515000  1
  N  N540  1  0.06020000  0.33924000  0.48400000  1
  N  N541  1  0.06180000  0.47301000  0.17655000  1
  N  N542  1  0.06480000  0.15121000  0.23716000  1
  N  N543  1  0.06700000  0.29423000  0.44544000  1
  N  N544  1  0.12710000  0.12411000  0.72459000  1
  N  N545  1  0.13170000  0.39834000  0.27614000  1
  N  N546  1  0.16210000  0.99408000  0.41912000  1
  N  N547  1  0.16240000  0.75510000  0.47282000  1
  N  N548  1  0.16270000  0.53352000  0.62901000  1
  N  N549  1  0.17400000  0.28549000  0.70214000  1
  N  N550  1  0.18310000  0.15420000  0.96878000  1
  N  N551  1  0.18340000  0.08320000  0.95596000  1
  N  N552  1  0.18990000  0.64891000  0.77508000  1
  N  N553  1  0.19210000  0.92232000  0.22523000  1
  N  N554  1  0.21870000  0.62886000  0.16707000  1
  N  N555  1  0.22040000  0.65456000  0.04004000  1
  N  N556  1  0.22220000  0.55946000  0.14997000  1
  N  N557  1  0.22310000  0.79035000  0.92843000  1
  N  N558  1  0.23310000  0.70678000  0.34552000  1
  N  N559  1  0.23540000  0.85931000  0.68081000  1
  N  N560  1  0.26460000  0.14069000  0.18081000  1
  N  N561  1  0.26690000  0.29322000  0.84552000  1
  N  N562  1  0.27690000  0.20965000  0.42843000  1
  N  N563  1  0.27780000  0.44054000  0.64997000  1
  N  N564  1  0.27960000  0.34544000  0.54004000  1
  N  N565  1  0.28130000  0.37114000  0.66707000  1
  N  N566  1  0.30790000  0.07768000  0.72523000  1
  N  N567  1  0.31010000  0.35109000  0.27508000  1
  N  N568  1  0.31660000  0.91680000  0.45596000  1
  N  N569  1  0.31690000  0.84580000  0.46878000  1
  N  N570  1  0.32600000  0.71451000  0.20214000  1
  N  N571  1  0.33730000  0.46648000  0.12901000  1
  N  N572  1  0.33760000  0.24490000  0.97282000  1
  N  N573  1  0.33790000  0.00592000  0.91912000  1
  N  N574  1  0.36830000  0.60166000  0.77614000  1
  N  N575  1  0.37290000  0.87589000  0.22459000  1
  N  N576  1  0.43300000  0.70577000  0.94544000  1
  N  N577  1  0.43520000  0.84879000  0.73716000  1
  N  N578  1  0.43820000  0.52699000  0.67655000  1
  N  N579  1  0.43980000  0.66076000  0.98400000  1
  N  N580  1  0.44650000  0.76010000  0.43515000  1
  N  N581  1  0.44690000  0.27954000  0.65934000  1
  N  N582  1  0.45010000  0.01429000  0.45706000  1
  N  N583  1  0.45060000  0.33095000  0.82940000  1
  N  N584  1  0.45070000  0.57738000  0.02744000  1
  N  N585  1  0.45250000  0.17860000  0.16494000  1
  N  N586  1  0.45600000  0.17259000  0.44762000  1
  N  N587  1  0.45770000  0.77046000  0.21843000  1
  N  N588  1  0.45910000  0.78024000  0.32096000  1
  N  N589  1  0.46050000  0.75763000  0.88266000  1
  N  N590  1  0.46220000  0.30956000  0.55842000  1
  N  N591  1  0.46370000  0.76560000  0.50458000  1
  N  N592  1  0.47270000  0.95759000  0.39907000  1
  N  N593  1  0.47310000  0.49886000  0.60947000  1
  N  N594  1  0.47640000  0.33004000  0.71947000  1
  N  N595  1  0.47650000  0.74210000  0.38821000  1
  N  N596  1  0.47800000  0.50020000  0.78837000  1
  N  N597  1  0.48140000  0.81763000  0.27930000  1
  N  N598  1  0.48820000  0.93112000  0.69601000  1
  N  N599  1  0.49940000  0.04420000  0.77809000  1
  N  N600  1  0.50060000  0.54420000  0.72191000  1
  N  N601  1  0.51180000  0.43112000  0.80399000  1
  N  N602  1  0.51860000  0.31763000  0.22070000  1
  N  N603  1  0.52200000  0.00020000  0.71163000  1
  N  N604  1  0.52350000  0.24210000  0.11179000  1
  N  N605  1  0.52360000  0.83004000  0.78053000  1
  N  N606  1  0.52690000  0.99886000  0.89053000  1
  N  N607  1  0.52730000  0.45759000  0.10093000  1
  N  N608  1  0.53630000  0.26560000  0.99542000  1
  N  N609  1  0.53780000  0.80956000  0.94158000  1
  N  N610  1  0.53950000  0.25763000  0.61734000  1
  N  N611  1  0.54090000  0.28024000  0.17904000  1
  N  N612  1  0.54230000  0.27046000  0.28157000  1
  N  N613  1  0.54400000  0.67259000  0.05238000  1
  N  N614  1  0.54750000  0.67860000  0.33506000  1
  N  N615  1  0.54930000  0.07738000  0.47256000  1
  N  N616  1  0.54940000  0.83095000  0.67060000  1
  N  N617  1  0.54990000  0.51429000  0.04294000  1
  N  N618  1  0.55310000  0.77954000  0.84066000  1
  N  N619  1  0.55350000  0.26010000  0.06485000  1
  N  N620  1  0.56020000  0.16076000  0.51600000  1
  N  N621  1  0.56180000  0.02699000  0.82345000  1
  N  N622  1  0.56480000  0.34879000  0.76284000  1
  N  N623  1  0.56700000  0.20577000  0.55456000  1
  N  N624  1  0.62710000  0.37589000  0.27541000  1
  N  N625  1  0.63170000  0.10166000  0.72386000  1
  N  N626  1  0.66210000  0.50592000  0.58088000  1
  N  N627  1  0.66240000  0.74490000  0.52718000  1
  N  N628  1  0.66270000  0.96648000  0.37099000  1
  N  N629  1  0.67400000  0.21451000  0.29786000  1
  N  N630  1  0.68310000  0.34580000  0.03122000  1
  N  N631  1  0.68340000  0.41680000  0.04404000  1
  N  N632  1  0.68990000  0.85109000  0.22492000  1
  N  N633  1  0.69210000  0.57768000  0.77477000  1
  N  N634  1  0.71870000  0.87114000  0.83293000  1
  N  N635  1  0.72040000  0.84544000  0.95996000  1
  N  N636  1  0.72220000  0.94054000  0.85003000  1
  N  N637  1  0.72310000  0.70965000  0.07157000  1
  N  N638  1  0.73310000  0.79322000  0.65448000  1
  N  N639  1  0.73540000  0.64069000  0.31919000  1
  N  N640  1  0.76460000  0.35931000  0.81919000  1
  N  N641  1  0.76690000  0.20678000  0.15448000  1
  N  N642  1  0.77690000  0.29035000  0.57157000  1
  N  N643  1  0.77780000  0.05946000  0.35003000  1
  N  N644  1  0.77960000  0.15456000  0.45996000  1
  N  N645  1  0.78130000  0.12886000  0.33293000  1
  N  N646  1  0.80790000  0.42232000  0.27477000  1
  N  N647  1  0.81010000  0.14891000  0.72492000  1
  N  N648  1  0.81660000  0.58320000  0.54404000  1
  N  N649  1  0.81690000  0.65420000  0.53122000  1
  N  N650  1  0.82600000  0.78549000  0.79786000  1
  N  N651  1  0.83730000  0.03352000  0.87099000  1
  N  N652  1  0.83760000  0.25510000  0.02718000  1
  N  N653  1  0.83790000  0.49408000  0.08088000  1
  N  N654  1  0.86830000  0.89834000  0.22386000  1
  N  N655  1  0.87290000  0.62411000  0.77541000  1
  N  N656  1  0.93300000  0.79423000  0.05456000  1
  N  N657  1  0.93520000  0.65121000  0.26284000  1
  N  N658  1  0.93820000  0.97301000  0.32345000  1
  N  N659  1  0.93980000  0.83924000  0.01600000  1
  N  N660  1  0.94650000  0.73990000  0.56485000  1
  N  N661  1  0.94690000  0.22046000  0.34066000  1
  N  N662  1  0.95010000  0.48571000  0.54294000  1
  N  N663  1  0.95060000  0.16905000  0.17060000  1
  N  N664  1  0.95070000  0.92262000  0.97256000  1
  N  N665  1  0.95250000  0.32140000  0.83506000  1
  N  N666  1  0.95600000  0.32741000  0.55238000  1
  N  N667  1  0.95770000  0.72954000  0.78157000  1
  N  N668  1  0.95910000  0.71976000  0.67904000  1
  N  N669  1  0.96050000  0.74237000  0.11734000  1
  N  N670  1  0.96220000  0.19044000  0.44158000  1
  N  N671  1  0.96370000  0.73440000  0.49542000  1
  N  N672  1  0.97270000  0.54241000  0.60093000  1
  N  N673  1  0.97310000  0.00114000  0.39053000  1
  N  N674  1  0.97640000  0.16996000  0.28053000  1
  N  N675  1  0.97650000  0.75790000  0.61179000  1
  N  N676  1  0.97800000  0.99980000  0.21163000  1
  N  N677  1  0.98140000  0.68237000  0.72070000  1
  N  N678  1  0.98820000  0.56888000  0.30399000  1
  N  N679  1  0.99940000  0.45580000  0.22191000  1
