# generated using pymatgen
data_CoH10(C2O)6
_symmetry_space_group_name_H-M   'P 1'
_cell_length_a   16.71900000
_cell_length_b   16.71900000
_cell_length_c   24.59800000
_cell_angle_alpha   90.00000000
_cell_angle_beta   90.00000000
_cell_angle_gamma   120.00000000
_symmetry_Int_Tables_number   1
_chemical_formula_structural   CoH10(C2O)6
_chemical_formula_sum   'Co12 H120 C144 O72'
_cell_volume   5954.57849212
_cell_formula_units_Z   12
loop_
 _symmetry_equiv_pos_site_id
 _symmetry_equiv_pos_as_xyz
  1  'x, y, z'
loop_
 _atom_site_type_symbol
 _atom_site_label
 _atom_site_symmetry_multiplicity
 _atom_site_fract_x
 _atom_site_fract_y
 _atom_site_fract_z
 _atom_site_occupancy
  Co  Co0  1  0.76300000  0.50818000  0.80195000  1
  Co  Co1  1  0.74518000  0.23700000  0.46862000  1
  Co  Co2  1  0.72386000  0.31598000  0.58388000  1
  Co  Co3  1  0.68402000  0.40788000  0.91722000  1
  Co  Co4  1  0.59212000  0.27614000  0.25055000  1
  Co  Co5  1  0.50818000  0.76300000  0.53138000  1
  Co  Co6  1  0.49182000  0.25482000  0.13529000  1
  Co  Co7  1  0.40788000  0.68402000  0.41612000  1
  Co  Co8  1  0.31598000  0.72386000  0.74945000  1
  Co  Co9  1  0.27614000  0.59212000  0.08278000  1
  Co  Co10  1  0.25482000  0.49182000  0.19805000  1
  Co  Co11  1  0.23700000  0.74518000  0.86471000  1
  H  H12  1  0.99050000  0.44010000  0.97683000  1
  H  H13  1  0.98830000  0.10160000  0.63603000  1
  H  H14  1  0.97510000  0.85990000  0.97747000  1
  H  H15  1  0.97130000  0.61130000  0.61360000  1
  H  H16  1  0.96870000  0.68730000  0.22607000  1
  H  H17  1  0.96120000  0.83980000  0.45390000  1
  H  H18  1  0.95750000  0.04330000  0.68973000  1
  H  H19  1  0.95670000  0.91420000  0.02307000  1
  H  H20  1  0.95270000  0.50460000  0.54820000  1
  H  H21  1  0.94870000  0.78100000  0.40160000  1
  H  H22  1  0.93960000  0.41960000  0.73853000  1
  H  H23  1  0.93000000  0.08230000  0.93453000  1
  H  H24  1  0.91770000  0.84770000  0.26787000  1
  H  H25  1  0.91730000  0.34810000  0.90583000  1
  H  H26  1  0.91420000  0.95670000  0.31027000  1
  H  H27  1  0.90260000  0.16990000  0.65823000  1
  H  H28  1  0.90120000  0.11820000  0.79693000  1
  H  H29  1  0.90020000  0.73190000  0.45600000  1
  H  H30  1  0.89860000  0.55280000  0.97587000  1
  H  H31  1  0.89840000  0.88670000  0.96937000  1
  H  H32  1  0.88670000  0.89840000  0.36397000  1
  H  H33  1  0.88480000  0.02490000  0.64413000  1
  H  H34  1  0.88180000  0.78300000  0.13027000  1
  H  H35  1  0.87860000  0.03880000  0.12057000  1
  H  H36  1  0.86640000  0.51600000  0.55920000  1
  H  H37  1  0.86620000  0.30420000  0.81483000  1
  H  H38  1  0.85990000  0.97510000  0.35587000  1
  H  H39  1  0.84770000  0.91770000  0.06547000  1
  H  H40  1  0.83980000  0.96120000  0.87943000  1
  H  H41  1  0.83230000  0.05130000  0.06827000  1
  H  H42  1  0.83170000  0.09980000  0.12267000  1
  H  H43  1  0.83010000  0.73270000  0.99157000  1
  H  H44  1  0.82370000  0.58270000  0.98237000  1
  H  H45  1  0.78300000  0.88180000  0.20307000  1
  H  H46  1  0.78100000  0.94870000  0.93173000  1
  H  H47  1  0.77140000  0.23800000  0.78693000  1
  H  H48  1  0.76200000  0.53340000  0.12027000  1
  H  H49  1  0.75900000  0.17630000  0.64903000  1
  H  H50  1  0.73270000  0.83010000  0.34177000  1
  H  H51  1  0.73190000  0.90020000  0.87733000  1
  H  H52  1  0.71860000  0.03130000  0.89273000  1
  H  H53  1  0.69580000  0.56200000  0.14817000  1
  H  H54  1  0.68730000  0.96870000  0.10727000  1
  H  H55  1  0.65420000  0.10140000  0.64253000  1
  H  H56  1  0.65190000  0.56920000  0.23917000  1
  H  H57  1  0.64960000  0.13360000  0.22587000  1
  H  H58  1  0.64000000  0.02870000  0.28027000  1
  H  H59  1  0.61130000  0.97130000  0.71973000  1
  H  H60  1  0.58270000  0.82370000  0.35097000  1
  H  H61  1  0.58040000  0.52000000  0.07187000  1
  H  H62  1  0.56920000  0.65190000  0.09417000  1
  H  H63  1  0.56200000  0.69580000  0.18517000  1
  H  H64  1  0.55990000  0.55040000  0.31017000  1
  H  H65  1  0.55280000  0.89860000  0.35747000  1
  H  H66  1  0.55190000  0.04730000  0.21487000  1
  H  H67  1  0.55040000  0.55990000  0.02317000  1
  H  H68  1  0.53340000  0.76200000  0.21307000  1
  H  H69  1  0.52000000  0.58040000  0.26147000  1
  H  H70  1  0.51600000  0.86640000  0.77413000  1
  H  H71  1  0.50460000  0.95270000  0.78513000  1
  H  H72  1  0.49540000  0.44810000  0.88153000  1
  H  H73  1  0.48400000  0.35040000  0.89253000  1
  H  H74  1  0.48000000  0.06040000  0.40520000  1
  H  H75  1  0.46660000  0.22860000  0.45360000  1
  H  H76  1  0.44960000  0.00950000  0.64350000  1
  H  H77  1  0.44810000  0.49540000  0.45180000  1
  H  H78  1  0.44720000  0.34580000  0.30920000  1
  H  H79  1  0.44010000  0.99050000  0.35650000  1
  H  H80  1  0.43800000  0.13380000  0.48150000  1
  H  H81  1  0.43080000  0.08270000  0.57250000  1
  H  H82  1  0.41960000  0.93960000  0.59480000  1
  H  H83  1  0.41730000  0.24100000  0.31570000  1
  H  H84  1  0.38870000  0.36000000  0.94693000  1
  H  H85  1  0.36000000  0.38870000  0.38640000  1
  H  H86  1  0.35040000  0.48400000  0.44080000  1
  H  H87  1  0.34810000  0.91730000  0.42750000  1
  H  H88  1  0.34580000  0.44720000  0.02413000  1
  H  H89  1  0.31270000  0.28140000  0.55940000  1
  H  H90  1  0.30420000  0.86620000  0.51850000  1
  H  H91  1  0.28140000  0.31270000  0.77393000  1
  H  H92  1  0.26810000  0.16830000  0.78933000  1
  H  H93  1  0.26730000  0.09740000  0.32490000  1
  H  H94  1  0.24100000  0.41730000  0.01763000  1
  H  H95  1  0.23800000  0.77140000  0.54640000  1
  H  H96  1  0.22860000  0.46660000  0.87973000  1
  H  H97  1  0.21900000  0.16770000  0.73493000  1
  H  H98  1  0.21700000  0.09880000  0.46360000  1
  H  H99  1  0.17630000  0.75900000  0.68430000  1
  H  H100  1  0.16990000  0.90260000  0.67510000  1
  H  H101  1  0.16830000  0.26810000  0.54400000  1
  H  H102  1  0.16770000  0.21900000  0.59840000  1
  H  H103  1  0.16020000  0.12140000  0.78723000  1
  H  H104  1  0.15230000  0.07000000  0.60120000  1
  H  H105  1  0.14010000  0.11520000  0.31080000  1
  H  H106  1  0.13380000  0.43800000  0.85183000  1
  H  H107  1  0.13360000  0.64960000  0.10747000  1
  H  H108  1  0.12140000  0.16020000  0.54610000  1
  H  H109  1  0.11820000  0.90120000  0.53640000  1
  H  H110  1  0.11520000  0.14010000  0.02253000  1
  H  H111  1  0.11330000  0.01170000  0.30270000  1
  H  H112  1  0.10160000  0.98830000  0.69730000  1
  H  H113  1  0.10140000  0.65420000  0.69080000  1
  H  H114  1  0.09980000  0.83170000  0.21067000  1
  H  H115  1  0.09880000  0.21700000  0.86973000  1
  H  H116  1  0.09740000  0.26730000  0.00843000  1
  H  H117  1  0.08580000  0.04250000  0.35640000  1
  H  H118  1  0.08270000  0.43080000  0.76083000  1
  H  H119  1  0.08230000  0.93000000  0.39880000  1
  H  H120  1  0.07000000  0.15230000  0.73213000  1
  H  H121  1  0.06040000  0.48000000  0.92813000  1
  H  H122  1  0.05130000  0.83230000  0.26507000  1
  H  H123  1  0.04730000  0.55190000  0.11847000  1
  H  H124  1  0.04330000  0.95750000  0.64360000  1
  H  H125  1  0.04250000  0.08580000  0.97693000  1
  H  H126  1  0.03880000  0.87860000  0.21277000  1
  H  H127  1  0.03130000  0.71860000  0.44060000  1
  H  H128  1  0.02870000  0.64000000  0.05307000  1
  H  H129  1  0.02490000  0.88480000  0.68920000  1
  H  H130  1  0.01170000  0.11330000  0.03063000  1
  H  H131  1  0.00950000  0.44960000  0.68983000  1
  C  C132  1  0.99860000  0.66810000  0.06897000  1
  C  C133  1  0.99840000  0.67880000  0.54220000  1
  C  C134  1  0.99800000  0.21790000  0.94933000  1
  C  C135  1  0.99260000  0.29730000  0.94178000  1
  C  C136  1  0.96060000  0.73660000  0.21027000  1
  C  C137  1  0.95670000  0.72410000  0.14847000  1
  C  C138  1  0.95440000  0.78280000  0.44050000  1
  C  C139  1  0.95050000  0.69810000  0.03737000  1
  C  C140  1  0.94770000  0.40420000  0.70163000  1
  C  C141  1  0.93930000  0.07150000  0.66203000  1
  C  C142  1  0.92850000  0.86780000  0.99537000  1
  C  C143  1  0.92730000  0.13580000  0.92847000  1
  C  C144  1  0.92000000  0.29450000  0.91163000  1
  C  C145  1  0.91940000  0.14160000  0.68763000  1
  C  C146  1  0.91110000  0.75370000  0.11477000  1
  C  C147  1  0.90800000  0.51750000  0.53120000  1
  C  C148  1  0.90670000  0.74200000  0.05887000  1
  C  C149  1  0.88170000  0.59810000  0.96487000  1
  C  C150  1  0.87810000  0.40920000  0.66516000  1
  C  C151  1  0.87210000  0.72540000  0.23287000  1
  C  C152  1  0.87080000  0.59650000  0.90307000  1
  C  C153  1  0.86780000  0.92850000  0.33797000  1
  C  C154  1  0.86420000  0.79150000  0.26181000  1
  C  C155  1  0.85840000  0.77780000  0.02097000  1
  C  C156  1  0.85410000  0.44520000  0.48920000  1
  C  C157  1  0.85350000  0.21190000  0.89083000  1
  C  C158  1  0.85330000  0.12790000  0.89953000  1
  C  C159  1  0.84260000  0.08890000  0.78143000  1
  C  C160  1  0.83530000  0.09330000  0.72553000  1
  C  C161  1  0.82840000  0.04560000  0.10717000  1
  C  C162  1  0.79980000  0.27000000  0.82043000  1
  C  C163  1  0.79150000  0.86420000  0.07153000  1
  C  C164  1  0.78810000  0.64160000  0.22417000  1
  C  C165  1  0.78280000  0.95440000  0.89283000  1
  C  C166  1  0.78210000  0.78010000  0.28267000  1
  C  C167  1  0.78010000  0.78210000  0.05067000  1
  C  C168  1  0.77780000  0.85840000  0.31237000  1
  C  C169  1  0.77600000  0.03940000  0.87693000  1
  C  C170  1  0.76740000  0.04330000  0.81513000  1
  C  C171  1  0.76700000  0.33720000  0.83303000  1
  C  C172  1  0.75370000  0.91110000  0.21857000  1
  C  C173  1  0.74760000  0.04950000  0.70403000  1
  C  C174  1  0.74200000  0.90670000  0.27447000  1
  C  C175  1  0.73660000  0.96060000  0.12307000  1
  C  C176  1  0.73000000  0.52980000  0.15377000  1
  C  C177  1  0.72570000  0.12920000  0.56973000  1
  C  C178  1  0.72540000  0.87210000  0.10047000  1
  C  C179  1  0.72410000  0.95670000  0.18487000  1
  C  C180  1  0.71640000  0.11830000  0.63153000  1
  C  C181  1  0.70550000  0.62550000  0.24497000  1
  C  C182  1  0.70270000  0.69530000  0.27512000  1
  C  C183  1  0.69810000  0.95050000  0.29597000  1
  C  C184  1  0.69530000  0.70270000  0.05822000  1
  C  C185  1  0.68040000  0.00160000  0.20887000  1
  C  C186  1  0.67880000  0.99840000  0.79113000  1
  C  C187  1  0.66950000  0.00140000  0.73563000  1
  C  C188  1  0.66810000  0.99860000  0.26437000  1
  C  C189  1  0.66280000  0.42980000  0.16637000  1
  C  C190  1  0.64160000  0.78810000  0.10917000  1
  C  C191  1  0.62550000  0.70550000  0.08837000  1
  C  C192  1  0.60950000  0.09200000  0.19787000  1
  C  C193  1  0.59810000  0.88170000  0.36847000  1
  C  C194  1  0.59650000  0.87080000  0.43027000  1
  C  C195  1  0.59580000  0.54350000  0.03497000  1
  C  C196  1  0.59110000  0.14590000  0.15587000  1
  C  C197  1  0.59080000  0.46890000  0.99850000  1
  C  C198  1  0.57020000  0.23300000  0.49970000  1
  C  C199  1  0.55480000  0.40890000  0.82253000  1
  C  C200  1  0.54350000  0.59580000  0.29837000  1
  C  C201  1  0.53110000  0.12190000  0.33183000  1
  C  C202  1  0.52980000  0.73000000  0.17957000  1
  C  C203  1  0.51750000  0.90800000  0.80213000  1
  C  C204  1  0.48250000  0.39050000  0.86453000  1
  C  C205  1  0.47020000  0.20020000  0.48710000  1
  C  C206  1  0.46890000  0.59080000  0.33484000  1
  C  C207  1  0.45650000  0.05230000  0.36830000  1
  C  C208  1  0.44520000  0.85410000  0.84413000  1
  C  C209  1  0.42980000  0.66280000  0.16697000  1
  C  C210  1  0.40920000  0.87810000  0.66817000  1
  C  C211  1  0.40890000  0.55480000  0.51080000  1
  C  C212  1  0.40420000  0.94770000  0.63170000  1
  C  C213  1  0.40350000  0.27430000  0.23640000  1
  C  C214  1  0.40190000  0.28360000  0.29820000  1
  C  C215  1  0.39050000  0.48250000  0.46880000  1
  C  C216  1  0.37450000  0.08000000  0.57830000  1
  C  C217  1  0.35840000  0.14650000  0.55750000  1
  C  C218  1  0.33720000  0.76700000  0.50030000  1
  C  C219  1  0.33190000  0.33050000  0.40230000  1
  C  C220  1  0.33050000  0.33190000  0.93103000  1
  C  C221  1  0.32120000  0.31960000  0.87553000  1
  C  C222  1  0.31960000  0.32120000  0.45780000  1
  C  C223  1  0.30470000  0.00740000  0.60845000  1
  C  C224  1  0.30190000  0.25240000  0.37070000  1
  C  C225  1  0.29730000  0.99260000  0.39155000  1
  C  C226  1  0.29450000  0.92000000  0.42170000  1
  C  C227  1  0.28360000  0.40190000  0.03513000  1
  C  C228  1  0.27590000  0.23260000  0.48180000  1
  C  C229  1  0.27460000  0.14670000  0.56620000  1
  C  C230  1  0.27430000  0.40350000  0.09693000  1
  C  C231  1  0.27000000  0.79980000  0.51290000  1
  C  C232  1  0.26340000  0.22400000  0.54360000  1
  C  C233  1  0.25800000  0.16470000  0.39220000  1
  C  C234  1  0.25240000  0.30190000  0.96263000  1
  C  C235  1  0.24630000  0.15740000  0.44810000  1
  C  C236  1  0.23300000  0.57020000  0.83363000  1
  C  C237  1  0.23260000  0.27590000  0.85153000  1
  C  C238  1  0.22400000  0.26340000  0.78973000  1
  C  C239  1  0.22220000  0.08060000  0.35430000  1
  C  C240  1  0.21990000  0.00200000  0.61600000  1
  C  C241  1  0.21790000  0.99800000  0.38400000  1
  C  C242  1  0.21720000  0.17160000  0.77383000  1
  C  C243  1  0.21190000  0.85350000  0.44250000  1
  C  C244  1  0.20850000  0.07270000  0.59514000  1
  C  C245  1  0.20020000  0.47020000  0.84623000  1
  C  C246  1  0.17160000  0.21720000  0.55950000  1
  C  C247  1  0.16470000  0.25800000  0.94113000  1
  C  C248  1  0.15740000  0.24630000  0.88523000  1
  C  C249  1  0.14670000  0.27460000  0.76713000  1
  C  C250  1  0.14650000  0.35840000  0.77583000  1
  C  C251  1  0.14590000  0.59110000  0.17747000  1
  C  C252  1  0.14160000  0.91940000  0.64570000  1
  C  C253  1  0.13580000  0.92730000  0.40486000  1
  C  C254  1  0.13220000  0.06070000  0.32870000  1
  C  C255  1  0.12920000  0.72570000  0.76360000  1
  C  C256  1  0.12790000  0.85330000  0.43380000  1
  C  C257  1  0.12190000  0.53110000  0.00150000  1
  C  C258  1  0.11830000  0.71640000  0.70180000  1
  C  C259  1  0.09330000  0.83530000  0.60780000  1
  C  C260  1  0.09200000  0.60950000  0.13547000  1
  C  C261  1  0.08890000  0.84260000  0.55190000  1
  C  C262  1  0.08060000  0.22220000  0.97903000  1
  C  C263  1  0.08000000  0.37450000  0.75503000  1
  C  C264  1  0.07270000  0.20850000  0.73819000  1
  C  C265  1  0.07150000  0.93930000  0.67130000  1
  C  C266  1  0.06070000  0.13220000  0.00463000  1
  C  C267  1  0.05230000  0.45650000  0.96503000  1
  C  C268  1  0.04950000  0.74760000  0.62930000  1
  C  C269  1  0.04560000  0.82840000  0.22617000  1
  C  C270  1  0.04330000  0.76740000  0.51820000  1
  C  C271  1  0.03940000  0.77600000  0.45640000  1
  C  C272  1  0.00740000  0.30470000  0.72488000  1
  C  C273  1  0.00200000  0.21990000  0.71733000  1
  C  C274  1  0.00160000  0.68040000  0.12447000  1
  C  C275  1  0.00140000  0.66950000  0.59770000  1
  O  O276  1  0.95410000  0.60580000  0.50711000  1
  O  O277  1  0.95090000  0.68700000  0.98102000  1
  O  O278  1  0.93910000  0.31530000  0.70133000  1
  O  O279  1  0.93070000  0.65580000  0.87611000  1
  O  O280  1  0.86790000  0.47730000  0.67149000  1
  O  O281  1  0.86600000  0.46230000  0.44070000  1
  O  O282  1  0.83830000  0.34760000  0.62979000  1
  O  O283  1  0.80080000  0.52640000  0.88390000  1
  O  O284  1  0.79690000  0.36590000  0.50852000  1
  O  O285  1  0.79620000  0.57510000  0.19572000  1
  O  O286  1  0.78370000  0.39650000  0.79685000  1
  O  O287  1  0.77890000  0.20380000  0.86238000  1
  O  O288  1  0.73610000  0.04910000  0.64768000  1
  O  O289  1  0.72620000  0.32740000  0.87725000  1
  O  O290  1  0.72560000  0.19920000  0.55056000  1
  O  O291  1  0.72510000  0.06930000  0.54277000  1
  O  O292  1  0.68700000  0.95090000  0.35232000  1
  O  O293  1  0.68470000  0.62380000  0.03467000  1
  O  O294  1  0.67260000  0.39880000  0.21059000  1
  O  O295  1  0.65580000  0.93070000  0.45723000  1
  O  O296  1  0.65240000  0.49070000  0.96313000  1
  O  O297  1  0.65170000  0.04590000  0.17378000  1
  O  O298  1  0.63410000  0.43100000  0.84185000  1
  O  O299  1  0.62380000  0.68470000  0.29867000  1
  O  O300  1  0.61280000  0.21630000  0.46352000  1
  O  O301  1  0.60940000  0.13210000  0.33816000  1
  O  O302  1  0.60580000  0.95410000  0.82622000  1
  O  O303  1  0.60350000  0.38720000  0.13019000  1
  O  O304  1  0.60120000  0.27380000  0.54392000  1
  O  O305  1  0.59630000  0.13400000  0.10737000  1
  O  O306  1  0.57510000  0.79620000  0.13762000  1
  O  O307  1  0.56900000  0.20310000  0.17519000  1
  O  O308  1  0.53770000  0.40370000  0.77403000  1
  O  O309  1  0.52640000  0.80080000  0.44944000  1
  O  O310  1  0.52270000  0.39060000  0.00483000  1
  O  O311  1  0.50930000  0.16170000  0.29646000  1
  O  O312  1  0.49070000  0.65240000  0.37021000  1
  O  O313  1  0.47730000  0.86790000  0.66184000  1
  O  O314  1  0.47360000  0.27440000  0.21723000  1
  O  O315  1  0.46230000  0.86600000  0.89263000  1
  O  O316  1  0.43100000  0.63410000  0.49148000  1
  O  O317  1  0.42490000  0.22110000  0.52905000  1
  O  O318  1  0.40370000  0.53770000  0.55930000  1
  O  O319  1  0.39880000  0.67260000  0.12275000  1
  O  O320  1  0.39650000  0.78370000  0.53648000  1
  O  O321  1  0.39420000  0.34830000  0.84044000  1
  O  O322  1  0.39060000  0.52270000  0.32851000  1
  O  O323  1  0.38720000  0.60350000  0.20315000  1
  O  O324  1  0.37620000  0.06090000  0.36800000  1
  O  O325  1  0.36590000  0.79690000  0.82481000  1
  O  O326  1  0.34830000  0.39420000  0.49289000  1
  O  O327  1  0.34760000  0.83830000  0.70354000  1
  O  O328  1  0.34420000  0.27490000  0.20944000  1
  O  O329  1  0.32740000  0.72620000  0.45608000  1
  O  O330  1  0.31530000  0.93910000  0.63200000  1
  O  O331  1  0.31300000  0.26390000  0.31435000  1
  O  O332  1  0.27490000  0.34420000  0.12389000  1
  O  O333  1  0.27440000  0.47360000  0.11610000  1
  O  O334  1  0.27380000  0.60120000  0.78941000  1
  O  O335  1  0.26390000  0.31300000  0.01898000  1
  O  O336  1  0.22110000  0.42490000  0.80428000  1
  O  O337  1  0.21630000  0.61280000  0.86981000  1
  O  O338  1  0.20380000  0.77890000  0.47095000  1
  O  O339  1  0.20310000  0.56900000  0.15815000  1
  O  O340  1  0.19920000  0.72560000  0.78277000  1
  O  O341  1  0.16170000  0.50930000  0.03687000  1
  O  O342  1  0.13400000  0.59630000  0.22597000  1
  O  O343  1  0.13210000  0.60940000  0.99517000  1
  O  O344  1  0.06930000  0.72510000  0.79056000  1
  O  O345  1  0.06090000  0.37620000  0.96533000  1
  O  O346  1  0.04910000  0.73610000  0.68565000  1
  O  O347  1  0.04590000  0.65170000  0.15956000  1
