# generated using pymatgen
data_Zn4H20C37O20
_symmetry_space_group_name_H-M   'P 1'
_cell_length_a   12.31000000
_cell_length_b   26.25000000
_cell_length_c   26.34100000
_cell_angle_alpha   90.00000000
_cell_angle_beta   90.00000000
_cell_angle_gamma   90.00000000
_symmetry_Int_Tables_number   1
_chemical_formula_structural   Zn4H20C37O20
_chemical_formula_sum   'Zn16 H80 C148 O80'
_cell_volume   8511.76488750
_cell_formula_units_Z   4
loop_
 _symmetry_equiv_pos_site_id
 _symmetry_equiv_pos_as_xyz
  1  'x, y, z'
loop_
 _atom_site_type_symbol
 _atom_site_label
 _atom_site_symmetry_multiplicity
 _atom_site_fract_x
 _atom_site_fract_y
 _atom_site_fract_z
 _atom_site_occupancy
  Zn  Zn0  1  0.33914000  0.22360000  0.75000000  1
  Zn  Zn1  1  0.33914000  0.27640000  0.25000000  1
  Zn  Zn2  1  0.41733000  0.50734000  0.04090000  1
  Zn  Zn3  1  0.41733000  0.50734000  0.45910000  1
  Zn  Zn4  1  0.41733000  0.99266000  0.54090000  1
  Zn  Zn5  1  0.41733000  0.99266000  0.95910000  1
  Zn  Zn6  1  0.49251000  0.69445000  0.25000000  1
  Zn  Zn7  1  0.49251000  0.80555000  0.75000000  1
  Zn  Zn8  1  0.50749000  0.19445000  0.25000000  1
  Zn  Zn9  1  0.50749000  0.30555000  0.75000000  1
  Zn  Zn10  1  0.58267000  0.00734000  0.04090000  1
  Zn  Zn11  1  0.58267000  0.00734000  0.45910000  1
  Zn  Zn12  1  0.58267000  0.49266000  0.54090000  1
  Zn  Zn13  1  0.58267000  0.49266000  0.95910000  1
  Zn  Zn14  1  0.66086000  0.72360000  0.75000000  1
  Zn  Zn15  1  0.66086000  0.77640000  0.25000000  1
  H  H16  1  0.01970000  0.72750000  0.07430000  1
  H  H17  1  0.01970000  0.72750000  0.42570000  1
  H  H18  1  0.01970000  0.77250000  0.57430000  1
  H  H19  1  0.01970000  0.77250000  0.92570000  1
  H  H20  1  0.07310000  0.67740000  0.52900000  1
  H  H21  1  0.07310000  0.67740000  0.97100000  1
  H  H22  1  0.07310000  0.82260000  0.02900000  1
  H  H23  1  0.07310000  0.82260000  0.47100000  1
  H  H24  1  0.07930000  0.24190000  0.55180000  1
  H  H25  1  0.07930000  0.24190000  0.94820000  1
  H  H26  1  0.07930000  0.25810000  0.05180000  1
  H  H27  1  0.07930000  0.25810000  0.44820000  1
  H  H28  1  0.15600000  0.21560000  0.11870000  1
  H  H29  1  0.15600000  0.21560000  0.38130000  1
  H  H30  1  0.15600000  0.28440000  0.61870000  1
  H  H31  1  0.15600000  0.28440000  0.88130000  1
  H  H32  1  0.16420000  0.69430000  0.00950000  1
  H  H33  1  0.16420000  0.69430000  0.49050000  1
  H  H34  1  0.16420000  0.80570000  0.50950000  1
  H  H35  1  0.16420000  0.80570000  0.99050000  1
  H  H36  1  0.18720000  0.11070000  0.00850000  1
  H  H37  1  0.18720000  0.11070000  0.49150000  1
  H  H38  1  0.18720000  0.38930000  0.50850000  1
  H  H39  1  0.18720000  0.38930000  0.99150000  1
  H  H40  1  0.26130000  0.63550000  0.52890000  1
  H  H41  1  0.26130000  0.63550000  0.97110000  1
  H  H42  1  0.26130000  0.86450000  0.02890000  1
  H  H43  1  0.26130000  0.86450000  0.47110000  1
  H  H44  1  0.29750000  0.74610000  0.63270000  1
  H  H45  1  0.29750000  0.74610000  0.86730000  1
  H  H46  1  0.29750000  0.75390000  0.13270000  1
  H  H47  1  0.29750000  0.75390000  0.36730000  1
  H  H48  1  0.39040000  0.11000000  0.12700000  1
  H  H49  1  0.39040000  0.11000000  0.37300000  1
  H  H50  1  0.39040000  0.39000000  0.62700000  1
  H  H51  1  0.39040000  0.39000000  0.87300000  1
  H  H52  1  0.49370000  0.12960000  0.62950000  1
  H  H53  1  0.49370000  0.12960000  0.87050000  1
  H  H54  1  0.49370000  0.37040000  0.12950000  1
  H  H55  1  0.49370000  0.37040000  0.37050000  1
  H  H56  1  0.50630000  0.62960000  0.62950000  1
  H  H57  1  0.50630000  0.62960000  0.87050000  1
  H  H58  1  0.50630000  0.87040000  0.12950000  1
  H  H59  1  0.50630000  0.87040000  0.37050000  1
  H  H60  1  0.60960000  0.61000000  0.12700000  1
  H  H61  1  0.60960000  0.61000000  0.37300000  1
  H  H62  1  0.60960000  0.89000000  0.62700000  1
  H  H63  1  0.60960000  0.89000000  0.87300000  1
  H  H64  1  0.70250000  0.24610000  0.63270000  1
  H  H65  1  0.70250000  0.24610000  0.86730000  1
  H  H66  1  0.70250000  0.25390000  0.13270000  1
  H  H67  1  0.70250000  0.25390000  0.36730000  1
  H  H68  1  0.73870000  0.13550000  0.52890000  1
  H  H69  1  0.73870000  0.13550000  0.97110000  1
  H  H70  1  0.73870000  0.36450000  0.02890000  1
  H  H71  1  0.73870000  0.36450000  0.47110000  1
  H  H72  1  0.81280000  0.61070000  0.00850000  1
  H  H73  1  0.81280000  0.61070000  0.49150000  1
  H  H74  1  0.81280000  0.88930000  0.50850000  1
  H  H75  1  0.81280000  0.88930000  0.99150000  1
  H  H76  1  0.83580000  0.19430000  0.00950000  1
  H  H77  1  0.83580000  0.19430000  0.49050000  1
  H  H78  1  0.83580000  0.30570000  0.50950000  1
  H  H79  1  0.83580000  0.30570000  0.99050000  1
  H  H80  1  0.84400000  0.71560000  0.11870000  1
  H  H81  1  0.84400000  0.71560000  0.38130000  1
  H  H82  1  0.84400000  0.78440000  0.61870000  1
  H  H83  1  0.84400000  0.78440000  0.88130000  1
  H  H84  1  0.92070000  0.74190000  0.55180000  1
  H  H85  1  0.92070000  0.74190000  0.94820000  1
  H  H86  1  0.92070000  0.75810000  0.05180000  1
  H  H87  1  0.92070000  0.75810000  0.44820000  1
  H  H88  1  0.92690000  0.17740000  0.52900000  1
  H  H89  1  0.92690000  0.17740000  0.97100000  1
  H  H90  1  0.92690000  0.32260000  0.02900000  1
  H  H91  1  0.92690000  0.32260000  0.47100000  1
  H  H92  1  0.98030000  0.22750000  0.07430000  1
  H  H93  1  0.98030000  0.22750000  0.42570000  1
  H  H94  1  0.98030000  0.27250000  0.57430000  1
  H  H95  1  0.98030000  0.27250000  0.92570000  1
  C  C96  1  0.02457000  0.23260000  0.04425000  1
  C  C97  1  0.02457000  0.23260000  0.45575000  1
  C  C98  1  0.02457000  0.26740000  0.54425000  1
  C  C99  1  0.02457000  0.26740000  0.95575000  1
  C  C100  1  0.04580000  0.75000000  0.00000000  1
  C  C101  1  0.04580000  0.75000000  0.50000000  1
  C  C102  1  0.11769000  0.70580000  0.51795000  1
  C  C103  1  0.11769000  0.70580000  0.98205000  1
  C  C104  1  0.11769000  0.79420000  0.01795000  1
  C  C105  1  0.11769000  0.79420000  0.48205000  1
  C  C106  1  0.15700000  0.16648000  0.05957000  1
  C  C107  1  0.15700000  0.16648000  0.44043000  1
  C  C108  1  0.15700000  0.33352000  0.55957000  1
  C  C109  1  0.15700000  0.33352000  0.94043000  1
  C  C110  1  0.19140000  0.18738000  0.10515000  1
  C  C111  1  0.19140000  0.18738000  0.39485000  1
  C  C112  1  0.19140000  0.31262000  0.60515000  1
  C  C113  1  0.19140000  0.31262000  0.89485000  1
  C  C114  1  0.21060000  0.12455000  0.03911000  1
  C  C115  1  0.21060000  0.12455000  0.46089000  1
  C  C116  1  0.21060000  0.37545000  0.53911000  1
  C  C117  1  0.21060000  0.37545000  0.96089000  1
  C  C118  1  0.26580000  0.69547000  0.57652000  1
  C  C119  1  0.26580000  0.69547000  0.92348000  1
  C  C120  1  0.26580000  0.80453000  0.07652000  1
  C  C121  1  0.26580000  0.80453000  0.42348000  1
  C  C122  1  0.27820000  0.16609000  0.13017000  1
  C  C123  1  0.27820000  0.16609000  0.36983000  1
  C  C124  1  0.27820000  0.33391000  0.63017000  1
  C  C125  1  0.27820000  0.33391000  0.86983000  1
  C  C126  1  0.29820000  0.10352000  0.06392000  1
  C  C127  1  0.29820000  0.10352000  0.43608000  1
  C  C128  1  0.29820000  0.39648000  0.56392000  1
  C  C129  1  0.29820000  0.39648000  0.93608000  1
  C  C130  1  0.29900000  0.64975000  0.55597000  1
  C  C131  1  0.29900000  0.64975000  0.94403000  1
  C  C132  1  0.29900000  0.85025000  0.05597000  1
  C  C133  1  0.29900000  0.85025000  0.44403000  1
  C  C134  1  0.32160000  0.71585000  0.61806000  1
  C  C135  1  0.32160000  0.71585000  0.88194000  1
  C  C136  1  0.32160000  0.78415000  0.11806000  1
  C  C137  1  0.32160000  0.78415000  0.38194000  1
  C  C138  1  0.32280000  0.19002000  0.17787000  1
  C  C139  1  0.32280000  0.19002000  0.32213000  1
  C  C140  1  0.32280000  0.30998000  0.67787000  1
  C  C141  1  0.32280000  0.30998000  0.82213000  1
  C  C142  1  0.33170000  0.12424000  0.10978000  1
  C  C143  1  0.33170000  0.12424000  0.39022000  1
  C  C144  1  0.33170000  0.37576000  0.60978000  1
  C  C145  1  0.33170000  0.37576000  0.89022000  1
  C  C146  1  0.36300000  0.06154000  0.03951000  1
  C  C147  1  0.36300000  0.06154000  0.46049000  1
  C  C148  1  0.36300000  0.43846000  0.53951000  1
  C  C149  1  0.36300000  0.43846000  0.96049000  1
  C  C150  1  0.38970000  0.62500000  0.57614000  1
  C  C151  1  0.38970000  0.62500000  0.92386000  1
  C  C152  1  0.38970000  0.87500000  0.07614000  1
  C  C153  1  0.38970000  0.87500000  0.42386000  1
  C  C154  1  0.41120000  0.69191000  0.63745000  1
  C  C155  1  0.41120000  0.69191000  0.86255000  1
  C  C156  1  0.41120000  0.80809000  0.13745000  1
  C  C157  1  0.41120000  0.80809000  0.36255000  1
  C  C158  1  0.42960000  0.57660000  0.55119000  1
  C  C159  1  0.42960000  0.57660000  0.94881000  1
  C  C160  1  0.42960000  0.92340000  0.05119000  1
  C  C161  1  0.42960000  0.92340000  0.44881000  1
  C  C162  1  0.44560000  0.64607000  0.61641000  1
  C  C163  1  0.44560000  0.64607000  0.88359000  1
  C  C164  1  0.44560000  0.85393000  0.11641000  1
  C  C165  1  0.44560000  0.85393000  0.38359000  1
  C  C166  1  0.47290000  0.71659000  0.68036000  1
  C  C167  1  0.47290000  0.71659000  0.81964000  1
  C  C168  1  0.47290000  0.78341000  0.18036000  1
  C  C169  1  0.47290000  0.78341000  0.31964000  1
  C  C170  1  0.52710000  0.21659000  0.68036000  1
  C  C171  1  0.52710000  0.21659000  0.81964000  1
  C  C172  1  0.52710000  0.28341000  0.18036000  1
  C  C173  1  0.52710000  0.28341000  0.31964000  1
  C  C174  1  0.55440000  0.14607000  0.61641000  1
  C  C175  1  0.55440000  0.14607000  0.88359000  1
  C  C176  1  0.55440000  0.35393000  0.11641000  1
  C  C177  1  0.55440000  0.35393000  0.38359000  1
  C  C178  1  0.57040000  0.07660000  0.55119000  1
  C  C179  1  0.57040000  0.07660000  0.94881000  1
  C  C180  1  0.57040000  0.42340000  0.05119000  1
  C  C181  1  0.57040000  0.42340000  0.44881000  1
  C  C182  1  0.58880000  0.19191000  0.63745000  1
  C  C183  1  0.58880000  0.19191000  0.86255000  1
  C  C184  1  0.58880000  0.30809000  0.13745000  1
  C  C185  1  0.58880000  0.30809000  0.36255000  1
  C  C186  1  0.61030000  0.12500000  0.57614000  1
  C  C187  1  0.61030000  0.12500000  0.92386000  1
  C  C188  1  0.61030000  0.37500000  0.07614000  1
  C  C189  1  0.61030000  0.37500000  0.42386000  1
  C  C190  1  0.63700000  0.56154000  0.03951000  1
  C  C191  1  0.63700000  0.56154000  0.46049000  1
  C  C192  1  0.63700000  0.93846000  0.53951000  1
  C  C193  1  0.63700000  0.93846000  0.96049000  1
  C  C194  1  0.66830000  0.62424000  0.10978000  1
  C  C195  1  0.66830000  0.62424000  0.39022000  1
  C  C196  1  0.66830000  0.87576000  0.60978000  1
  C  C197  1  0.66830000  0.87576000  0.89022000  1
  C  C198  1  0.67720000  0.69002000  0.17787000  1
  C  C199  1  0.67720000  0.69002000  0.32213000  1
  C  C200  1  0.67720000  0.80998000  0.67787000  1
  C  C201  1  0.67720000  0.80998000  0.82213000  1
  C  C202  1  0.67840000  0.21585000  0.61806000  1
  C  C203  1  0.67840000  0.21585000  0.88194000  1
  C  C204  1  0.67840000  0.28415000  0.11806000  1
  C  C205  1  0.67840000  0.28415000  0.38194000  1
  C  C206  1  0.70100000  0.14975000  0.55597000  1
  C  C207  1  0.70100000  0.14975000  0.94403000  1
  C  C208  1  0.70100000  0.35025000  0.05597000  1
  C  C209  1  0.70100000  0.35025000  0.44403000  1
  C  C210  1  0.70180000  0.60352000  0.06392000  1
  C  C211  1  0.70180000  0.60352000  0.43608000  1
  C  C212  1  0.70180000  0.89648000  0.56392000  1
  C  C213  1  0.70180000  0.89648000  0.93608000  1
  C  C214  1  0.72180000  0.66609000  0.13017000  1
  C  C215  1  0.72180000  0.66609000  0.36983000  1
  C  C216  1  0.72180000  0.83391000  0.63017000  1
  C  C217  1  0.72180000  0.83391000  0.86983000  1
  C  C218  1  0.73420000  0.19547000  0.57652000  1
  C  C219  1  0.73420000  0.19547000  0.92348000  1
  C  C220  1  0.73420000  0.30453000  0.07652000  1
  C  C221  1  0.73420000  0.30453000  0.42348000  1
  C  C222  1  0.78940000  0.62455000  0.03911000  1
  C  C223  1  0.78940000  0.62455000  0.46089000  1
  C  C224  1  0.78940000  0.87545000  0.53911000  1
  C  C225  1  0.78940000  0.87545000  0.96089000  1
  C  C226  1  0.80860000  0.68738000  0.10515000  1
  C  C227  1  0.80860000  0.68738000  0.39485000  1
  C  C228  1  0.80860000  0.81262000  0.60515000  1
  C  C229  1  0.80860000  0.81262000  0.89485000  1
  C  C230  1  0.84300000  0.66648000  0.05957000  1
  C  C231  1  0.84300000  0.66648000  0.44043000  1
  C  C232  1  0.84300000  0.83352000  0.55957000  1
  C  C233  1  0.84300000  0.83352000  0.94043000  1
  C  C234  1  0.88231000  0.20580000  0.51795000  1
  C  C235  1  0.88231000  0.20580000  0.98205000  1
  C  C236  1  0.88231000  0.29420000  0.01795000  1
  C  C237  1  0.88231000  0.29420000  0.48205000  1
  C  C238  1  0.95420000  0.25000000  0.00000000  1
  C  C239  1  0.95420000  0.25000000  0.50000000  1
  C  C240  1  0.97543000  0.73260000  0.04425000  1
  C  C241  1  0.97543000  0.73260000  0.45575000  1
  C  C242  1  0.97543000  0.76740000  0.54425000  1
  C  C243  1  0.97543000  0.76740000  0.95575000  1
  O  O244  1  0.07510000  0.18580000  0.02965000  1
  O  O245  1  0.07510000  0.18580000  0.47035000  1
  O  O246  1  0.07510000  0.31420000  0.52965000  1
  O  O247  1  0.07510000  0.31420000  0.97035000  1
  O  O248  1  0.18145000  0.72419000  0.55894000  1
  O  O249  1  0.18145000  0.72419000  0.94106000  1
  O  O250  1  0.18145000  0.77581000  0.05894000  1
  O  O251  1  0.18145000  0.77581000  0.44106000  1
  O  O252  1  0.27813000  0.22925000  0.19470000  1
  O  O253  1  0.27813000  0.22925000  0.30530000  1
  O  O254  1  0.27813000  0.27075000  0.69470000  1
  O  O255  1  0.27813000  0.27075000  0.80530000  1
  O  O256  1  0.32561000  0.04201000  0.50017000  1
  O  O257  1  0.32561000  0.04201000  0.99983000  1
  O  O258  1  0.32561000  0.45799000  0.00017000  1
  O  O259  1  0.32561000  0.45799000  0.49983000  1
  O  O260  1  0.38298000  0.56310000  0.51105000  1
  O  O261  1  0.38298000  0.56310000  0.98895000  1
  O  O262  1  0.38298000  0.93690000  0.01105000  1
  O  O263  1  0.38298000  0.93690000  0.48895000  1
  O  O264  1  0.40518000  0.16796000  0.19685000  1
  O  O265  1  0.40518000  0.16796000  0.30315000  1
  O  O266  1  0.40518000  0.33204000  0.69685000  1
  O  O267  1  0.40518000  0.33204000  0.80315000  1
  O  O268  1  0.43409000  0.74220000  0.19672000  1
  O  O269  1  0.43409000  0.74220000  0.30328000  1
  O  O270  1  0.43409000  0.75780000  0.69672000  1
  O  O271  1  0.43409000  0.75780000  0.80328000  1
  O  O272  1  0.44407000  0.19558000  0.69602000  1
  O  O273  1  0.44407000  0.19558000  0.80398000  1
  O  O274  1  0.44407000  0.30442000  0.19602000  1
  O  O275  1  0.44407000  0.30442000  0.30398000  1
  O  O276  1  0.45086000  0.04955000  0.06104000  1
  O  O277  1  0.45086000  0.04955000  0.43896000  1
  O  O278  1  0.45086000  0.45045000  0.56104000  1
  O  O279  1  0.45086000  0.45045000  0.93896000  1
  O  O280  1  0.49141000  0.05433000  0.57193000  1
  O  O281  1  0.49141000  0.05433000  0.92807000  1
  O  O282  1  0.49141000  0.44567000  0.07193000  1
  O  O283  1  0.49141000  0.44567000  0.42807000  1
  O  O284  1  0.50859000  0.55433000  0.57193000  1
  O  O285  1  0.50859000  0.55433000  0.92807000  1
  O  O286  1  0.50859000  0.94567000  0.07193000  1
  O  O287  1  0.50859000  0.94567000  0.42807000  1
  O  O288  1  0.54914000  0.54955000  0.06104000  1
  O  O289  1  0.54914000  0.54955000  0.43896000  1
  O  O290  1  0.54914000  0.95045000  0.56104000  1
  O  O291  1  0.54914000  0.95045000  0.93896000  1
  O  O292  1  0.55593000  0.69558000  0.69602000  1
  O  O293  1  0.55593000  0.69558000  0.80398000  1
  O  O294  1  0.55593000  0.80442000  0.19602000  1
  O  O295  1  0.55593000  0.80442000  0.30398000  1
  O  O296  1  0.56591000  0.24220000  0.19672000  1
  O  O297  1  0.56591000  0.24220000  0.30328000  1
  O  O298  1  0.56591000  0.25780000  0.69672000  1
  O  O299  1  0.56591000  0.25780000  0.80328000  1
  O  O300  1  0.59482000  0.66796000  0.19685000  1
  O  O301  1  0.59482000  0.66796000  0.30315000  1
  O  O302  1  0.59482000  0.83204000  0.69685000  1
  O  O303  1  0.59482000  0.83204000  0.80315000  1
  O  O304  1  0.61702000  0.06310000  0.51105000  1
  O  O305  1  0.61702000  0.06310000  0.98895000  1
  O  O306  1  0.61702000  0.43690000  0.01105000  1
  O  O307  1  0.61702000  0.43690000  0.48895000  1
  O  O308  1  0.67439000  0.54201000  0.50017000  1
  O  O309  1  0.67439000  0.54201000  0.99983000  1
  O  O310  1  0.67439000  0.95799000  0.00017000  1
  O  O311  1  0.67439000  0.95799000  0.49983000  1
  O  O312  1  0.72187000  0.72925000  0.19470000  1
  O  O313  1  0.72187000  0.72925000  0.30530000  1
  O  O314  1  0.72187000  0.77075000  0.69470000  1
  O  O315  1  0.72187000  0.77075000  0.80530000  1
  O  O316  1  0.81855000  0.22419000  0.55894000  1
  O  O317  1  0.81855000  0.22419000  0.94106000  1
  O  O318  1  0.81855000  0.27581000  0.05894000  1
  O  O319  1  0.81855000  0.27581000  0.44106000  1
  O  O320  1  0.92490000  0.68580000  0.02965000  1
  O  O321  1  0.92490000  0.68580000  0.47035000  1
  O  O322  1  0.92490000  0.81420000  0.52965000  1
  O  O323  1  0.92490000  0.81420000  0.97035000  1
