# generated using pymatgen
data_CuH12C14(NO2)2
_symmetry_space_group_name_H-M   'P 1'
_cell_length_a   8.86210000
_cell_length_b   13.98120000
_cell_length_c   16.39930000
_cell_angle_alpha   66.35220000
_cell_angle_beta   74.32410000
_cell_angle_gamma   71.52280000
_symmetry_Int_Tables_number   1
_chemical_formula_structural   CuH12C14(NO2)2
_chemical_formula_sum   'Cu4 H48 C56 N8 O16'
_cell_volume   1741.24450173
_cell_formula_units_Z   4
loop_
 _symmetry_equiv_pos_site_id
 _symmetry_equiv_pos_as_xyz
  1  'x, y, z'
loop_
 _atom_site_type_symbol
 _atom_site_label
 _atom_site_symmetry_multiplicity
 _atom_site_fract_x
 _atom_site_fract_y
 _atom_site_fract_z
 _atom_site_occupancy
  Cu  Cu0  1  0.00000000  0.00000000  0.00000000  1
  Cu  Cu1  1  0.00000000  0.00000000  0.50000000  1
  Cu  Cu2  1  0.00000000  0.50000000  0.50000000  1
  Cu  Cu3  1  0.50000000  0.50000000  0.00000000  1
  H  H4  1  0.01020000  0.21500000  0.36020000  1
  H  H5  1  0.02490000  0.61870000  0.75610000  1
  H  H6  1  0.03790000  0.04550000  0.65390000  1
  H  H7  1  0.05830000  0.77990000  0.87170000  1
  H  H8  1  0.06300000  0.70400000  0.48580000  1
  H  H9  1  0.07130000  0.36550000  0.15290000  1
  H  H10  1  0.11790000  0.60400000  0.83080000  1
  H  H11  1  0.22790000  0.03870000  0.08230000  1
  H  H12  1  0.25280000  0.79600000  0.01420000  1
  H  H13  1  0.26270000  0.54550000  0.15390000  1
  H  H14  1  0.29010000  0.27990000  0.37170000  1
  H  H15  1  0.29470000  0.46780000  0.64080000  1
  H  H16  1  0.34890000  0.46130000  0.41770000  1
  H  H17  1  0.37320000  0.44190000  0.72450000  1
  H  H18  1  0.37850000  0.54970000  0.64310000  1
  H  H19  1  0.39680000  0.21280000  0.87120000  1
  H  H20  1  0.39970000  0.88130000  0.74390000  1
  H  H21  1  0.40330000  0.03220000  0.85920000  1
  H  H22  1  0.41030000  0.86550000  0.65290000  1
  H  H23  1  0.41460000  0.71500000  0.86020000  1
  H  H24  1  0.42870000  0.04970000  0.14310000  1
  H  H25  1  0.44730000  0.10400000  0.33080000  1
  H  H26  1  0.46040000  0.94190000  0.22450000  1
  H  H27  1  0.48080000  0.28720000  0.62880000  1
  H  H28  1  0.51920000  0.71280000  0.37120000  1
  H  H29  1  0.53960000  0.05810000  0.77550000  1
  H  H30  1  0.55270000  0.89600000  0.66920000  1
  H  H31  1  0.57130000  0.95030000  0.85690000  1
  H  H32  1  0.58540000  0.28500000  0.13980000  1
  H  H33  1  0.58970000  0.13450000  0.34710000  1
  H  H34  1  0.59670000  0.96780000  0.14080000  1
  H  H35  1  0.60030000  0.11870000  0.25610000  1
  H  H36  1  0.60320000  0.78720000  0.12880000  1
  H  H37  1  0.62150000  0.45030000  0.35690000  1
  H  H38  1  0.62680000  0.55810000  0.27550000  1
  H  H39  1  0.65110000  0.53870000  0.58230000  1
  H  H40  1  0.70530000  0.53220000  0.35920000  1
  H  H41  1  0.70990000  0.72010000  0.62830000  1
  H  H42  1  0.73730000  0.45450000  0.84610000  1
  H  H43  1  0.74720000  0.20400000  0.98580000  1
  H  H44  1  0.77210000  0.96130000  0.91770000  1
  H  H45  1  0.88210000  0.39600000  0.16920000  1
  H  H46  1  0.92870000  0.63450000  0.84710000  1
  H  H47  1  0.93700000  0.29600000  0.51420000  1
  H  H48  1  0.94170000  0.22010000  0.12830000  1
  H  H49  1  0.96210000  0.95450000  0.34610000  1
  H  H50  1  0.97510000  0.38130000  0.24390000  1
  H  H51  1  0.98980000  0.78500000  0.63980000  1
  C  C52  1  0.00653000  0.81974000  0.67340000  1
  C  C53  1  0.02400000  0.64400000  0.80280000  1
  C  C54  1  0.02492000  0.76156000  0.76220000  1
  C  C55  1  0.03481000  0.97334000  0.68144000  1
  C  C56  1  0.04756000  0.81558000  0.81130000  1
  C  C57  1  0.05429000  0.92182000  0.77080000  1
  C  C58  1  0.08358000  0.98274000  0.82070000  1
  C  C59  1  0.11298000  0.48274000  0.32070000  1
  C  C60  1  0.16429000  0.67144000  0.46138000  1
  C  C61  1  0.25309000  0.42182000  0.27080000  1
  C  C62  1  0.25604000  0.83022000  0.44550000  1
  C  C63  1  0.28112000  0.97026000  0.08070000  1
  C  C64  1  0.28657000  0.72504000  0.43222000  1
  C  C65  1  0.29711000  0.82856000  0.03862000  1
  C  C66  1  0.31041000  0.47334000  0.18144000  1
  C  C67  1  0.32556000  0.31558000  0.31130000  1
  C  C68  1  0.33208000  0.52974000  0.41930000  1
  C  C69  1  0.38235000  0.47500000  0.66010000  1
  C  C70  1  0.42257000  0.92076000  0.11590000  1
  C  C71  1  0.43532000  0.67796000  0.39240000  1
  C  C72  1  0.44383000  0.77496000  0.06778000  1
  C  C73  1  0.45132000  0.26156000  0.26220000  1
  C  C74  1  0.45923000  0.57924000  0.38410000  1
  C  C75  1  0.46824000  0.33022000  0.94550000  1
  C  C76  1  0.47080000  0.85600000  0.69720000  1
  C  C77  1  0.48255000  0.97500000  0.16010000  1
  C  C78  1  0.49432000  0.17796000  0.89240000  1
  C  C79  1  0.49967000  0.68026000  0.82660000  1
  C  C80  1  0.50033000  0.31974000  0.17340000  1
  C  C81  1  0.50568000  0.82204000  0.10760000  1
  C  C82  1  0.51745000  0.02500000  0.83990000  1
  C  C83  1  0.52920000  0.14400000  0.30280000  1
  C  C84  1  0.53176000  0.66978000  0.05450000  1
  C  C85  1  0.54077000  0.42076000  0.61590000  1
  C  C86  1  0.54868000  0.73844000  0.73780000  1
  C  C87  1  0.55617000  0.22504000  0.93222000  1
  C  C88  1  0.56468000  0.32204000  0.60760000  1
  C  C89  1  0.57743000  0.07924000  0.88410000  1
  C  C90  1  0.61765000  0.52500000  0.33990000  1
  C  C91  1  0.66792000  0.47026000  0.58070000  1
  C  C92  1  0.67444000  0.68442000  0.68870000  1
  C  C93  1  0.68959000  0.52666000  0.81856000  1
  C  C94  1  0.70289000  0.17144000  0.96138000  1
  C  C95  1  0.71343000  0.27496000  0.56778000  1
  C  C96  1  0.71888000  0.02974000  0.91930000  1
  C  C97  1  0.74396000  0.16978000  0.55450000  1
  C  C98  1  0.74691000  0.57818000  0.72920000  1
  C  C99  1  0.83571000  0.32856000  0.53862000  1
  C  C100  1  0.88702000  0.51726000  0.67930000  1
  C  C101  1  0.91642000  0.01726000  0.17930000  1
  C  C102  1  0.94571000  0.07818000  0.22920000  1
  C  C103  1  0.95244000  0.18442000  0.18870000  1
  C  C104  1  0.96519000  0.02666000  0.31856000  1
  C  C105  1  0.97508000  0.23844000  0.23780000  1
  C  C106  1  0.97600000  0.35600000  0.19720000  1
  C  C107  1  0.99347000  0.18026000  0.32660000  1
  N  N108  1  0.01153000  0.92297000  0.63297000  1
  N  N109  1  0.18506000  0.57470000  0.45598000  1
  N  N110  1  0.21574000  0.92530000  0.04402000  1
  N  N111  1  0.43253000  0.42297000  0.13297000  1
  N  N112  1  0.56747000  0.57703000  0.86703000  1
  N  N113  1  0.78426000  0.07470000  0.95598000  1
  N  N114  1  0.81494000  0.42530000  0.54402000  1
  N  N115  1  0.98847000  0.07703000  0.36703000  1
  O  O116  1  0.03622000  0.57109000  0.27727000  1
  O  O117  1  0.07165000  0.93586000  0.90504000  1
  O  O118  1  0.08745000  0.43586000  0.40504000  1
  O  O119  1  0.11201000  0.86490000  0.47788000  1
  O  O120  1  0.11542000  0.07109000  0.77727000  1
  O  O121  1  0.33300000  0.37560000  0.92440000  1
  O  O122  1  0.36700000  0.87560000  0.42440000  1
  O  O123  1  0.45479000  0.63510000  0.02212000  1
  O  O124  1  0.54521000  0.36490000  0.97788000  1
  O  O125  1  0.63300000  0.12440000  0.57560000  1
  O  O126  1  0.66700000  0.62440000  0.07560000  1
  O  O127  1  0.88458000  0.92891000  0.22273000  1
  O  O128  1  0.88799000  0.13510000  0.52212000  1
  O  O129  1  0.91255000  0.56414000  0.59496000  1
  O  O130  1  0.92835000  0.06414000  0.09496000  1
  O  O131  1  0.96378000  0.42891000  0.72273000  1
