# generated using pymatgen
data_Zn3H58C90(N2O3)4
_symmetry_space_group_name_H-M   'P 1'
_cell_length_a   20.99017044
_cell_length_b   20.99017044
_cell_length_c   40.27560396
_cell_angle_alpha   105.03113820
_cell_angle_beta   105.03113820
_cell_angle_gamma   90.27215179
_symmetry_Int_Tables_number   1
_chemical_formula_structural   Zn3H58C90(N2O3)4
_chemical_formula_sum   'Zn12 H232 C360 N32 O48'
_cell_volume   16502.00948467
_cell_formula_units_Z   4
loop_
 _symmetry_equiv_pos_site_id
 _symmetry_equiv_pos_as_xyz
  1  'x, y, z'
loop_
 _atom_site_type_symbol
 _atom_site_label
 _atom_site_symmetry_multiplicity
 _atom_site_fract_x
 _atom_site_fract_y
 _atom_site_fract_z
 _atom_site_occupancy
  C  C0  1  0.91434000  0.64214000  0.99968000  1
  C  C1  1  0.02049000  0.44969000  0.99698000  1
  C  C2  1  0.31437000  0.03057000  0.98794000  1
  C  C3  1  0.07019000  0.42719000  0.98018000  1
  C  C4  1  0.37343000  0.11763000  0.97626000  1
  C  C5  1  0.95999000  0.45859000  0.97538000  1
  C  C6  1  0.53600000  0.96520000  0.96400000  1
  C  C7  1  0.88531000  0.60971000  0.96042000  1
  C  C8  1  0.28445000  0.00785000  0.95010000  1
  C  C9  1  0.82192000  0.58572000  0.94824000  1
  C  C10  1  0.49022000  0.99622000  0.94524000  1
  C  C11  1  0.05961000  0.41821000  0.94402000  1
  C  C12  1  0.56663000  0.91543000  0.94346000  1
  C  C13  1  0.34547000  0.09347000  0.94034000  1
  C  C14  1  0.94590000  0.44590000  0.94020000  1
  C  C15  1  0.92520000  0.60480000  0.93760000  1
  C  C16  1  0.29963000  0.03823000  0.92746000  1
  C  C17  1  0.99767000  0.42807000  0.92374000  1
  C  C18  1  0.79336000  0.55516000  0.91212000  1
  C  C19  1  0.47178000  0.98298000  0.90796000  1
  C  C20  1  0.54863000  0.90323000  0.90786000  1
  C  C21  1  0.89823000  0.57363000  0.89946000  1
  C  C22  1  0.50690000  0.93530000  0.89060000  1
  C  C23  1  0.83259000  0.54919000  0.88878000  1
  C  C24  1  0.98616000  0.41876000  0.88252000  1
  C  C25  1  0.29449000  0.90269000  0.87858000  1
  C  C26  1  0.22713000  0.12033000  0.87686000  1
  C  C27  1  0.25171000  0.94911000  0.87202000  1
  C  C28  1  0.26172000  0.06652000  0.86924000  1
  C  C29  1  0.24320000  0.38280000  0.86040000  1
  C  C30  1  0.27429000  0.83749000  0.85858000  1
  C  C31  1  0.21938000  0.16538000  0.85736000  1
  C  C32  1  0.17367000  0.38487000  0.85594000  1
  C  C33  1  0.80250000  0.51350000  0.84980000  1
  C  C34  1  0.55370000  0.46610000  0.84960000  1
  C  C35  1  0.51606000  0.02886000  0.84552000  1
  C  C36  1  0.34101000  0.41081000  0.84462000  1
  C  C37  1  0.19213000  0.93173000  0.84326000  1
  C  C38  1  0.29352000  0.05652000  0.84244000  1
  C  C39  1  0.27067000  0.41547000  0.84194000  1
  C  C40  1  0.61300000  0.48220000  0.84080000  1
  C  C41  1  0.43961000  0.41641000  0.83942000  1
  C  C42  1  0.43945000  0.80725000  0.83830000  1
  C  C43  1  0.47913000  0.96813000  0.83346000  1
  C  C44  1  0.47596000  0.85196000  0.83192000  1
  C  C45  1  0.22220000  0.82020000  0.83080000  1
  C  C46  1  0.25196000  0.15516000  0.82912000  1
  C  C47  1  0.50605000  0.07465000  0.82850000  1
  C  C48  1  0.49758000  0.42578000  0.82616000  1
  C  C49  1  0.17597000  0.87097000  0.82374000  1
  C  C50  1  0.28999000  0.09939000  0.82258000  1
  C  C51  1  0.22769000  0.44869000  0.81938000  1
  C  C52  1  0.42846000  0.74006000  0.81852000  1
  C  C53  1  0.22828000  0.69928000  0.81816000  1
  C  C54  1  0.16386000  0.44606000  0.81612000  1
  C  C55  1  0.24693000  0.20393000  0.80706000  1
  C  C56  1  0.20721000  0.74941000  0.80642000  1
  C  C57  1  0.42980000  0.95660000  0.80140000  1
  C  C58  1  0.50367000  0.83147000  0.80094000  1
  C  C59  1  0.30138000  0.22218000  0.79756000  1
  C  C60  1  0.18733000  0.22913000  0.79666000  1
  C  C61  1  0.45894000  0.06514000  0.79508000  1
  C  C62  1  0.21608000  0.63188000  0.79456000  1
  C  C63  1  0.49904000  0.40104000  0.79308000  1
  C  C64  1  0.95929000  0.48549000  0.78938000  1
  C  C65  1  0.95852000  0.29312000  0.78904000  1
  C  C66  1  0.45078000  0.71758000  0.78836000  1
  C  C67  1  0.55883000  0.41643000  0.78386000  1
  C  C68  1  0.41955000  0.00395000  0.78190000  1
  C  C69  1  0.48828000  0.76948000  0.78156000  1
  C  C70  1  0.49506000  0.16006000  0.77712000  1
  C  C71  1  0.29634000  0.26634000  0.77608000  1
  C  C72  1  0.17983000  0.27203000  0.77386000  1
  C  C73  1  0.44911000  0.11251000  0.77382000  1
  C  C74  1  0.90291000  0.17891000  0.77142000  1
  C  C75  1  0.94705000  0.53945000  0.77110000  1
  C  C76  1  0.16997000  0.73877000  0.76974000  1
  C  C77  1  0.99997000  0.57477000  0.76834000  1
  C  C78  1  0.44195000  0.65195000  0.76810000  1
  C  C79  1  0.94665000  0.22145000  0.76650000  1
  C  C80  1  0.23553000  0.29013000  0.76446000  1
  C  C81  1  0.67715000  0.56355000  0.76190000  1
  C  C82  1  0.17977000  0.62197000  0.76154000  1
  C  C83  1  0.38448000  0.61228000  0.76136000  1
  C  C84  1  0.48816000  0.20556000  0.75892000  1
  C  C85  1  0.73843000  0.34563000  0.75826000  1
  C  C86  1  0.88435000  0.55535000  0.75730000  1
  C  C87  1  0.89222000  0.11402000  0.75304000  1
  C  C88  1  0.66117000  0.67617000  0.75154000  1
  C  C89  1  0.48979000  0.62259000  0.75118000  1
  C  C90  1  0.98861000  0.62141000  0.74882000  1
  C  C91  1  0.15963000  0.67463000  0.74846000  1
  C  C92  1  0.38918000  0.11098000  0.74696000  1
  C  C93  1  0.37705000  0.54805000  0.74270000  1
  C  C94  1  0.23017000  0.33737000  0.74174000  1
  C  C95  1  0.97924000  0.19664000  0.74108000  1
  C  C96  1  0.87312000  0.60092000  0.73864000  1
  C  C97  1  0.66823000  0.61043000  0.73846000  1
  C  C98  1  0.16525000  0.55165000  0.73810000  1
  C  C99  1  0.72107000  0.27567000  0.73554000  1
  C  C100  1  0.43015000  0.20495000  0.73350000  1
  C  C101  1  0.92385000  0.63385000  0.73190000  1
  C  C102  1  0.48163000  0.55643000  0.73166000  1
  C  C103  1  0.65023000  0.71903000  0.73026000  1
  C  C104  1  0.42595000  0.51835000  0.72890000  1
  C  C105  1  0.38149000  0.15749000  0.72858000  1
  C  C106  1  0.92529000  0.08869000  0.72618000  1
  C  C107  1  0.65597000  0.24817000  0.72614000  1
  C  C108  1  0.77026000  0.24026000  0.72392000  1
  C  C109  1  0.96794000  0.13294000  0.72288000  1
  C  C110  1  0.95672000  0.73792000  0.71844000  1
  C  C111  1  0.88765000  0.97205000  0.71810000  1
  C  C112  1  0.02497000  0.38257000  0.71614000  1
  C  C113  1  0.91242000  0.67922000  0.71164000  1
  C  C114  1  0.41948000  0.25408000  0.71096000  1
  C  C115  1  0.41991000  0.44611000  0.71062000  1
  C  C116  1  0.95596000  0.35796000  0.70692000  1
  C  C117  1  0.67152000  0.58732000  0.70544000  1
  C  C118  1  0.91386000  0.02006000  0.70492000  1
  C  C119  1  0.64067000  0.18247000  0.70334000  1
  C  C120  1  0.75382000  0.17462000  0.70244000  1
  C  C121  1  0.95273000  0.78053000  0.69906000  1
  C  C122  1  0.87840000  0.90520000  0.69860000  1
  C  C123  1  0.65079000  0.69299000  0.69358000  1
  C  C124  1  0.68987000  0.14687000  0.69294000  1
  C  C125  1  0.59774000  0.37994000  0.68388000  1
  C  C126  1  0.66012000  0.63112000  0.68184000  1
  C  C127  1  0.85994000  0.67154000  0.68148000  1
  C  C128  1  0.65831000  0.37931000  0.68062000  1
  C  C129  1  0.71741000  0.02681000  0.67742000  1
  C  C130  1  0.60223000  0.79723000  0.67626000  1
  C  C131  1  0.92142000  0.34962000  0.67384000  1
  C  C132  1  0.92755000  0.99615000  0.67150000  1
  C  C133  1  0.67284000  0.07604000  0.67088000  1
  C  C134  1  0.64140000  0.73940000  0.66920000  1
  C  C135  1  0.89404000  0.77004000  0.66808000  1
  C  C136  1  0.89570167  0.88470167  0.66660333  1
  C  C137  1  0.85115000  0.71895000  0.66170000  1
  C  C138  1  0.85019000  0.32699000  0.66058000  1
  C  C139  1  0.02220000  0.39140000  0.65920000  1
  C  C140  1  0.67873000  0.32353000  0.65806000  1
  C  C141  1  0.70108000  0.96408000  0.65756000  1
  C  C142  1  0.59887000  0.83847000  0.65674000  1
  C  C143  1  0.74639000  0.31619000  0.65538000  1
  C  C144  1  0.92054000  0.93334000  0.65448000  1
  C  C145  1  0.95410000  0.36650000  0.65040000  1
  C  C146  1  0.20270000  0.41370000  0.65020000  1
  C  C147  1  0.56773000  0.27893000  0.64406000  1
  C  C148  1  0.61202000  0.05802000  0.64264000  1
  C  C149  1  0.66571000  0.72891000  0.64142000  1
  C  C150  1  0.63280000  0.27240000  0.63960000  1
  C  C151  1  0.64248000  0.94728000  0.63076000  1
  C  C152  1  0.62969000  0.82709000  0.62798000  1
  C  C153  1  0.60027000  0.99347000  0.62314000  1
  C  C154  1  0.66591000  0.77411000  0.62142000  1
  C  C155  1  0.35364000  0.28624000  0.61748000  1
  C  C156  1  0.19381000  0.41041000  0.61122000  1
  C  C157  1  0.86630000  0.79470000  0.60940000  1
  C  C158  1  0.24877000  0.42417000  0.60054000  1
  C  C159  1  0.89077000  0.74537000  0.59214000  1
  C  C160  1  0.81382000  0.82502000  0.59204000  1
  C  C161  1  0.13124000  0.39304000  0.58788000  1
  C  C162  1  0.32393000  0.25433000  0.57626000  1
  C  C163  1  0.62217000  0.86077000  0.57254000  1
  C  C164  1  0.23760000  0.41720000  0.56240000  1
  C  C165  1  0.25570000  0.25570000  0.55980000  1
  C  C166  1  0.65513000  0.90313000  0.55966000  1
  C  C167  1  0.87317000  0.72197000  0.55654000  1
  C  C168  1  0.36559000  0.22419000  0.55598000  1
  C  C169  1  0.79498000  0.80098000  0.55476000  1
  C  C170  1  0.12368000  0.38748000  0.55176000  1
  C  C171  1  0.58435000  0.80775000  0.54990000  1
  C  C172  1  0.17489000  0.39929000  0.53958000  1
  C  C173  1  0.82200000  0.75120000  0.53600000  1
  C  C174  1  0.23461000  0.23321000  0.52462000  1
  C  C175  1  0.64717000  0.89137000  0.52374000  1
  C  C176  1  0.34001000  0.19701000  0.51982000  1
  C  C177  1  0.57643000  0.79263000  0.51206000  1
  C  C178  1  0.27351000  0.20271000  0.50302000  1
  C  C179  1  0.16466000  0.39246000  0.50032000  1
  C  C180  1  0.60754000  0.83534000  0.49968000  1
  C  C181  1  0.79729000  0.72649000  0.49698000  1
  C  C182  1  0.20737000  0.42357000  0.48794000  1
  C  C183  1  0.80299000  0.65999000  0.48018000  1
  C  C184  1  0.10863000  0.35283000  0.47626000  1
  C  C185  1  0.76679000  0.76539000  0.47538000  1
  C  C186  1  0.24880000  0.17800000  0.46400000  1
  C  C187  1  0.60071000  0.82511000  0.46042000  1
  C  C188  1  0.19225000  0.41565000  0.45010000  1
  C  C189  1  0.61252000  0.87632000  0.44824000  1
  C  C190  1  0.19902000  0.20502000  0.44524000  1
  C  C191  1  0.77581000  0.63441000  0.44402000  1
  C  C192  1  0.27803000  0.12683000  0.44346000  1
  C  C193  1  0.09687000  0.34487000  0.44034000  1
  C  C194  1  0.74430000  0.74430000  0.44020000  1
  C  C195  1  0.58280000  0.76240000  0.43760000  1
  C  C196  1  0.13923000  0.37783000  0.42746000  1
  C  C197  1  0.74567000  0.67607000  0.42374000  1
  C  C198  1  0.60696000  0.86876000  0.41212000  1
  C  C199  1  0.17498000  0.18618000  0.40796000  1
  C  C200  1  0.25463000  0.10923000  0.40786000  1
  C  C201  1  0.57583000  0.75123000  0.39946000  1
  C  C202  1  0.20530000  0.13370000  0.39060000  1
  C  C203  1  0.58959000  0.80619000  0.38878000  1
  C  C204  1  0.71376000  0.64636000  0.38252000  1
  C  C205  1  0.22589000  0.33409000  0.37858000  1
  C  C206  1  0.00653000  0.39973000  0.37686000  1
  C  C207  1  0.17291000  0.37031000  0.37202000  1
  C  C208  1  0.05272000  0.35752000  0.36924000  1
  C  C209  1  0.72760000  0.36720000  0.36040000  1
  C  C210  1  0.27109000  0.33429000  0.35858000  1
  C  C211  1  0.94198000  0.38798000  0.35736000  1
  C  C212  1  0.72107000  0.43227000  0.35594000  1
  C  C213  1  0.58630000  0.79730000  0.34980000  1
  C  C214  1  0.63350000  0.04590000  0.34960000  1
  C  C215  1  0.06666000  0.07946000  0.34552000  1
  C  C216  1  0.68381000  0.25361000  0.34462000  1
  C  C217  1  0.16153000  0.40113000  0.34326000  1
  C  C218  1  0.03592000  0.29892000  0.34244000  1
  C  C219  1  0.67647000  0.32127000  0.34194000  1
  C  C220  1  0.60860000  0.97780000  0.34080000  1
  C  C221  1  0.67301000  0.14981000  0.33942000  1
  C  C222  1  0.28105000  0.14885000  0.33830000  1
  C  C223  1  0.11533000  0.10433000  0.33346000  1
  C  C224  1  0.22996000  0.10596000  0.33192000  1
  C  C225  1  0.26060000  0.35860000  0.33080000  1
  C  C226  1  0.92396000  0.32716000  0.32912000  1
  C  C227  1  0.00385000  0.07245000  0.32850000  1
  C  C228  1  0.65038000  0.07858000  0.32616000  1
  C  C229  1  0.20277000  0.39777000  0.32374000  1
  C  C230  1  0.97319000  0.28259000  0.32258000  1
  C  C231  1  0.62069000  0.34169000  0.31938000  1
  C  C232  1  0.32846000  0.14006000  0.31852000  1
  C  C233  1  0.36888000  0.33988000  0.31816000  1
  C  C234  1  0.62006000  0.40226000  0.31612000  1
  C  C235  1  0.85313000  0.31013000  0.30706000  1
  C  C236  1  0.30701000  0.34921000  0.30642000  1
  C  C237  1  0.09480000  0.12160000  0.30140000  1
  C  C238  1  0.21947000  0.04727000  0.30094000  1
  C  C239  1  0.82538000  0.24618000  0.29756000  1
  C  C240  1  0.81753000  0.35933000  0.29666000  1
  C  C241  1  0.97994000  0.08614000  0.29508000  1
  C  C242  1  0.41268000  0.32848000  0.29456000  1
  C  C243  1  0.64204000  0.04404000  0.29308000  1
  C  C244  1  0.55389000  0.58009000  0.28938000  1
  C  C245  1  0.74592000  0.58052000  0.28904000  1
  C  C246  1  0.32078000  0.08758000  0.28836000  1
  C  C247  1  0.61743000  0.97503000  0.28386000  1
  C  C248  1  0.02795000  0.11235000  0.28190000  1
  C  C249  1  0.26208000  0.04328000  0.28156000  1
  C  C250  1  0.86706000  0.03206000  0.27712000  1
  C  C251  1  0.75974000  0.22974000  0.27608000  1
  C  C252  1  0.75183000  0.34403000  0.27386000  1
  C  C253  1  0.91131000  0.07471000  0.27382000  1
  C  C254  1  0.84251000  0.61851000  0.27142000  1
  C  C255  1  0.48165000  0.57405000  0.27110000  1
  C  C256  1  0.28097000  0.34977000  0.26974000  1
  C  C257  1  0.44357000  0.51837000  0.26834000  1
  C  C258  1  0.36615000  0.07615000  0.26810000  1
  C  C259  1  0.79505000  0.56985000  0.26650000  1
  C  C260  1  0.72433000  0.27893000  0.26446000  1
  C  C261  1  0.44835000  0.83475000  0.26190000  1
  C  C262  1  0.38957000  0.33177000  0.26154000  1
  C  C263  1  0.39908000  0.12688000  0.26136000  1
  C  C264  1  0.80336000  0.02076000  0.25892000  1
  C  C265  1  0.66263000  0.76983000  0.25826000  1
  C  C266  1  0.45195000  0.62295000  0.25730000  1
  C  C267  1  0.88902000  0.61082000  0.25304000  1
  C  C268  1  0.32537000  0.84037000  0.25154000  1
  C  C269  1  0.37859000  0.01139000  0.25118000  1
  C  C270  1  0.37741000  0.51021000  0.24882000  1
  C  C271  1  0.32383000  0.33883000  0.24846000  1
  C  C272  1  0.88598000  0.10778000  0.24696000  1
  C  C273  1  0.44465000  0.11565000  0.24270000  1
  C  C274  1  0.65437000  0.26157000  0.24174000  1
  C  C275  1  0.79444000  0.51184000  0.24108000  1
  C  C276  1  0.38772000  0.61552000  0.23864000  1
  C  C277  1  0.37803000  0.82023000  0.23846000  1
  C  C278  1  0.43645000  0.32285000  0.23810000  1
  C  C279  1  0.70987000  0.76447000  0.23554000  1
  C  C280  1  0.77855000  0.05335000  0.23350000  1
  C  C281  1  0.34805000  0.55805000  0.23190000  1
  C  C282  1  0.42523000  0.00003000  0.23166000  1
  C  C283  1  0.26123000  0.83003000  0.23026000  1
  C  C284  1  0.46055000  0.05295000  0.22890000  1
  C  C285  1  0.82109000  0.09709000  0.22858000  1
  C  C286  1  0.88749000  0.55089000  0.22618000  1
  C  C287  1  0.72797000  0.82017000  0.22614000  1
  C  C288  1  0.73366000  0.70366000  0.22392000  1
  C  C289  1  0.83994000  0.50494000  0.22288000  1
  C  C290  1  0.23052000  0.51172000  0.21844000  1
  C  C291  1  0.99605000  0.58045000  0.21810000  1
  C  C292  1  0.58357000  0.44117000  0.21614000  1
  C  C293  1  0.28242000  0.54922000  0.21164000  1
  C  C294  1  0.70688000  0.04148000  0.21096000  1
  C  C295  1  0.51451000  0.04071000  0.21062000  1
  C  C296  1  0.59896000  0.50096000  0.20692000  1
  C  C297  1  0.36812000  0.78392000  0.20544000  1
  C  C298  1  0.93486000  0.54106000  0.20492000  1
  C  C299  1  0.77087000  0.81267000  0.20334000  1
  C  C300  1  0.77782000  0.69862000  0.20244000  1
  C  C301  1  0.16853000  0.49633000  0.19906000  1
  C  C302  1  0.04340000  0.57020000  0.19860000  1
  C  C303  1  0.25059000  0.79279000  0.19358000  1
  C  C304  1  0.79607000  0.75307000  0.19294000  1
  C  C305  1  0.55394000  0.83614000  0.18388000  1
  C  C306  1  0.30072000  0.77172000  0.18184000  1
  C  C307  1  0.25994000  0.57154000  0.18148000  1
  C  C308  1  0.55131000  0.77231000  0.18062000  1
  C  C309  1  0.90061000  0.71001000  0.17742000  1
  C  C310  1  0.12903000  0.82403000  0.17626000  1
  C  C311  1  0.57422000  0.50242000  0.17384000  1
  C  C312  1  0.92535000  0.49395000  0.17150000  1
  C  C313  1  0.84484000  0.74804000  0.17088000  1
  C  C314  1  0.17980000  0.77780000  0.16920000  1
  C  C315  1  0.14804000  0.52404000  0.16808000  1
  C  C316  1  0.03187000  0.52087000  0.16654000  1
  C  C317  1  0.19275000  0.56055000  0.16170000  1
  C  C318  1  0.58359000  0.56039000  0.16058000  1
  C  C319  1  0.51780000  0.38700000  0.15920000  1
  C  C320  1  0.58453000  0.72933000  0.15806000  1
  C  C321  1  0.94348000  0.70648000  0.15756000  1
  C  C322  1  0.06827000  0.80787000  0.15674000  1
  C  C323  1  0.58919000  0.65899000  0.15538000  1
  C  C324  1  0.97114000  0.48394000  0.15448000  1
  C  C325  1  0.53390000  0.44630000  0.15040000  1
  C  C326  1  0.48650000  0.19750000  0.15020000  1
  C  C327  1  0.61513000  0.82633000  0.14406000  1
  C  C328  1  0.83462000  0.78062000  0.14264000  1
  C  C329  1  0.16251000  0.72571000  0.14142000  1
  C  C330  1  0.61720000  0.75680000  0.13960000  1
  C  C331  1  0.93348000  0.73828000  0.13076000  1
  C  C332  1  0.05089000  0.74829000  0.12798000  1
  C  C333  1  0.87967000  0.77287000  0.12314000  1
  C  C334  1  0.09731000  0.70551000  0.12142000  1
  C  C335  1  0.58124000  0.01384000  0.11748000  1
  C  C336  1  0.45081000  0.16741000  0.11122000  1
  C  C337  1  0.06470000  0.49310000  0.10940000  1
  C  C338  1  0.42637000  0.10177000  0.10054000  1
  C  C339  1  0.09677000  0.45137000  0.09214000  1
  C  C340  1  0.01702000  0.52822000  0.09204000  1
  C  C341  1  0.44484000  0.20664000  0.08788000  1
  C  C342  1  0.57193000  0.00233000  0.07626000  1
  C  C343  1  0.96177000  0.70037000  0.07254000  1
  C  C344  1  0.39520000  0.07480000  0.06240000  1
  C  C345  1  0.55410000  0.05410000  0.05980000  1
  C  C346  1  0.90653000  0.65453000  0.05966000  1
  C  C347  1  0.08457000  0.43337000  0.05654000  1
  C  C348  1  0.58179000  0.94039000  0.05598000  1
  C  C349  1  0.00378000  0.50978000  0.05476000  1
  C  C350  1  0.41428000  0.17808000  0.05176000  1
  C  C351  1  0.99215000  0.71555000  0.04990000  1
  C  C352  1  0.39029000  0.11469000  0.03958000  1
  C  C353  1  0.03480000  0.46400000  0.03600000  1
  C  C354  1  0.54141000  0.04001000  0.02462000  1
  C  C355  1  0.88237000  0.62657000  0.02374000  1
  C  C356  1  0.57281000  0.92981000  0.01982000  1
  C  C357  1  0.96943000  0.68563000  0.01206000  1
  C  C358  1  0.55031000  0.97951000  0.00302000  1
  C  C359  1  0.35786000  0.08566000  0.00032000  1
  H  H360  1  0.99200000  0.69560000  0.99620000  1
  H  H361  1  0.11160000  0.41820000  0.99400000  1
  H  H362  1  0.92640000  0.47480000  0.98660000  1
  H  H363  1  0.40330000  0.15610000  0.98500000  1
  H  H364  1  0.79570000  0.58970000  0.96460000  1
  H  H365  1  0.46880000  0.02980000  0.95820000  1
  H  H366  1  0.59930000  0.89110000  0.95480000  1
  H  H367  1  0.97020000  0.62180000  0.94680000  1
  H  H368  1  0.25310000  0.97050000  0.94100000  1
  H  H369  1  0.09420000  0.40540000  0.93300000  1
  H  H370  1  0.90230000  0.44870000  0.92640000  1
  H  H371  1  0.35720000  0.11420000  0.92420000  1
  H  H372  1  0.74820000  0.53880000  0.90380000  1
  H  H373  1  0.20780000  0.12680000  0.89620000  1
  H  H374  1  0.33620000  0.91400000  0.89600000  1
  H  H375  1  0.43790000  0.00450000  0.89540000  1
  H  H376  1  0.56830000  0.86850000  0.89460000  1
  H  H377  1  0.92410000  0.57030000  0.88300000  1
  H  H378  1  0.26920000  0.35940000  0.87560000  1
  H  H379  1  0.55240000  0.48440000  0.87360000  1
  H  H380  1  0.15340000  0.36320000  0.86900000  1
  H  H381  1  0.55010000  0.03750000  0.86720000  1
  H  H382  1  0.29990000  0.80350000  0.86540000  1
  H  H383  1  0.19360000  0.20200000  0.86220000  1
  H  H384  1  0.41940000  0.82140000  0.85740000  1
  H  H385  1  0.65010000  0.50930000  0.85720000  1
  H  H386  1  0.25210000  0.70630000  0.84240000  1
  H  H387  1  0.53140000  0.11600000  0.83900000  1
  H  H388  1  0.16390000  0.96530000  0.83840000  1
  H  H389  1  0.31800000  0.01880000  0.83800000  1
  H  H390  1  0.40540000  0.70980000  0.82600000  1
  H  H391  1  0.24550000  0.47310000  0.80660000  1
  H  H392  1  0.34260000  0.20480000  0.80560000  1
  H  H393  1  0.13570000  0.85970000  0.80540000  1
  H  H394  1  0.15090000  0.21810000  0.80460000  1
  H  H395  1  0.31250000  0.09270000  0.80440000  1
  H  H396  1  0.23400000  0.59580000  0.80300000  1
  H  H397  1  0.13630000  0.46690000  0.80000000  1
  H  H398  1  0.53100000  0.86100000  0.79520000  1
  H  H399  1  0.53650000  0.16130000  0.79400000  1
  H  H400  1  0.31490000  0.47430000  0.79320000  1
  H  H401  1  0.40270000  0.91610000  0.79260000  1
  H  H402  1  0.38470000  0.47630000  0.78880000  1
  H  H403  1  0.87890000  0.19550000  0.78840000  1
  H  H404  1  0.04390000  0.56730000  0.77960000  1
  H  H405  1  0.66380000  0.69280000  0.77620000  1
  H  H406  1  0.46260000  0.37420000  0.77580000  1
  H  H407  1  0.34900000  0.63100000  0.77020000  1
  H  H408  1  0.33400000  0.27960000  0.76980000  1
  H  H409  1  0.13820000  0.28800000  0.76540000  1
  H  H410  1  0.52330000  0.23830000  0.76360000  1
  H  H411  1  0.84800000  0.53380000  0.76100000  1
  H  H412  1  0.50350000  0.75710000  0.76060000  1
  H  H413  1  0.15320000  0.77460000  0.76060000  1
  H  H414  1  0.56000000  0.39700000  0.76000000  1
  H  H415  1  0.38620000  0.99500000  0.75980000  1
  H  H416  1  0.86270000  0.08550000  0.75800000  1
  H  H417  1  0.52850000  0.64850000  0.75320000  1
  H  H418  1  0.02530000  0.64530000  0.74680000  1
  H  H419  1  0.35470000  0.07750000  0.74200000  1
  H  H420  1  0.87640000  0.98520000  0.74020000  1
  H  H421  1  0.05000000  0.38700000  0.74000000  1
  H  H422  1  0.99290000  0.74650000  0.73940000  1
  H  H423  1  0.64260000  0.76400000  0.73940000  1
  H  H424  1  0.33700000  0.52280000  0.73900000  1
  H  H425  1  0.00970000  0.22470000  0.73640000  1
  H  H426  1  0.62280000  0.27260000  0.73460000  1
  H  H427  1  0.81420000  0.25980000  0.73020000  1
  H  H428  1  0.82880000  0.61080000  0.72980000  1
  H  H429  1  0.93680000  0.34840000  0.72420000  1
  H  H430  1  0.13760000  0.66660000  0.72380000  1
  H  H431  1  0.51430000  0.53770000  0.72040000  1
  H  H432  1  0.34050000  0.15710000  0.71160000  1
  H  H433  1  0.84590000  0.43750000  0.71120000  1
  H  H434  1  0.86010000  0.87350000  0.70740000  1
  H  H435  1  0.77170000  0.43110000  0.70680000  1
  H  H436  1  0.99250000  0.11730000  0.70600000  1
  H  H437  1  0.98580000  0.81580000  0.70480000  1
  H  H438  1  0.58630000  0.41690000  0.70000000  1
  H  H439  1  0.68100000  0.54280000  0.69700000  1
  H  H440  1  0.75810000  0.03830000  0.69560000  1
  H  H441  1  0.59630000  0.16350000  0.69540000  1
  H  H442  1  0.58030000  0.80430000  0.69460000  1
  H  H443  1  0.78700000  0.14920000  0.69440000  1
  H  H444  1  0.68890000  0.41650000  0.69340000  1
  H  H445  1  0.82940000  0.63380000  0.67400000  1
  H  H446  1  0.73000000  0.93080000  0.66200000  1
  H  H447  1  0.57550000  0.87690000  0.66160000  1
  H  H448  1  0.94240000  0.02700000  0.66100000  1
  H  H449  1  0.65970000  0.61390000  0.65760000  1
  H  H450  1  0.04290000  0.40210000  0.64280000  1
  H  H451  1  0.81200000  0.71400000  0.64260000  1
  H  H452  1  0.58140000  0.08980000  0.63780000  1
  H  H453  1  0.68450000  0.68810000  0.63460000  1
  H  H454  1  0.93290000  0.92030000  0.63280000  1
  H  H455  1  0.53440000  0.24420000  0.63100000  1
  H  H456  1  0.92880000  0.36080000  0.62640000  1
  H  H457  1  0.64360000  0.23380000  0.62440000  1
  H  H458  1  0.29110000  0.43730000  0.61700000  1
  H  H459  1  0.92370000  0.72390000  0.60540000  1
  H  H460  1  0.79250000  0.85910000  0.60460000  1
  H  H461  1  0.69020000  0.76800000  0.60400000  1
  H  H462  1  0.56160000  0.98060000  0.60380000  1
  H  H463  1  0.09440000  0.38500000  0.59620000  1
  H  H464  1  0.68300000  0.94000000  0.57580000  1
  H  H465  1  0.22590000  0.27230000  0.57360000  1
  H  H466  1  0.41120000  0.22240000  0.56700000  1
  H  H467  1  0.56210000  0.77950000  0.55900000  1
  H  H468  1  0.27340000  0.42500000  0.55320000  1
  H  H469  1  0.89450000  0.68630000  0.54520000  1
  H  H470  1  0.76060000  0.82160000  0.54180000  1
  H  H471  1  0.08110000  0.37510000  0.53540000  1
  H  H472  1  0.66830000  0.92110000  0.51500000  1
  H  H473  1  0.18980000  0.23820000  0.51340000  1
  H  H474  1  0.36760000  0.17420000  0.50600000  1
  H  H475  1  0.24580000  0.44940000  0.50380000  1
  H  H476  1  0.55060000  0.75420000  0.49620000  1
  H  H477  1  0.82580000  0.63240000  0.49400000  1
  H  H478  1  0.76180000  0.81020000  0.48660000  1
  H  H479  1  0.07890000  0.33170000  0.48500000  1
  H  H480  1  0.62490000  0.91890000  0.46460000  1
  H  H481  1  0.17840000  0.23940000  0.45820000  1
  H  H482  1  0.31370000  0.10550000  0.45480000  1
  H  H483  1  0.57500000  0.72660000  0.44680000  1
  H  H484  1  0.22050000  0.43790000  0.44100000  1
  H  H485  1  0.77760000  0.58880000  0.43300000  1
  H  H486  1  0.72770000  0.77410000  0.42640000  1
  H  H487  1  0.06000000  0.31700000  0.42420000  1
  H  H488  1  0.61500000  0.90560000  0.40380000  1
  H  H489  1  0.01940000  0.43840000  0.39620000  1
  H  H490  1  0.23200000  0.30980000  0.39600000  1
  H  H491  1  0.14090000  0.20750000  0.39540000  1
  H  H492  1  0.27610000  0.07630000  0.39460000  1
  H  H493  1  0.56270000  0.70890000  0.38300000  1
  H  H494  1  0.76620000  0.35640000  0.37560000  1
  H  H495  1  0.63920000  0.07120000  0.37360000  1
  H  H496  1  0.75580000  0.46560000  0.36900000  1
  H  H497  1  0.07970000  0.06710000  0.36720000  1
  H  H498  1  0.31190000  0.31550000  0.36540000  1
  H  H499  1  0.91020000  0.41860000  0.36220000  1
  H  H500  1  0.28600000  0.18800000  0.35740000  1
  H  H501  1  0.59790000  0.95710000  0.35720000  1
  H  H502  1  0.38610000  0.34030000  0.34240000  1
  H  H503  1  0.97300000  0.05760000  0.33900000  1
  H  H504  1  0.12310000  0.42450000  0.33840000  1
  H  H505  1  0.06920000  0.27000000  0.33800000  1
  H  H506  1  0.36620000  0.17060000  0.32600000  1
  H  H507  1  0.58350000  0.31110000  0.30660000  1
  H  H508  1  0.85080000  0.21300000  0.30560000  1
  H  H509  1  0.19570000  0.41970000  0.30540000  1
  H  H510  1  0.83650000  0.40370000  0.30460000  1
  H  H511  1  0.96170000  0.24190000  0.30440000  1
  H  H512  1  0.45720000  0.31900000  0.30300000  1
  H  H513  1  0.58310000  0.41370000  0.30000000  1
  H  H514  1  0.18420000  0.01420000  0.29520000  1
  H  H515  1  0.88270000  0.00750000  0.29400000  1
  H  H516  1  0.56890000  0.22830000  0.29320000  1
  H  H517  1  0.12650000  0.13990000  0.29260000  1
  H  H518  1  0.56250000  0.15410000  0.28880000  1
  H  H519  1  0.84290000  0.65950000  0.28840000  1
  H  H520  1  0.46230000  0.48570000  0.27960000  1
  H  H521  1  0.33340000  0.86240000  0.27620000  1
  H  H522  1  0.65160000  0.06320000  0.27580000  1
  H  H523  1  0.38920000  0.17120000  0.27020000  1
  H  H524  1  0.74020000  0.18580000  0.26980000  1
  H  H525  1  0.72740000  0.37720000  0.26540000  1
  H  H526  1  0.77530000  0.99030000  0.26360000  1
  H  H527  1  0.47720000  0.66300000  0.26100000  1
  H  H528  1  0.25350000  0.00710000  0.26060000  1
  H  H529  1  0.23600000  0.35740000  0.26060000  1
  H  H530  1  0.61300000  0.95000000  0.26000000  1
  H  H531  1  0.01480000  0.12360000  0.25980000  1
  H  H532  1  0.92250000  0.64530000  0.25800000  1
  H  H533  1  0.35470000  0.97470000  0.25320000  1
  H  H534  1  0.35150000  0.47150000  0.24680000  1
  H  H535  1  0.91450000  0.13730000  0.24200000  1
  H  H536  1  0.00500000  0.61380000  0.24020000  1
  H  H537  1  0.60300000  0.44000000  0.24000000  1
  H  H538  1  0.22540000  0.84680000  0.23940000  1
  H  H539  1  0.24290000  0.49650000  0.23940000  1
  H  H540  1  0.46620000  0.15200000  0.23900000  1
  H  H541  1  0.76170000  0.47670000  0.23640000  1
  H  H542  1  0.71200000  0.86180000  0.23460000  1
  H  H543  1  0.72040000  0.66600000  0.23020000  1
  H  H544  1  0.36900000  0.65100000  0.22980000  1
  H  H545  1  0.62580000  0.53740000  0.22420000  1
  H  H546  1  0.30720000  0.33620000  0.22380000  1
  H  H547  1  0.43270000  0.95610000  0.22040000  1
  H  H548  1  0.80450000  0.12110000  0.21160000  1
  H  H549  1  0.52370000  0.61530000  0.21120000  1
  H  H550  1  0.08390000  0.59730000  0.20740000  1
  H  H551  1  0.52570000  0.68510000  0.20680000  1
  H  H552  1  0.83870000  0.46350000  0.20600000  1
  H  H553  1  0.13900000  0.46900000  0.20480000  1
  H  H554  1  0.53310000  0.86370000  0.20000000  1
  H  H555  1  0.40420000  0.76600000  0.19700000  1
  H  H556  1  0.90730000  0.68750000  0.19560000  1
  H  H557  1  0.78190000  0.84910000  0.19540000  1
  H  H558  1  0.14030000  0.86430000  0.19460000  1
  H  H559  1  0.79520000  0.65740000  0.19440000  1
  H  H560  1  0.52690000  0.75450000  0.19340000  1
  H  H561  1  0.29020000  0.59460000  0.17400000  1
  H  H562  1  0.98120000  0.68200000  0.16200000  1
  H  H563  1  0.03470000  0.83610000  0.16160000  1
  H  H564  1  0.88400000  0.46860000  0.16100000  1
  H  H565  1  0.29370000  0.74790000  0.15760000  1
  H  H566  1  0.49070000  0.34990000  0.14280000  1
  H  H567  1  0.17860000  0.58060000  0.14260000  1
  H  H568  1  0.79800000  0.80640000  0.13780000  1
  H  H569  1  0.19650000  0.70010000  0.13460000  1
  H  H570  1  0.96250000  0.44990000  0.13280000  1
  H  H571  1  0.63680000  0.84660000  0.13100000  1
  H  H572  1  0.51560000  0.44760000  0.12640000  1
  H  H573  1  0.64060000  0.73080000  0.12440000  1
  H  H574  1  0.42970000  0.07590000  0.11700000  1
  H  H575  1  0.13150000  0.43170000  0.10540000  1
  H  H576  1  0.99550000  0.56210000  0.10460000  1
  H  H577  1  0.08600000  0.66380000  0.10400000  1
  H  H578  1  0.87320000  0.79220000  0.10380000  1
  H  H579  1  0.46120000  0.25180000  0.09620000  1
  H  H580  1  0.88580000  0.64280000  0.07580000  1
  H  H581  1  0.55130000  0.09770000  0.07360000  1
  H  H582  1  0.59460000  0.90580000  0.06700000  1
  H  H583  1  0.02950000  0.74690000  0.05900000  1
  H  H584  1  0.37820000  0.02980000  0.05320000  1
  H  H585  1  0.10890000  0.40070000  0.04520000  1
  H  H586  1  0.97020000  0.53120000  0.04180000  1
  H  H587  1  0.41030000  0.20430000  0.03540000  1
  H  H588  1  0.84390000  0.59670000  0.01500000  1
  H  H589  1  0.52520000  0.07360000  0.01340000  1
  H  H590  1  0.58180000  0.88840000  0.00600000  1
  H  H591  1  0.30440000  0.00800000  0.00380000  1
  N  N592  1  0.26598000  0.01638000  0.89016000  1
  N  N593  1  0.38119000  0.38379000  0.86758000  1
  N  N594  1  0.44365000  0.38785000  0.86450000  1
  N  N595  1  0.49205000  0.91985000  0.85210000  1
  N  N596  1  0.13618000  0.41578000  0.83412000  1
  N  N597  1  0.37746000  0.43146000  0.82606000  1
  N  N598  1  0.60871000  0.45231000  0.80402000  1
  N  N599  1  0.35625000  0.46485000  0.79930000  1
  N  N600  1  0.80695000  0.41555000  0.70070000  1
  N  N601  1  0.05469000  0.39829000  0.69598000  1
  N  N602  1  0.80140000  0.35540000  0.67394000  1
  N  N603  1  0.55206000  0.33166000  0.66588000  1
  N  N604  1  0.88995000  0.81775000  0.64790000  1
  N  N605  1  0.82915000  0.27335000  0.63550000  1
  N  N606  1  0.76361000  0.26621000  0.63242000  1
  N  N607  1  0.62582000  0.87622000  0.60984000  1
  N  N608  1  0.12378000  0.37418000  0.39016000  1
  N  N609  1  0.73379000  0.23639000  0.36758000  1
  N  N610  1  0.72665000  0.17085000  0.36450000  1
  N  N611  1  0.18225000  0.11005000  0.35210000  1
  N  N612  1  0.66834000  0.44794000  0.33412000  1
  N  N613  1  0.64460000  0.19860000  0.32606000  1
  N  N614  1  0.60171000  0.94531000  0.30402000  1
  N  N615  1  0.58445000  0.19305000  0.29930000  1
  N  N616  1  0.53515000  0.64375000  0.20070000  1
  N  N617  1  0.54769000  0.39129000  0.19598000  1
  N  N618  1  0.56854000  0.62254000  0.17394000  1
  N  N619  1  0.58422000  0.86382000  0.16588000  1
  N  N620  1  0.08015000  0.50795000  0.14790000  1
  N  N621  1  0.61215000  0.55635000  0.13550000  1
  N  N622  1  0.61621000  0.61881000  0.13242000  1
  N  N623  1  0.98362000  0.73402000  0.10984000  1
  O  O624  1  0.03324000  0.40464000  0.87246000  1
  O  O625  1  0.93090000  0.42890000  0.86660000  1
  O  O626  1  0.74032000  0.50192000  0.84104000  1
  O  O627  1  0.83852000  0.49912000  0.82898000  1
  O  O628  1  0.01671000  0.48771000  0.81096000  1
  O  O629  1  0.91549000  0.31509000  0.80450000  1
  O  O630  1  0.66861000  0.58981000  0.79502000  1
  O  O631  1  0.00952000  0.32432000  0.78874000  1
  O  O632  1  0.91335000  0.44335000  0.78366000  1
  O  O633  1  0.69216000  0.37416000  0.76798000  1
  O  O634  1  0.79608000  0.37048000  0.76448000  1
  O  O635  1  0.68985000  0.50785000  0.75186000  1
  O  O636  1  0.18799000  0.50599000  0.74814000  1
  O  O637  1  0.28160000  0.35600000  0.73552000  1
  O  O638  1  0.17418000  0.35618000  0.73202000  1
  O  O639  1  0.37969000  0.40969000  0.71634000  1
  O  O640  1  0.47078000  0.28558000  0.71126000  1
  O  O641  1  0.12359000  0.54479000  0.70498000  1
  O  O642  1  0.36099000  0.26059000  0.69550000  1
  O  O643  1  0.45575000  0.42675000  0.68904000  1
  O  O644  1  0.25954000  0.42014000  0.67102000  1
  O  O645  1  0.14928000  0.41088000  0.65896000  1
  O  O646  1  0.31430000  0.31230000  0.63340000  1
  O  O647  1  0.41078000  0.28218000  0.62754000  1
  O  O648  1  0.71782000  0.58922000  0.37246000  1
  O  O649  1  0.68770000  0.68570000  0.36660000  1
  O  O650  1  0.58912000  0.85072000  0.34104000  1
  O  O651  1  0.57986000  0.74046000  0.32898000  1
  O  O652  1  0.57325000  0.54425000  0.31096000  1
  O  O653  1  0.73941000  0.63901000  0.30450000  1
  O  O654  1  0.45521000  0.87641000  0.29502000  1
  O  O655  1  0.71442000  0.52922000  0.28874000  1
  O  O656  1  0.59031000  0.62031000  0.28366000  1
  O  O657  1  0.64382000  0.82582000  0.26798000  1
  O  O658  1  0.64400000  0.71840000  0.26448000  1
  O  O659  1  0.49401000  0.81201000  0.25186000  1
  O  O660  1  0.49215000  0.31015000  0.24814000  1
  O  O661  1  0.62952000  0.20392000  0.23552000  1
  O  O662  1  0.62584000  0.30784000  0.23202000  1
  O  O663  1  0.55665000  0.08665000  0.21634000  1
  O  O664  1  0.67568000  0.99048000  0.21126000  1
  O  O665  1  0.41019000  0.33139000  0.20498000  1
  O  O666  1  0.68491000  0.08451000  0.19550000  1
  O  O667  1  0.51229000  0.98329000  0.18904000  1
  O  O668  1  0.50088000  0.16148000  0.17102000  1
  O  O669  1  0.49808000  0.25968000  0.15896000  1
  O  O670  1  0.57110000  0.06910000  0.13340000  1
  O  O671  1  0.59536000  0.96676000  0.12754000  1
  Zn  Zn672  1  0.03646000  0.40746000  0.82534000  1
  Zn  Zn673  1  0.86760000  0.40340000  0.81394000  1
  Zn  Zn674  1  0.69309000  0.46849000  0.79104000  1
  Zn  Zn675  1  0.15205000  0.42745000  0.70896000  1
  Zn  Zn676  1  0.30366000  0.33946000  0.68606000  1
  Zn  Zn677  1  0.46112000  0.33212000  0.67466000  1
  Zn  Zn678  1  0.66788000  0.53888000  0.32534000  1
  Zn  Zn679  1  0.66054000  0.69634000  0.31394000  1
  Zn  Zn680  1  0.57255000  0.84795000  0.29104000  1
  Zn  Zn681  1  0.53151000  0.30691000  0.20896000  1
  Zn  Zn682  1  0.59660000  0.13240000  0.18606000  1
  Zn  Zn683  1  0.59254000  0.96354000  0.17466000  1
