# generated using pymatgen
data_Mn3H39C42N8O9
_symmetry_space_group_name_H-M   'P 1'
_cell_length_a   17.21510000
_cell_length_b   30.20780000
_cell_length_c   30.20781097
_cell_angle_alpha   85.34288720
_cell_angle_beta   73.44442998
_cell_angle_gamma   73.44450000
_symmetry_Int_Tables_number   1
_chemical_formula_structural   Mn3H39C42N8O9
_chemical_formula_sum   'Mn24 H312 C336 N64 O72'
_cell_volume   14433.51160610
_cell_formula_units_Z   8
loop_
 _symmetry_equiv_pos_site_id
 _symmetry_equiv_pos_as_xyz
  1  'x, y, z'
loop_
 _atom_site_type_symbol
 _atom_site_label
 _atom_site_symmetry_multiplicity
 _atom_site_fract_x
 _atom_site_fract_y
 _atom_site_fract_z
 _atom_site_occupancy
  Mn  Mn0  1  0.13844000  0.91651000  0.85865000  1
  Mn  Mn1  1  0.99709000  0.64135000  0.91651000  1
  Mn  Mn2  1  0.27887000  0.97125000  0.62021000  1
  Mn  Mn3  1  0.89908000  0.87979000  0.97125000  1
  Mn  Mn4  1  0.44505000  0.14135000  0.41651000  1
  Mn  Mn5  1  0.79182000  0.42057000  0.00089000  1
  Mn  Mn6  1  0.71239000  0.00089000  0.07943000  1
  Mn  Mn7  1  0.20729000  0.50089000  0.57943000  1
  Mn  Mn8  1  0.87033000  0.52875000  0.87979000  1
  Mn  Mn9  1  0.24988000  0.37979000  0.47125000  1
  Mn  Mn10  1  0.21328000  0.07943000  0.49911000  1
  Mn  Mn11  1  0.91360000  0.58349000  0.64135000  1
  Mn  Mn12  1  0.08640000  0.41651000  0.35865000  1
  Mn  Mn13  1  0.78672000  0.92057000  0.50089000  1
  Mn  Mn14  1  0.75012000  0.62021000  0.52875000  1
  Mn  Mn15  1  0.12967000  0.47125000  0.12021000  1
  Mn  Mn16  1  0.79271000  0.49911000  0.42057000  1
  Mn  Mn17  1  0.28761000  0.99911000  0.92057000  1
  Mn  Mn18  1  0.20818000  0.57943000  0.99911000  1
  Mn  Mn19  1  0.55495000  0.85865000  0.58349000  1
  Mn  Mn20  1  0.10092000  0.12021000  0.02875000  1
  Mn  Mn21  1  0.72113000  0.02875000  0.37979000  1
  Mn  Mn22  1  0.00291000  0.35865000  0.08349000  1
  Mn  Mn23  1  0.86156000  0.08349000  0.14135000  1
  H  H24  1  0.60380000  0.86900000  0.39540000  1
  H  H25  1  0.76960000  0.57130000  0.22850000  1
  H  H26  1  0.54880000  0.34190000  0.44430000  1
  H  H27  1  0.10770000  0.54080000  0.88140000  1
  H  H28  1  0.29450000  0.42920000  0.69420000  1
  H  H29  1  0.86530000  0.92600000  0.12240000  1
  H  H30  1  0.97160000  0.24940000  0.01240000  1
  H  H31  1  0.10880000  0.42010000  0.87470000  1
  H  H32  1  0.07580000  0.75610000  0.90570000  1
  H  H33  1  0.35570000  0.67880000  0.62400000  1
  H  H34  1  0.06560000  0.05080000  0.90920000  1
  H  H35  1  0.02520000  0.40920000  0.94920000  1
  H  H36  1  0.86820000  0.63100000  0.10460000  1
  H  H37  1  0.72100000  0.01240000  0.25060000  1
  H  H38  1  0.59640000  0.92010000  0.37470000  1
  H  H39  1  0.88560000  0.50140000  0.08320000  1
  H  H40  1  0.39120000  0.83800000  0.57660000  1
  H  H41  1  0.31740000  0.11980000  0.64220000  1
  H  H42  1  0.54870000  0.48290000  0.40890000  1
  H  H43  1  0.81640000  0.30420000  0.13480000  1
  H  H44  1  0.63810000  0.97170000  0.30170000  1
  H  H45  1  0.18750000  0.90720000  0.74980000  1
  H  H46  1  0.07940000  0.38020000  0.85780000  1
  H  H47  1  0.38360000  0.09080000  0.55080000  1
  H  H48  1  0.45900000  0.94250000  0.47410000  1
  H  H49  1  0.76890000  0.48690000  0.16050000  1
  H  H50  1  0.66810000  0.09430000  0.25610000  1
  H  H51  1  0.44200000  0.48600000  0.47880000  1
  H  H52  1  0.04040000  0.14220000  0.88020000  1
  H  H53  1  0.38780000  0.69470000  0.53190000  1
  H  H54  1  0.77920000  0.53440000  0.13520000  1
  H  H55  1  0.98770000  0.37760000  0.92600000  1
  H  H56  1  0.93980000  0.19830000  0.97170000  1
  H  H57  1  0.25440000  0.63540000  0.65560000  1
  H  H58  1  0.12220000  0.69290000  0.78590000  1
  H  H59  1  0.55470000  0.43660000  0.34820000  1
  H  H60  1  0.87560000  0.55750000  0.02590000  1
  H  H61  1  0.33830000  0.77970000  0.56310000  1
  H  H62  1  0.85150000  0.11860000  0.04080000  1
  H  H63  1  0.97110000  0.12530000  0.92010000  1
  H  H64  1  0.42190000  0.86970000  0.46830000  1
  H  H65  1  0.08850000  0.47170000  0.80170000  1
  H  H66  1  0.29240000  0.70910000  0.59650000  1
  H  H67  1  0.47020000  0.99860000  0.41680000  1
  H  H68  1  0.88700000  0.08320000  0.99860000  1
  H  H69  1  0.69670000  0.28730000  0.18430000  1
  H  H70  1  0.68490000  0.21410000  0.19290000  1
  H  H71  1  0.36820000  0.96340000  0.50940000  1
  H  H72  1  0.93310000  0.02590000  0.94250000  1
  H  H73  1  0.45150000  0.31210000  0.41750000  1
  H  H74  1  0.99920000  0.10460000  0.86900000  1
  H  H75  1  0.21560000  0.56960000  0.65220000  1
  H  H76  1  0.34790000  0.63280000  0.51960000  1
  H  H77  1  0.29130000  0.12240000  0.57400000  1
  H  H78  1  0.47010000  0.04080000  0.38140000  1
  H  H79  1  0.73160000  0.50410000  0.11730000  1
  H  H80  1  0.93730000  0.75020000  0.90720000  1
  H  H81  1  0.87760000  0.99060000  0.96340000  1
  H  H82  1  0.56940000  0.92870000  0.27150000  1
  H  H83  1  0.33260000  0.88880000  0.50520000  1
  H  H84  1  0.11900000  0.68430000  0.71270000  1
  H  H85  1  0.84100000  0.53660000  0.99060000  1
  H  H86  1  0.30260000  0.56640000  0.51880000  1
  H  H87  1  0.46350000  0.39200000  0.35780000  1
  H  H88  1  0.13100000  0.91750000  0.68790000  1
  H  H89  1  0.62060000  0.13480000  0.19580000  1
  H  H90  1  0.44880000  0.96560000  0.36480000  1
  H  H91  1  0.40530000  0.25020000  0.40720000  1
  H  H92  1  0.35150000  0.91150000  0.45490000  1
  H  H93  1  0.96780000  0.92340000  0.83800000  1
  H  H94  1  0.75990000  0.63030000  0.03170000  1
  H  H95  1  0.17870000  0.85780000  0.60800000  1
  H  H96  1  0.71480000  0.34780000  0.06960000  1
  H  H97  1  0.81360000  0.13520000  0.96560000  1
  H  H98  1  0.58210000  0.92920000  0.19420000  1
  H  H99  1  0.84090000  0.22850000  0.92870000  1
  H  H100  1  0.75580000  0.16050000  0.01310000  1
  H  H101  1  0.01600000  0.51240000  0.75060000  1
  H  H102  1  0.71790000  0.58850000  0.04510000  1
  H  H103  1  0.89020000  0.03170000  0.86970000  1
  H  H104  1  0.41630000  0.01310000  0.33950000  1
  H  H105  1  0.61020000  0.34440000  0.13540000  1
  H  H106  1  0.04880000  0.63480000  0.69580000  1
  H  H107  1  0.98150000  0.59430000  0.75610000  1
  H  H108  1  0.81890000  0.81210000  0.91750000  1
  H  H109  1  0.35300000  0.99590000  0.38270000  1
  H  H110  1  0.73570000  0.11730000  0.99590000  1
  H  H111  1  0.80580000  0.66200000  0.92340000  1
  H  H112  1  0.83780000  0.99480000  0.88880000  1
  H  H113  1  0.72660000  0.61120000  0.99480000  1
  H  H114  1  0.23340000  0.25060000  0.48760000  1
  H  H115  1  0.80640000  0.04510000  0.91150000  1
  H  H116  1  0.56260000  0.06960000  0.15220000  1
  H  H117  1  0.08630000  0.42600000  0.62240000  1
  H  H118  1  0.49850000  0.40350000  0.20910000  1
  H  H119  1  0.77630000  0.30580000  0.92920000  1
  H  H120  1  0.63100000  0.48120000  0.06640000  1
  H  H121  1  0.48400000  0.18430000  0.21270000  1
  H  H122  1  0.39900000  0.19290000  0.28590000  1
  H  H123  1  0.06280000  0.35780000  0.61980000  1
  H  H124  1  0.90140000  0.93690000  0.77970000  1
  H  H125  1  0.26240000  0.25610000  0.40570000  1
  H  H126  1  0.27860000  0.49480000  0.38880000  1
  H  H127  1  0.00690000  0.94430000  0.65810000  1
  H  H128  1  0.38200000  0.43690000  0.27970000  1
  H  H129  1  0.09710000  0.84820000  0.56340000  1
  H  H130  1  0.97970000  0.87600000  0.67880000  1
  H  H131  1  0.51930000  0.48040000  0.13280000  1
  H  H132  1  0.23700000  0.54510000  0.41150000  1
  H  H133  1  0.15110000  0.61730000  0.49590000  1
  H  H134  1  0.78670000  0.89200000  0.85780000  1
  H  H135  1  0.46550000  0.37600000  0.17880000  1
  H  H136  1  0.10980000  0.30170000  0.52830000  1
  H  H137  1  0.16840000  0.49060000  0.46340000  1
  H  H138  1  0.61220000  0.06640000  0.01880000  1
  H  H139  1  0.25540000  0.19580000  0.36520000  1
  H  H140  1  0.68110000  0.72030000  0.93690000  1
  H  H141  1  0.02560000  0.44920000  0.59080000  1
  H  H142  1  0.91970000  0.96810000  0.69470000  1
  H  H143  1  0.41750000  0.46810000  0.19470000  1
  H  H144  1  0.17860000  0.01880000  0.43360000  1
  H  H145  1  0.45460000  0.13540000  0.15560000  1
  H  H146  1  0.66500000  0.84190000  0.94430000  1
  H  H147  1  0.27080000  0.42340000  0.33800000  1
  H  H148  1  0.97280000  0.39540000  0.63100000  1
  H  H149  1  0.90810000  0.71410000  0.69290000  1
  H  H150  1  0.88890000  0.90350000  0.70910000  1
  H  H151  1  0.01650000  0.37470000  0.57990000  1
  H  H152  1  0.84450000  0.59280000  0.75020000  1
  H  H153  1  0.07920000  0.97880000  0.51400000  1
  H  H154  1  0.07060000  0.66050000  0.51310000  1
  H  H155  1  0.61440000  0.80530000  0.96810000  1
  H  H156  1  0.01130000  0.19420000  0.57080000  1
  H  H157  1  0.20840000  0.53170000  0.36970000  1
  H  H158  1  0.59320000  0.98600000  0.97880000  1
  H  H159  1  0.99810000  0.27150000  0.57130000  1
  H  H160  1  0.13220000  0.15220000  0.43040000  1
  H  H161  1  0.04240000  0.90890000  0.51710000  1
  H  H162  1  0.57200000  0.52120000  0.98600000  1
  H  H163  1  0.49130000  0.34820000  0.06340000  1
  H  H164  1  0.08560000  0.63520000  0.46560000  1
  H  H165  1  0.39070000  0.44430000  0.15810000  1
  H  H166  1  0.53160000  0.40890000  0.01710000  1
  H  H167  1  0.73640000  0.58250000  0.81210000  1
  H  H168  1  0.91000000  0.84440000  0.63540000  1
  H  H169  1  0.09850000  0.52590000  0.44250000  1
  H  H170  1  0.64450000  0.64220000  0.89200000  1
  H  H171  1  0.65850000  0.82120000  0.87600000  1
  H  H172  1  0.44050000  0.01710000  0.09110000  1
  H  H173  1  0.98910000  0.61860000  0.54080000  1
  H  H174  1  0.03120000  0.58320000  0.49860000  1
  H  H175  1  0.49970000  0.13280000  0.01960000  1
  H  H176  1  0.83170000  0.78730000  0.68430000  1
  H  H177  1  0.66050000  0.93660000  0.84820000  1
  H  H178  1  0.59800000  0.79090000  0.90350000  1
  H  H179  1  0.86750000  0.98040000  0.63280000  1
  H  H180  1  0.13250000  0.01960000  0.36720000  1
  H  H181  1  0.40200000  0.20910000  0.09650000  1
  H  H182  1  0.33950000  0.06340000  0.15180000  1
  H  H183  1  0.16830000  0.21270000  0.31570000  1
  H  H184  1  0.50030000  0.86720000  0.98040000  1
  H  H185  1  0.96880000  0.41680000  0.50140000  1
  H  H186  1  0.01090000  0.38140000  0.45920000  1
  H  H187  1  0.55950000  0.98290000  0.90890000  1
  H  H188  1  0.34150000  0.17880000  0.12400000  1
  H  H189  1  0.35550000  0.35780000  0.10800000  1
  H  H190  1  0.90150000  0.47410000  0.55750000  1
  H  H191  1  0.09000000  0.15560000  0.36460000  1
  H  H192  1  0.26360000  0.41750000  0.18790000  1
  H  H193  1  0.46840000  0.59110000  0.98290000  1
  H  H194  1  0.60930000  0.55570000  0.84190000  1
  H  H195  1  0.91440000  0.36480000  0.53440000  1
  H  H196  1  0.50870000  0.65180000  0.93660000  1
  H  H197  1  0.42800000  0.47880000  0.01400000  1
  H  H198  1  0.95760000  0.09110000  0.48290000  1
  H  H199  1  0.86780000  0.84780000  0.56960000  1
  H  H200  1  0.00190000  0.72850000  0.42870000  1
  H  H201  1  0.40680000  0.01400000  0.02120000  1
  H  H202  1  0.79160000  0.46830000  0.63030000  1
  H  H203  1  0.98870000  0.80580000  0.42920000  1
  H  H204  1  0.38560000  0.19470000  0.03190000  1
  H  H205  1  0.92940000  0.33950000  0.48690000  1
  H  H206  1  0.92080000  0.02120000  0.48600000  1
  H  H207  1  0.15550000  0.40720000  0.24980000  1
  H  H208  1  0.98350000  0.62530000  0.42010000  1
  H  H209  1  0.11110000  0.09650000  0.29090000  1
  H  H210  1  0.09190000  0.28590000  0.30710000  1
  H  H211  1  0.02720000  0.60460000  0.36900000  1
  H  H212  1  0.72920000  0.57660000  0.66200000  1
  H  H213  1  0.33500000  0.15810000  0.05570000  1
  H  H214  1  0.54540000  0.86460000  0.84440000  1
  H  H215  1  0.82140000  0.98120000  0.56640000  1
  H  H216  1  0.58250000  0.53190000  0.80530000  1
  H  H217  1  0.08030000  0.03190000  0.30530000  1
  H  H218  1  0.97440000  0.55080000  0.40920000  1
  H  H219  1  0.31890000  0.27970000  0.06310000  1
  H  H220  1  0.74460000  0.80420000  0.63480000  1
  H  H221  1  0.38780000  0.93360000  0.98120000  1
  H  H222  1  0.83160000  0.50940000  0.53660000  1
  H  H223  1  0.89020000  0.69830000  0.47170000  1
  H  H224  1  0.53450000  0.62400000  0.82120000  1
  H  H225  1  0.21330000  0.10800000  0.14220000  1
  H  H226  1  0.84890000  0.38270000  0.50410000  1
  H  H227  1  0.76300000  0.45490000  0.58850000  1
  H  H228  1  0.48070000  0.51960000  0.86720000  1
  H  H229  1  0.02030000  0.12400000  0.32120000  1
  H  H230  1  0.90290000  0.15180000  0.43660000  1
  H  H231  1  0.61800000  0.56310000  0.72030000  1
  H  H232  1  0.99310000  0.05570000  0.34190000  1
  H  H233  1  0.72140000  0.50520000  0.61120000  1
  H  H234  1  0.73760000  0.74390000  0.59430000  1
  H  H235  1  0.09860000  0.06310000  0.22030000  1
  H  H236  1  0.93720000  0.64220000  0.38020000  1
  H  H237  1  0.60100000  0.80710000  0.71410000  1
  H  H238  1  0.51600000  0.81570000  0.78730000  1
  H  H239  1  0.36900000  0.51880000  0.93360000  1
  H  H240  1  0.22370000  0.69420000  0.07080000  1
  H  H241  1  0.50150000  0.59650000  0.79090000  1
  H  H242  1  0.91370000  0.57400000  0.37760000  1
  H  H243  1  0.43740000  0.93040000  0.84780000  1
  H  H244  1  0.19360000  0.95490000  0.08850000  1
  H  H245  1  0.76660000  0.74940000  0.51240000  1
  H  H246  1  0.27340000  0.38880000  0.00520000  1
  H  H247  1  0.16220000  0.00520000  0.11120000  1
  H  H248  1  0.19420000  0.33800000  0.07660000  1
  H  H249  1  0.26430000  0.88270000  0.00410000  1
  H  H250  1  0.64700000  0.00410000  0.61730000  1
  H  H251  1  0.18110000  0.18790000  0.08250000  1
  H  H252  1  0.01850000  0.40570000  0.24390000  1
  H  H253  1  0.95120000  0.36520000  0.30420000  1
  H  H254  1  0.38980000  0.65560000  0.86460000  1
  H  H255  1  0.58370000  0.98690000  0.66050000  1
  H  H256  1  0.10980000  0.96830000  0.13030000  1
  H  H257  1  0.28210000  0.41150000  0.95490000  1
  H  H258  1  0.98400000  0.48760000  0.24940000  1
  H  H259  1  0.24420000  0.83950000  0.98690000  1
  H  H260  1  0.15910000  0.77150000  0.07130000  1
  H  H261  1  0.41790000  0.07080000  0.80580000  1
  H  H262  1  0.18640000  0.86480000  0.03440000  1
  H  H263  1  0.28520000  0.65220000  0.93040000  1
  H  H264  1  0.82130000  0.14220000  0.39200000  1
  H  H265  1  0.24010000  0.36970000  0.96830000  1
  H  H266  1  0.03220000  0.07660000  0.16200000  1
  H  H267  1  0.64850000  0.08850000  0.54510000  1
  H  H268  1  0.59470000  0.74980000  0.59280000  1
  H  H269  1  0.55120000  0.03440000  0.63520000  1
  H  H270  1  0.37940000  0.86520000  0.80420000  1
  H  H271  1  0.86900000  0.08250000  0.31210000  1
  H  H272  1  0.53650000  0.60800000  0.64220000  1
  H  H273  1  0.69740000  0.43360000  0.48120000  1
  H  H274  1  0.15900000  0.46340000  0.00940000  1
  H  H275  1  0.88100000  0.31570000  0.28730000  1
  H  H276  1  0.66740000  0.11120000  0.49480000  1
  H  H277  1  0.43060000  0.07130000  0.72850000  1
  H  H278  1  0.12240000  0.00940000  0.03660000  1
  H  H279  1  0.06270000  0.24980000  0.09280000  1
  H  H280  1  0.26840000  0.49590000  0.88270000  1
  H  H281  1  0.52990000  0.95920000  0.61860000  1
  H  H282  1  0.70870000  0.87760000  0.42600000  1
  H  H283  1  0.65210000  0.36720000  0.48040000  1
  H  H284  1  0.78440000  0.43040000  0.34780000  1
  H  H285  1  0.00080000  0.89540000  0.13100000  1
  H  H286  1  0.54850000  0.68790000  0.58250000  1
  H  H287  1  0.06690000  0.97410000  0.05750000  1
  H  H288  1  0.63180000  0.03660000  0.49060000  1
  H  H289  1  0.31510000  0.78590000  0.80710000  1
  H  H290  1  0.30330000  0.71270000  0.81570000  1
  H  H291  1  0.11300000  0.91680000  0.00140000  1
  H  H292  1  0.52980000  0.00140000  0.58320000  1
  H  H293  1  0.70760000  0.29090000  0.40350000  1
  H  H294  1  0.91150000  0.52830000  0.19830000  1
  H  H295  1  0.57810000  0.13030000  0.53170000  1
  H  H296  1  0.02890000  0.87470000  0.07990000  1
  H  H297  1  0.14850000  0.88140000  0.95920000  1
  H  H298  1  0.66170000  0.22030000  0.43690000  1
  H  H299  1  0.12440000  0.44250000  0.97410000  1
  H  H300  1  0.44530000  0.56340000  0.65180000  1
  H  H301  1  0.87780000  0.30710000  0.21410000  1
  H  H302  1  0.74560000  0.36460000  0.34440000  1
  H  H303  1  0.06020000  0.80170000  0.02830000  1
  H  H304  1  0.01230000  0.62240000  0.07400000  1
  H  H305  1  0.22080000  0.46560000  0.86480000  1
  H  H306  1  0.61220000  0.30530000  0.46810000  1
  H  H307  1  0.95960000  0.85780000  0.11980000  1
  H  H308  1  0.55800000  0.51400000  0.52120000  1
  H  H309  1  0.33190000  0.90570000  0.74390000  1
  H  H310  1  0.23110000  0.51310000  0.83950000  1
  H  H311  1  0.54100000  0.05750000  0.52590000  1
  H  H312  1  0.61640000  0.90920000  0.44920000  1
  H  H313  1  0.92060000  0.61980000  0.14220000  1
  H  H314  1  0.81250000  0.09280000  0.25020000  1
  H  H315  1  0.36190000  0.02830000  0.69830000  1
  H  H316  1  0.18360000  0.69580000  0.86520000  1
  H  H317  1  0.45130000  0.51710000  0.59110000  1
  H  H318  1  0.68260000  0.88020000  0.35780000  1
  H  H319  1  0.60880000  0.16200000  0.42340000  1
  H  H320  1  0.11440000  0.49860000  0.91680000  1
  H  H321  1  0.40360000  0.07990000  0.62530000  1
  H  H322  1  0.27900000  0.98760000  0.74940000  1
  H  H323  1  0.13180000  0.36900000  0.89540000  1
  H  H324  1  0.97480000  0.59080000  0.05080000  1
  H  H325  1  0.93440000  0.94920000  0.09080000  1
  H  H326  1  0.64430000  0.32120000  0.37600000  1
  H  H327  1  0.92420000  0.24390000  0.09430000  1
  H  H328  1  0.89120000  0.57990000  0.12530000  1
  H  H329  1  0.02840000  0.75060000  0.98760000  1
  H  H330  1  0.13470000  0.07400000  0.87760000  1
  H  H331  1  0.70550000  0.57080000  0.30580000  1
  H  H332  1  0.89230000  0.45920000  0.11860000  1
  H  H333  1  0.45120000  0.65810000  0.55570000  1
  H  H334  1  0.23040000  0.42870000  0.77150000  1
  H  H335  1  0.39620000  0.13100000  0.60460000  1
  C  C336  1  0.57566000  0.19306000  0.42342000  1
  C  C337  1  0.87519000  0.23753000  0.11449000  1
  C  C338  1  0.56118000  0.27337000  0.42847000  1
  C  C339  1  0.87012000  0.19249000  0.11887000  1
  C  C340  1  0.08422000  0.07930000  0.90446000  1
  C  C341  1  0.44722000  0.91365000  0.53851000  1
  C  C342  1  0.36574000  0.10751000  0.61581000  1
  C  C343  1  0.08906000  0.39249000  0.88419000  1
  C  C344  1  0.05887000  0.84464000  0.90782000  1
  C  C345  1  0.40519000  0.68726000  0.56076000  1
  C  C346  1  0.39151000  0.77259000  0.56939000  1
  C  C347  1  0.85657000  0.47840000  0.09986000  1
  C  C348  1  0.19959000  0.44620000  0.75142000  1
  C  C349  1  0.81197000  0.27341000  0.13825000  1
  C  C350  1  0.79875000  0.18277000  0.14933000  1
  C  C351  1  0.88972000  0.91375000  0.05381000  1
  C  C352  1  0.23735000  0.44665000  0.70545000  1
  C  C353  1  0.59649000  0.09218000  0.34464000  1
  C  C354  1  0.91386000  0.33704000  0.02584000  1
  C  C355  1  0.34043000  0.68120000  0.59454000  1
  C  C356  1  0.01132000  0.40446000  0.92070000  1
  C  C357  1  0.69195000  0.99560000  0.23890000  1
  C  C358  1  0.93085000  0.26110000  0.99560000  1
  C  C359  1  0.50910000  0.46553000  0.41267000  1
  C  C360  1  0.33648000  0.09554000  0.57930000  1
  C  C361  1  0.85075000  0.44786000  0.06484000  1
  C  C362  1  0.75090000  0.02584000  0.16296000  1
  C  C363  1  0.64362000  0.97142000  0.26954000  1
  C  C364  1  0.41356000  0.93467000  0.49921000  1
  C  C365  1  0.01845000  0.11581000  0.89249000  1
  C  C366  1  0.74142000  0.26304000  0.16752000  1
  C  C367  1  0.77784000  0.50286000  0.13066000  1
  C  C368  1  0.73463000  0.21975000  0.17279000  1
  C  C369  1  0.48511000  0.28138000  0.41960000  1
  C  C370  1  0.31080000  0.63876000  0.59004000  1
  C  C371  1  0.44532000  0.46743000  0.45413000  1
  C  C372  1  0.98573000  0.96149000  0.91365000  1
  C  C373  1  0.26868000  0.62091000  0.62653000  1
  C  C374  1  0.70066000  0.99690000  0.19218000  1
  C  C375  1  0.51295000  0.43743000  0.37687000  1
  C  C376  1  0.89284000  0.30782000  0.99690000  1
  C  C377  1  0.30347000  0.05381000  0.58625000  1
  C  C378  1  0.11542000  0.47142000  0.76954000  1
  C  C379  1  0.91316000  0.23046000  0.97142000  1
  C  C380  1  0.12808000  0.91373000  0.75571000  1
  C  C381  1  0.61272000  0.11449000  0.26247000  1
  C  C382  1  0.09258000  0.67279000  0.78025000  1
  C  C383  1  0.45819000  0.24429000  0.41373000  1
  C  C384  1  0.56261000  0.11887000  0.30751000  1
  C  C385  1  0.19603000  0.47153000  0.67401000  1
  C  C386  1  0.32228000  0.61958000  0.54766000  1
  C  C387  1  0.05192000  0.64933000  0.81723000  1
  C  C388  1  0.24418000  0.58175000  0.62429000  1
  C  C389  1  0.89938000  0.58635000  0.96149000  1
  C  C390  1  0.94353000  0.44619000  0.91375000  1
  C  C391  1  0.83497000  0.09986000  0.02160000  1
  C  C392  1  0.37607000  0.89732000  0.47994000  1
  C  C393  1  0.60279000  0.94620000  0.25142000  1
  C  C394  1  0.79861000  0.06484000  0.05214000  1
  C  C395  1  0.84744000  0.56533000  0.00079000  1
  C  C396  1  0.91277000  0.00079000  0.93467000  1
  C  C397  1  0.38673000  0.44221000  0.45933000  1
  C  C398  1  0.29476000  0.57989000  0.54759000  1
  C  C399  1  0.45847000  0.41138000  0.38228000  1
  C  C400  1  0.43483000  0.02160000  0.40014000  1
  C  C401  1  0.65843000  0.97153000  0.17401000  1
  C  C402  1  0.09106000  0.66752000  0.73696000  1
  C  C403  1  0.31844000  0.44848000  0.50164000  1
  C  C404  1  0.01101000  0.61887000  0.80751000  1
  C  C405  1  0.39427000  0.41277000  0.42389000  1
  C  C406  1  0.61055000  0.94665000  0.20545000  1
  C  C407  1  0.09529000  0.91960000  0.71862000  1
  C  C408  1  0.07355000  0.49560000  0.73890000  1
  C  C409  1  0.58538000  0.13825000  0.22659000  1
  C  C410  1  0.96669000  0.59218000  0.84464000  1
  C  C411  1  0.00092000  0.92342000  0.80694000  1
  C  C412  1  0.83244000  0.32599000  0.97153000  1
  C  C413  1  0.11026000  0.49690000  0.69218000  1
  C  C414  1  0.85421000  0.24858000  0.94620000  1
  C  C415  1  0.48152000  0.14933000  0.31723000  1
  C  C416  1  0.36345000  0.05214000  0.43516000  1
  C  C417  1  0.88379000  0.74429000  0.91373000  1
  C  C418  1  0.41136000  0.99714000  0.36934000  1
  C  C419  1  0.78070000  0.13066000  0.99714000  1
  C  C420  1  0.04978000  0.63825000  0.72659000  1
  C  C421  1  0.75333000  0.60268000  0.02006000  1
  C  C422  1  0.01032000  0.61449000  0.76247000  1
  C  C423  1  0.18184000  0.92389000  0.58723000  1
  C  C424  1  0.81600000  0.29455000  0.94665000  1
  C  C425  1  0.67407000  0.37571000  0.08175000  1
  C  C426  1  0.85601000  0.02006000  0.89732000  1
  C  C427  1  0.27674000  0.16296000  0.47416000  1
  C  C428  1  0.15925000  0.88228000  0.58862000  1
  C  C429  1  0.50446000  0.16752000  0.23696000  1
  C  C430  1  0.01035000  0.92847000  0.72663000  1
  C  C431  1  0.45438000  0.17279000  0.28025000  1
  C  C432  1  0.81391000  0.78138000  0.91960000  1
  C  C433  1  0.96090000  0.93061000  0.77259000  1
  C  C434  1  0.73144000  0.94848000  0.00164000  1
  C  C435  1  0.17992000  0.00164000  0.55152000  1
  C  C436  1  0.61041000  0.37347000  0.12091000  1
  C  C437  1  0.80786000  0.69306000  0.92342000  1
  C  C438  1  0.06030000  0.52584000  0.66296000  1
  C  C439  1  0.15394000  0.95933000  0.55779000  1
  C  C440  1  0.62535000  0.45241000  0.07989000  1
  C  C441  1  0.19756000  0.19218000  0.50310000  1
  C  C442  1  0.14272000  0.41375000  0.55381000  1
  C  C443  1  0.76907000  0.91277000  0.92389000  1
  C  C444  1  0.18755000  0.23890000  0.50440000  1
  C  C445  1  0.55044000  0.40996000  0.13876000  1
  C  C446  1  0.73308000  0.49836000  0.94848000  1
  C  C447  1  0.55814000  0.45234000  0.11958000  1
  C  C448  1  0.54978000  0.08175000  0.12429000  1
  C  C449  1  0.11018000  0.87687000  0.56257000  1
  C  C450  1  0.71173000  0.94221000  0.95933000  1
  C  C451  1  0.73698000  0.77337000  0.92847000  1
  C  C452  1  0.73349000  0.72741000  0.93061000  1
  C  C453  1  0.06798000  0.42070000  0.59554000  1
  C  C454  1  0.47837000  0.40546000  0.18120000  1
  C  C455  1  0.12996000  0.17401000  0.52847000  1
  C  C456  1  0.96595000  0.93924000  0.68726000  1
  C  C457  1  0.11504000  0.26954000  0.52858000  1
  C  C458  1  0.08441000  0.56484000  0.55214000  1
  C  C459  1  0.02675000  0.38419000  0.60751000  1
  C  C460  1  0.10055000  0.95413000  0.53257000  1
  C  C461  1  0.74787000  0.91138000  0.88228000  1
  C  C462  1  0.57776000  0.07989000  0.04759000  1
  C  C463  1  0.22661000  0.52006000  0.39732000  1
  C  C464  1  0.93497000  0.90546000  0.68120000  1
  C  C465  1  0.67106000  0.54067000  0.94221000  1
  C  C466  1  0.22721000  0.26247000  0.38551000  1
  C  C467  1  0.07823000  0.91267000  0.53447000  1
  C  C468  1  0.05720000  0.20545000  0.55335000  1
  C  C469  1  0.48388000  0.12091000  0.12653000  1
  C  C470  1  0.33590000  0.43061000  0.27259000  1
  C  C471  1  0.69296000  0.57611000  0.91277000  1
  C  C472  1  0.04899000  0.25142000  0.55380000  1
  C  C473  1  0.18867000  0.34464000  0.40782000  1
  C  C474  1  0.40755000  0.43924000  0.18726000  1
  C  C475  1  0.65321000  0.81274000  0.93924000  1
  C  C476  1  0.09150000  0.63066000  0.49714000  1
  C  C477  1  0.63312000  0.96743000  0.95413000  1
  C  C478  1  0.15177000  0.50079000  0.43467000  1
  C  C479  1  0.22363000  0.22659000  0.36175000  1
  C  C480  1  0.15765000  0.04759000  0.42011000  1
  C  C481  1  0.26872000  0.42342000  0.30694000  1
  C  C482  1  0.04357000  0.59986000  0.52160000  1
  C  C483  1  0.18148000  0.30751000  0.38113000  1
  C  C484  1  0.33455000  0.42847000  0.22663000  1
  C  C485  1  0.51048000  0.11958000  0.04766000  1
  C  C486  1  0.58725000  0.54587000  0.96743000  1
  C  C487  1  0.13913000  0.46149000  0.41365000  1
  C  C488  1  0.46040000  0.13876000  0.09004000  1
  C  C489  1  0.13153000  0.12429000  0.41825000  1
  C  C490  1  0.67275000  0.93743000  0.87687000  1
  C  C491  1  0.87283000  0.71975000  0.67279000  1
  C  C492  1  0.79752000  0.58627000  0.74429000  1
  C  C493  1  0.63015000  0.61772000  0.91138000  1
  C  C494  1  0.90084000  0.90996000  0.63876000  1
  C  C495  1  0.61270000  0.96553000  0.91267000  1
  C  C496  1  0.61617000  0.81880000  0.90546000  1
  C  C497  1  0.86915000  0.68277000  0.64933000  1
  C  C498  1  0.89521000  0.87347000  0.62091000  1
  C  C499  1  0.73351000  0.58040000  0.78138000  1
  C  C500  1  0.45038000  0.37687000  0.06257000  1
  C  C501  1  0.13006000  0.04766000  0.38042000  1
  C  C502  1  0.47463000  0.41267000  0.03447000  1
  C  C503  1  0.17198000  0.23696000  0.33248000  1
  C  C504  1  0.82802000  0.76304000  0.66752000  1
  C  C505  1  0.52537000  0.58733000  0.96553000  1
  C  C506  1  0.86994000  0.95234000  0.61958000  1
  C  C507  1  0.54962000  0.62313000  0.93743000  1
  C  C508  1  0.26649000  0.41960000  0.21862000  1
  C  C509  1  0.10479000  0.12653000  0.37909000  1
  C  C510  1  0.13085000  0.31723000  0.35067000  1
  C  C511  1  0.38383000  0.18120000  0.09454000  1
  C  C512  1  0.38730000  0.03447000  0.08733000  1
  C  C513  1  0.09916000  0.09004000  0.36124000  1
  C  C514  1  0.36985000  0.38228000  0.08862000  1
  C  C515  1  0.20248000  0.41373000  0.25571000  1
  C  C516  1  0.12717000  0.28025000  0.32721000  1
  C  C517  1  0.32725000  0.06257000  0.12313000  1
  C  C518  1  0.86847000  0.87571000  0.58175000  1
  C  C519  1  0.53960000  0.86124000  0.90996000  1
  C  C520  1  0.86087000  0.53851000  0.58635000  1
  C  C521  1  0.41275000  0.45413000  0.03257000  1
  C  C522  1  0.48952000  0.88042000  0.95234000  1
  C  C523  1  0.66545000  0.57153000  0.77337000  1
  C  C524  1  0.81852000  0.69249000  0.61887000  1
  C  C525  1  0.95643000  0.40014000  0.47840000  1
  C  C526  1  0.73128000  0.57658000  0.69306000  1
  C  C527  1  0.84235000  0.95241000  0.57989000  1
  C  C528  1  0.77637000  0.77341000  0.63825000  1
  C  C529  1  0.84823000  0.49921000  0.56533000  1
  C  C530  1  0.36688000  0.03257000  0.04587000  1
  C  C531  1  0.90850000  0.36934000  0.50286000  1
  C  C532  1  0.34679000  0.18726000  0.06076000  1
  C  C533  1  0.59245000  0.56076000  0.81274000  1
  C  C534  1  0.81133000  0.65536000  0.59218000  1
  C  C535  1  0.95101000  0.74858000  0.44620000  1
  C  C536  1  0.30704000  0.42389000  0.08723000  1
  C  C537  1  0.66410000  0.56939000  0.72741000  1
  C  C538  1  0.51612000  0.87909000  0.87347000  1
  C  C539  1  0.94280000  0.79455000  0.44665000  1
  C  C540  1  0.92177000  0.08733000  0.46553000  1
  C  C541  1  0.77279000  0.73753000  0.61449000  1
  C  C542  1  0.32894000  0.45933000  0.05779000  1
  C  C543  1  0.06503000  0.09454000  0.31880000  1
  C  C544  1  0.77339000  0.47994000  0.60268000  1
  C  C545  1  0.42224000  0.92011000  0.95241000  1
  C  C546  1  0.25213000  0.08862000  0.11772000  1
  C  C547  1  0.89945000  0.04587000  0.46743000  1
  C  C548  1  0.97325000  0.61581000  0.39249000  1
  C  C549  1  0.91559000  0.43516000  0.44786000  1
  C  C550  1  0.88496000  0.73046000  0.47142000  1
  C  C551  1  0.03405000  0.06076000  0.31274000  1
  C  C552  1  0.87004000  0.82599000  0.47153000  1
  C  C553  1  0.52163000  0.59454000  0.81880000  1
  C  C554  1  0.93202000  0.57930000  0.40446000  1
  C  C555  1  0.26651000  0.27259000  0.06939000  1
  C  C556  1  0.26302000  0.22663000  0.07153000  1
  C  C557  1  0.28827000  0.05779000  0.04067000  1
  C  C558  1  0.88982000  0.12313000  0.43743000  1
  C  C559  1  0.45022000  0.91825000  0.87571000  1
  C  C560  1  0.44186000  0.54766000  0.88042000  1
  C  C561  1  0.26692000  0.50164000  0.05152000  1
  C  C562  1  0.44956000  0.59004000  0.86124000  1
  C  C563  1  0.81245000  0.76110000  0.49560000  1
  C  C564  1  0.23093000  0.08723000  0.07611000  1
  C  C565  1  0.85728000  0.58625000  0.44619000  1
  C  C566  1  0.80244000  0.80782000  0.49690000  1
  C  C567  1  0.37465000  0.54759000  0.92011000  1
  C  C568  1  0.84606000  0.04067000  0.44221000  1
  C  C569  1  0.93970000  0.47416000  0.33704000  1
  C  C570  1  0.19214000  0.30694000  0.07658000  1
  C  C571  1  0.38959000  0.62653000  0.87909000  1
  C  C572  1  0.82008000  0.99836000  0.44848000  1
  C  C573  1  0.26856000  0.05152000  0.99836000  1
  C  C574  1  0.03910000  0.06939000  0.22741000  1
  C  C575  1  0.18609000  0.21862000  0.08040000  1
  C  C576  1  0.54562000  0.82721000  0.71975000  1
  C  C577  1  0.98965000  0.07153000  0.27337000  1
  C  C578  1  0.49554000  0.83248000  0.76304000  1
  C  C579  1  0.84075000  0.11772000  0.41138000  1
  C  C580  1  0.72326000  0.83704000  0.52584000  1
  C  C581  1  0.14399000  0.97994000  0.10268000  1
  C  C582  1  0.32593000  0.62429000  0.91825000  1
  C  C583  1  0.18400000  0.70545000  0.05335000  1
  C  C584  1  0.81816000  0.07611000  0.41277000  1
  C  C585  1  0.98968000  0.38551000  0.23753000  1
  C  C586  1  0.24667000  0.39732000  0.97994000  1
  C  C587  1  0.95022000  0.36175000  0.27341000  1
  C  C588  1  0.21930000  0.86934000  0.00286000  1
  C  C589  1  0.58864000  0.00286000  0.63066000  1
  C  C590  1  0.11621000  0.25571000  0.08627000  1
  C  C591  1  0.63655000  0.94786000  0.56484000  1
  C  C592  1  0.51848000  0.85067000  0.68277000  1
  C  C593  1  0.14579000  0.75142000  0.05380000  1
  C  C594  1  0.88974000  0.50310000  0.30782000  1
  C  C595  1  0.16756000  0.67401000  0.02847000  1
  C  C596  1  0.99908000  0.07658000  0.19306000  1
  C  C597  1  0.03331000  0.40782000  0.15536000  1
  C  C598  1  0.41462000  0.86175000  0.77341000  1
  C  C599  1  0.92645000  0.50440000  0.26110000  1
  C  C600  1  0.90471000  0.08040000  0.28138000  1
  C  C601  1  0.38945000  0.05335000  0.79455000  1
  C  C602  1  0.60573000  0.58723000  0.57611000  1
  C  C603  1  0.98899000  0.38113000  0.19249000  1
  C  C604  1  0.68156000  0.55152000  0.49836000  1
  C  C605  1  0.90894000  0.33248000  0.26304000  1
  C  C606  1  0.34157000  0.02847000  0.82599000  1
  C  C607  1  0.56517000  0.97840000  0.59986000  1
  C  C608  1  0.54153000  0.58862000  0.61772000  1
  C  C609  1  0.70524000  0.42011000  0.45241000  1
  C  C610  1  0.61327000  0.55779000  0.54067000  1
  C  C611  1  0.08723000  0.99921000  0.06533000  1
  C  C612  1  0.15256000  0.43467000  0.99921000  1
  C  C613  1  0.20139000  0.93516000  0.94786000  1
  C  C614  1  0.39721000  0.05380000  0.74858000  1
  C  C615  1  0.62393000  0.10268000  0.52006000  1
  C  C616  1  0.16503000  0.90014000  0.97840000  1
  C  C617  1  0.05647000  0.55381000  0.08625000  1
  C  C618  1  0.10062000  0.41365000  0.03851000  1
  C  C619  1  0.75582000  0.41825000  0.37571000  1
  C  C620  1  0.94808000  0.35067000  0.18277000  1
  C  C621  1  0.67772000  0.38042000  0.45234000  1
  C  C622  1  0.80397000  0.52847000  0.32599000  1
  C  C623  1  0.43739000  0.88113000  0.69249000  1
  C  C624  1  0.54181000  0.75571000  0.58627000  1
  C  C625  1  0.90742000  0.32721000  0.21975000  1
  C  C626  1  0.38728000  0.88551000  0.73753000  1
  C  C627  1  0.87192000  0.08627000  0.24429000  1
  C  C628  1  0.08684000  0.76954000  0.02858000  1
  C  C629  1  0.88458000  0.52858000  0.23046000  1
  C  C630  1  0.69653000  0.94619000  0.41375000  1
  C  C631  1  0.10716000  0.69218000  0.00310000  1
  C  C632  1  0.48705000  0.56257000  0.62313000  1
  C  C633  1  0.29934000  0.00310000  0.80782000  1
  C  C634  1  0.73132000  0.37909000  0.37347000  1
  C  C635  1  0.01427000  0.03851000  0.08635000  1
  C  C636  1  0.55468000  0.53257000  0.54587000  1
  C  C637  1  0.68920000  0.36124000  0.40996000  1
  C  C638  1  0.51489000  0.71862000  0.58040000  1
  C  C639  1  0.26537000  0.78025000  0.82721000  1
  C  C640  1  0.22216000  0.49714000  0.86934000  1
  C  C641  1  0.25858000  0.73696000  0.83248000  1
  C  C642  1  0.98155000  0.88419000  0.10751000  1
  C  C643  1  0.58644000  0.06533000  0.50079000  1
  C  C644  1  0.35638000  0.02858000  0.73046000  1
  C  C645  1  0.24910000  0.97416000  0.83704000  1
  C  C646  1  0.14925000  0.55214000  0.93516000  1
  C  C647  1  0.66352000  0.90446000  0.42070000  1
  C  C648  1  0.49090000  0.53447000  0.58733000  1
  C  C649  1  0.06915000  0.73890000  0.00440000  1
  C  C650  1  0.30805000  0.00440000  0.76110000  1
  C  C651  1  0.98868000  0.59554000  0.07930000  1
  C  C652  1  0.65957000  0.31880000  0.40546000  1
  C  C653  1  0.08614000  0.66296000  0.97416000  1
  C  C654  1  0.40351000  0.90782000  0.65536000  1
  C  C655  1  0.76265000  0.55335000  0.29455000  1
  C  C656  1  0.11028000  0.08625000  0.94619000  1
  C  C657  1  0.20125000  0.81723000  0.85067000  1
  C  C658  1  0.18803000  0.72659000  0.86175000  1
  C  C659  1  0.80041000  0.55380000  0.24858000  1
  C  C660  1  0.14343000  0.52160000  0.90014000  1
  C  C661  1  0.60849000  0.22741000  0.43061000  1
  C  C662  1  0.59481000  0.31274000  0.43924000  1
  C  C663  1  0.94113000  0.15536000  0.09218000  1
  C  C664  1  0.91094000  0.60751000  0.11581000  1
  C  C665  1  0.63426000  0.89249000  0.38419000  1
  C  C666  1  0.55278000  0.08635000  0.46149000  1
  C  C667  1  0.91578000  0.92070000  0.09554000  1
  C  C668  1  0.12988000  0.80751000  0.88113000  1
  C  C669  1  0.43882000  0.72663000  0.57153000  1
  C  C670  1  0.12481000  0.76247000  0.88551000  1
  C  C671  1  0.42434000  0.80694000  0.57658000  1
  N  N672  1  0.40509000  0.92723000  0.58059000  1
  N  N673  1  0.05823000  0.88810000  0.90072000  1
  N  N674  1  0.89135000  0.40471000  0.06311000  1
  N  N675  1  0.55367000  0.09928000  0.38810000  1
  N  N676  1  0.50129000  0.20077000  0.41665000  1
  N  N677  1  0.98568000  0.91941000  0.92723000  1
  N  N678  1  0.87256000  0.38168000  0.03058000  1
  N  N679  1  0.79606000  0.06311000  0.09529000  1
  N  N680  1  0.08206000  0.91665000  0.79923000  1
  N  N681  1  0.75424000  0.03058000  0.11832000  1
  N  N682  1  0.81678000  0.93778000  0.04980000  1
  N  N683  1  0.95895000  0.59928000  0.88810000  1
  N  N684  1  0.25841000  0.56056000  0.58582000  1
  N  N685  1  0.91291000  0.57277000  0.91941000  1
  N  N686  1  0.25456000  0.04980000  0.56222000  1
  N  N687  1  0.80564000  0.92639000  0.00763000  1
  N  N688  1  0.23203000  0.00763000  0.57361000  1
  N  N689  1  0.86658000  0.45020000  0.93778000  1
  N  N690  1  0.88129000  0.70077000  0.91665000  1
  N  N691  1  0.35917000  0.09529000  0.43689000  1
  N  N692  1  0.26034000  0.42639000  0.50763000  1
  N  N693  1  0.28482000  0.11832000  0.46942000  1
  N  N694  1  0.19564000  0.43778000  0.54980000  1
  N  N695  1  0.68103000  0.41418000  0.06056000  1
  N  N696  1  0.81327000  0.49237000  0.92639000  1
  N  N697  1  0.09686000  0.53058000  0.61832000  1
  N  N698  1  0.59521000  0.06056000  0.08582000  1
  N  N699  1  0.04554000  0.56311000  0.59529000  1
  N  N700  1  0.15577000  0.08582000  0.43944000  1
  N  N701  1  0.16768000  0.41941000  0.42723000  1
  N  N702  1  0.15295000  0.38810000  0.40072000  1
  N  N703  1  0.20206000  0.41665000  0.29923000  1
  N  N704  1  0.79794000  0.58335000  0.70077000  1
  N  N705  1  0.84705000  0.61190000  0.59928000  1
  N  N706  1  0.83232000  0.58059000  0.57277000  1
  N  N707  1  0.84423000  0.91418000  0.56056000  1
  N  N708  1  0.95446000  0.43689000  0.40471000  1
  N  N709  1  0.40479000  0.93944000  0.91418000  1
  N  N710  1  0.90314000  0.46942000  0.38168000  1
  N  N711  1  0.18673000  0.50763000  0.07361000  1
  N  N712  1  0.31897000  0.58582000  0.93944000  1
  N  N713  1  0.80436000  0.56222000  0.45020000  1
  N  N714  1  0.71518000  0.88168000  0.53058000  1
  N  N715  1  0.73966000  0.57361000  0.49237000  1
  N  N716  1  0.64083000  0.90471000  0.56311000  1
  N  N717  1  0.11871000  0.29923000  0.08335000  1
  N  N718  1  0.13342000  0.54980000  0.06222000  1
  N  N719  1  0.76797000  0.99237000  0.42639000  1
  N  N720  1  0.19436000  0.07361000  0.99237000  1
  N  N721  1  0.74544000  0.95020000  0.43778000  1
  N  N722  1  0.08709000  0.42723000  0.08059000  1
  N  N723  1  0.74159000  0.43944000  0.41418000  1
  N  N724  1  0.04105000  0.40072000  0.11190000  1
  N  N725  1  0.18322000  0.06222000  0.95020000  1
  N  N726  1  0.24576000  0.96942000  0.88168000  1
  N  N727  1  0.91794000  0.08335000  0.20077000  1
  N  N728  1  0.20394000  0.93689000  0.90471000  1
  N  N729  1  0.12744000  0.61832000  0.96942000  1
  N  N730  1  0.01432000  0.08059000  0.07277000  1
  N  N731  1  0.49871000  0.79923000  0.58335000  1
  N  N732  1  0.44633000  0.90072000  0.61190000  1
  N  N733  1  0.10865000  0.59529000  0.93689000  1
  N  N734  1  0.94177000  0.11190000  0.09928000  1
  N  N735  1  0.59491000  0.07277000  0.41941000  1
  O  O736  1  0.33003000  0.93745000  0.66765000  1
  O  O737  1  0.03105000  0.68133000  0.95209000  1
  O  O738  1  0.78762000  0.04791000  0.18133000  1
  O  O739  1  0.94130000  0.88294000  0.02370000  1
  O  O740  1  0.48137000  0.11842000  0.47096000  1
  O  O741  1  0.78577000  0.14046000  0.15710000  1
  O  O742  1  0.32424000  0.02370000  0.61706000  1
  O  O743  1  0.99768000  0.83235000  0.93745000  1
  O  O744  1  0.04767000  0.97096000  0.88158000  1
  O  O745  1  0.05713000  0.65710000  0.85954000  1
  O  O746  1  0.92925000  0.61842000  0.97096000  1
  O  O747  1  0.23849000  0.47068000  0.63020000  1
  O  O748  1  0.96500000  0.47630000  0.88294000  1
  O  O749  1  0.31559000  0.47682000  0.53222000  1
  O  O750  1  0.22678000  0.92668000  0.61574000  1
  O  O751  1  0.80264000  0.46573000  0.03789000  1
  O  O752  1  0.76837000  0.03789000  0.03427000  1
  O  O753  1  0.66063000  0.97068000  0.13020000  1
  O  O754  1  0.33553000  0.18133000  0.45209000  1
  O  O755  1  0.42623000  0.15710000  0.35954000  1
  O  O756  1  0.34654000  0.38426000  0.42668000  1
  O  O757  1  0.84252000  0.88426000  0.92668000  1
  O  O758  1  0.30626000  0.03427000  0.46211000  1
  O  O759  1  0.93513000  0.56255000  0.83235000  1
  O  O760  1  0.79083000  0.36980000  0.97068000  1
  O  O761  1  0.67537000  0.97682000  0.03222000  1
  O  O762  1  0.15947000  0.53789000  0.53427000  1
  O  O763  1  0.70759000  0.46778000  0.97682000  1
  O  O764  1  0.15206000  0.38294000  0.52370000  1
  O  O765  1  0.15219000  0.03222000  0.52318000  1
  O  O766  1  0.23252000  0.33235000  0.43745000  1
  O  O767  1  0.98314000  0.54791000  0.68133000  1
  O  O768  1  0.13131000  0.13020000  0.52932000  1
  O  O769  1  0.76920000  0.57332000  0.88426000  1
  O  O770  1  0.91667000  0.64046000  0.65710000  1
  O  O771  1  0.90021000  0.52904000  0.61842000  1
  O  O772  1  0.09979000  0.47096000  0.38158000  1
  O  O773  1  0.08333000  0.35954000  0.34290000  1
  O  O774  1  0.23080000  0.42668000  0.11574000  1
  O  O775  1  0.86869000  0.86980000  0.47068000  1
  O  O776  1  0.01686000  0.45209000  0.31867000  1
  O  O777  1  0.76748000  0.66765000  0.56255000  1
  O  O778  1  0.84781000  0.96778000  0.47682000  1
  O  O779  1  0.84794000  0.61706000  0.47630000  1
  O  O780  1  0.29241000  0.53222000  0.02318000  1
  O  O781  1  0.84053000  0.46211000  0.46573000  1
  O  O782  1  0.32463000  0.02318000  0.96778000  1
  O  O783  1  0.20917000  0.63020000  0.02932000  1
  O  O784  1  0.06487000  0.43745000  0.16765000  1
  O  O785  1  0.69374000  0.96573000  0.53789000  1
  O  O786  1  0.15748000  0.11574000  0.07332000  1
  O  O787  1  0.65346000  0.61574000  0.57332000  1
  O  O788  1  0.57377000  0.84290000  0.64046000  1
  O  O789  1  0.66447000  0.81867000  0.54791000  1
  O  O790  1  0.33937000  0.02932000  0.86980000  1
  O  O791  1  0.23163000  0.96211000  0.96573000  1
  O  O792  1  0.19736000  0.53427000  0.96211000  1
  O  O793  1  0.77322000  0.07332000  0.38426000  1
  O  O794  1  0.68441000  0.52318000  0.46778000  1
  O  O795  1  0.03500000  0.52370000  0.11706000  1
  O  O796  1  0.76151000  0.52932000  0.36980000  1
  O  O797  1  0.07075000  0.38158000  0.02904000  1
  O  O798  1  0.94287000  0.34290000  0.14046000  1
  O  O799  1  0.95233000  0.02904000  0.11842000  1
  O  O800  1  0.00232000  0.16765000  0.06255000  1
  O  O801  1  0.67576000  0.97630000  0.38294000  1
  O  O802  1  0.21423000  0.85954000  0.84290000  1
  O  O803  1  0.51863000  0.88158000  0.52904000  1
  O  O804  1  0.05870000  0.11706000  0.97630000  1
  O  O805  1  0.21238000  0.95209000  0.81867000  1
  O  O806  1  0.96895000  0.31867000  0.04791000  1
  O  O807  1  0.66997000  0.06255000  0.33235000  1
