# generated using pymatgen
data_Co5H32C34(N2O9)2
_symmetry_space_group_name_H-M   'P 1'
_cell_length_a   6.50170000
_cell_length_b   10.15500000
_cell_length_c   16.35820000
_cell_angle_alpha   87.04100000
_cell_angle_beta   87.17700000
_cell_angle_gamma   81.42700000
_symmetry_Int_Tables_number   1
_chemical_formula_structural   Co5H32C34(N2O9)2
_chemical_formula_sum   'Co5 H32 C34 N4 O18'
_cell_volume   1065.60998104
_cell_formula_units_Z   1
loop_
 _symmetry_equiv_pos_site_id
 _symmetry_equiv_pos_as_xyz
  1  'x, y, z'
loop_
 _atom_site_type_symbol
 _atom_site_label
 _atom_site_symmetry_multiplicity
 _atom_site_fract_x
 _atom_site_fract_y
 _atom_site_fract_z
 _atom_site_occupancy
  Co  Co0  1  0.02927000  0.84552000  0.99664000  1
  Co  Co1  1  0.13422000  0.49789000  0.73095000  1
  Co  Co2  1  0.50000000  0.00000000  0.00000000  1
  Co  Co3  1  0.86578000  0.50211000  0.26905000  1
  Co  Co4  1  0.97073000  0.15448000  0.00336000  1
  H  H5  1  0.06660000  0.03650000  0.78520000  1
  H  H6  1  0.11970000  0.06960000  0.34360000  1
  H  H7  1  0.13490000  0.04930000  0.69210000  1
  H  H8  1  0.15460000  0.09470000  0.50890000  1
  H  H9  1  0.16340000  0.65460000  0.54710000  1
  H  H10  1  0.18030000  0.82140000  0.33720000  1
  H  H11  1  0.25330000  0.88150000  0.56190000  1
  H  H12  1  0.25430000  0.54350000  0.41800000  1
  H  H13  1  0.26000000  0.26580000  0.39460000  1
  H  H14  1  0.29510000  0.00600000  0.90490000  1
  H  H15  1  0.32130000  0.27430000  0.60170000  1
  H  H16  1  0.34970000  0.15930000  0.25830000  1
  H  H17  1  0.44040000  0.03730000  0.78760000  1
  H  H18  1  0.44210000  0.75530000  0.24370000  1
  H  H19  1  0.47810000  0.94860000  0.30370000  1
  H  H20  1  0.49020000  0.29380000  0.39590000  1
  H  H21  1  0.50980000  0.70620000  0.60410000  1
  H  H22  1  0.52190000  0.05140000  0.69630000  1
  H  H23  1  0.55790000  0.24470000  0.75630000  1
  H  H24  1  0.55960000  0.96270000  0.21240000  1
  H  H25  1  0.65030000  0.84070000  0.74170000  1
  H  H26  1  0.67870000  0.72570000  0.39830000  1
  H  H27  1  0.70490000  0.99400000  0.09510000  1
  H  H28  1  0.74000000  0.73420000  0.60540000  1
  H  H29  1  0.74570000  0.45650000  0.58200000  1
  H  H30  1  0.74670000  0.11850000  0.43810000  1
  H  H31  1  0.81970000  0.17860000  0.66280000  1
  H  H32  1  0.83660000  0.34540000  0.45290000  1
  H  H33  1  0.84540000  0.90530000  0.49110000  1
  H  H34  1  0.86510000  0.95070000  0.30790000  1
  H  H35  1  0.88030000  0.93040000  0.65640000  1
  H  H36  1  0.93340000  0.96350000  0.21480000  1
  C  C37  1  0.01650000  0.04420000  0.73001000  1
  C  C38  1  0.04290000  0.70340000  0.26698000  1
  C  C39  1  0.07450000  0.79170000  0.72073000  1
  C  C40  1  0.08150000  0.07950000  0.28618000  1
  C  C41  1  0.14070000  0.82750000  0.27997000  1
  C  C42  1  0.20570000  0.56360000  0.54208000  1
  C  C43  1  0.25350000  0.12530000  0.14495000  1
  C  C44  1  0.25640000  0.50310000  0.47038000  1
  C  C45  1  0.28500000  0.08850000  0.23590000  1
  C  C46  1  0.29190000  0.35550000  0.57257000  1
  C  C47  1  0.29400000  0.05710000  0.50517000  1
  C  C48  1  0.31240000  0.82800000  0.13572000  1
  C  C49  1  0.34250000  0.83350000  0.22760000  1
  C  C50  1  0.35330000  0.92870000  0.53702000  1
  C  C51  1  0.37480000  0.26840000  0.42992000  1
  C  C52  1  0.43590000  0.95780000  0.24743000  1
  C  C53  1  0.43920000  0.13060000  0.46769000  1
  C  C54  1  0.56080000  0.86940000  0.53231000  1
  C  C55  1  0.56410000  0.04220000  0.75257000  1
  C  C56  1  0.62520000  0.73160000  0.57008000  1
  C  C57  1  0.64670000  0.07130000  0.46298000  1
  C  C58  1  0.65750000  0.16650000  0.77240000  1
  C  C59  1  0.68760000  0.17200000  0.86428000  1
  C  C60  1  0.70600000  0.94290000  0.49483000  1
  C  C61  1  0.70810000  0.64450000  0.42743000  1
  C  C62  1  0.71500000  0.91150000  0.76410000  1
  C  C63  1  0.74360000  0.49690000  0.52962000  1
  C  C64  1  0.74650000  0.87470000  0.85505000  1
  C  C65  1  0.79430000  0.43640000  0.45792000  1
  C  C66  1  0.85930000  0.17250000  0.72003000  1
  C  C67  1  0.91850000  0.92050000  0.71382000  1
  C  C68  1  0.92550000  0.20830000  0.27927000  1
  C  C69  1  0.95710000  0.29660000  0.73302000  1
  C  C70  1  0.98350000  0.95580000  0.26999000  1
  N  N71  1  0.22620000  0.47010000  0.60650000  1
  N  N72  1  0.31110000  0.37080000  0.49052000  1
  N  N73  1  0.68890000  0.62920000  0.50948000  1
  N  N74  1  0.77380000  0.52990000  0.39350000  1
  O  O75  1  0.00580000  0.31412000  0.28765000  1
  O  O76  1  0.07280000  0.14191000  0.12089000  1
  O  O77  1  0.13970000  0.81151000  0.11239000  1
  O  O78  1  0.14780000  0.28899000  0.74407000  1
  O  O79  1  0.15720000  0.58969000  0.27394000  1
  O  O80  1  0.20220000  0.00351000  0.96482000  1
  O  O81  1  0.26170000  0.79379000  0.72969000  1
  O  O82  1  0.41370000  0.13503000  0.09857000  1
  O  O83  1  0.47010000  0.84145000  0.08791000  1
  O  O84  1  0.52990000  0.15855000  0.91209000  1
  O  O85  1  0.58630000  0.86497000  0.90143000  1
  O  O86  1  0.73830000  0.20621000  0.27031000  1
  O  O87  1  0.79780000  0.99649000  0.03518000  1
  O  O88  1  0.84280000  0.41031000  0.72606000  1
  O  O89  1  0.85220000  0.71101000  0.25593000  1
  O  O90  1  0.86030000  0.18849000  0.88761000  1
  O  O91  1  0.92720000  0.85809000  0.87911000  1
  O  O92  1  0.99420000  0.68588000  0.71235000  1
