# generated using pymatgen
data_MnN9
_symmetry_space_group_name_H-M   'P 1'
_cell_length_a   8.43770000
_cell_length_b   9.30150000
_cell_length_c   12.84800000
_cell_angle_alpha   90.00000000
_cell_angle_beta   105.56600000
_cell_angle_gamma   90.00000000
_symmetry_Int_Tables_number   1
_chemical_formula_structural   MnN9
_chemical_formula_sum   'Mn4 N36'
_cell_volume   971.36861423
_cell_formula_units_Z   4
loop_
 _symmetry_equiv_pos_site_id
 _symmetry_equiv_pos_as_xyz
  1  'x, y, z'
loop_
 _atom_site_type_symbol
 _atom_site_label
 _atom_site_symmetry_multiplicity
 _atom_site_fract_x
 _atom_site_fract_y
 _atom_site_fract_z
 _atom_site_occupancy
  Mn  Mn0  1  0.25629000  0.74864000  0.00990000  1
  Mn  Mn1  1  0.25629000  0.75136000  0.50990000  1
  Mn  Mn2  1  0.74371000  0.24864000  0.49010000  1
  Mn  Mn3  1  0.74371000  0.25136000  0.99010000  1
  N  N4  1  0.00000000  0.00000000  0.00000000  1
  N  N5  1  0.00000000  0.00000000  0.50000000  1
  N  N6  1  0.00000000  0.50000000  0.00000000  1
  N  N7  1  0.00000000  0.50000000  0.50000000  1
  N  N8  1  0.04234000  0.61953000  0.01655000  1
  N  N9  1  0.04234000  0.88047000  0.51655000  1
  N  N10  1  0.10512000  0.55468000  0.47111000  1
  N  N11  1  0.10512000  0.94532000  0.97111000  1
  N  N12  1  0.21297000  0.69487000  0.83538000  1
  N  N13  1  0.21297000  0.80513000  0.33538000  1
  N  N14  1  0.26717000  0.70128000  0.76128000  1
  N  N15  1  0.26717000  0.79872000  0.26128000  1
  N  N16  1  0.32199000  0.70327000  0.68720000  1
  N  N17  1  0.32199000  0.79673000  0.18720000  1
  N  N18  1  0.42770000  0.55994000  0.05307000  1
  N  N19  1  0.42770000  0.94006000  0.55307000  1
  N  N20  1  0.47992000  0.62399000  0.50714000  1
  N  N21  1  0.47992000  0.87601000  0.00714000  1
  N  N22  1  0.50000000  0.00000000  0.00000000  1
  N  N23  1  0.50000000  0.00000000  0.50000000  1
  N  N24  1  0.50000000  0.50000000  0.00000000  1
  N  N25  1  0.50000000  0.50000000  0.50000000  1
  N  N26  1  0.52008000  0.12399000  0.99286000  1
  N  N27  1  0.52008000  0.37601000  0.49286000  1
  N  N28  1  0.57230000  0.05994000  0.44693000  1
  N  N29  1  0.57230000  0.44006000  0.94693000  1
  N  N30  1  0.67801000  0.20327000  0.81280000  1
  N  N31  1  0.67801000  0.29673000  0.31280000  1
  N  N32  1  0.73283000  0.20128000  0.73872000  1
  N  N33  1  0.73283000  0.29872000  0.23872000  1
  N  N34  1  0.78703000  0.19487000  0.66462000  1
  N  N35  1  0.78703000  0.30513000  0.16462000  1
  N  N36  1  0.89488000  0.05468000  0.02889000  1
  N  N37  1  0.89488000  0.44532000  0.52889000  1
  N  N38  1  0.95766000  0.11953000  0.48345000  1
  N  N39  1  0.95766000  0.38047000  0.98345000  1
