# generated using pymatgen
data_Pr2H17C24N5O18
_symmetry_space_group_name_H-M   'P 1'
_cell_length_a   8.57850000
_cell_length_b   13.82360000
_cell_length_c   31.93220000
_cell_angle_alpha   90.00000000
_cell_angle_beta   90.00000000
_cell_angle_gamma   90.00000000
_symmetry_Int_Tables_number   1
_chemical_formula_structural   Pr2H17C24N5O18
_chemical_formula_sum   'Pr8 H68 C96 N20 O72'
_cell_volume   3786.70396917
_cell_formula_units_Z   4
loop_
 _symmetry_equiv_pos_site_id
 _symmetry_equiv_pos_as_xyz
  1  'x, y, z'
loop_
 _atom_site_type_symbol
 _atom_site_label
 _atom_site_symmetry_multiplicity
 _atom_site_fract_x
 _atom_site_fract_y
 _atom_site_fract_z
 _atom_site_occupancy
  Pr  Pr0  1  0.07896000  0.20127000  0.60343000  1
  Pr  Pr1  1  0.07896000  0.20127000  0.89657000  1
  Pr  Pr2  1  0.42104000  0.70127000  0.10343000  1
  Pr  Pr3  1  0.42104000  0.70127000  0.39657000  1
  Pr  Pr4  1  0.57896000  0.29873000  0.60343000  1
  Pr  Pr5  1  0.57896000  0.29873000  0.89657000  1
  Pr  Pr6  1  0.92104000  0.79873000  0.10343000  1
  Pr  Pr7  1  0.92104000  0.79873000  0.39657000  1
  H  H8  1  0.03330000  0.48010000  0.60990000  1
  H  H9  1  0.03330000  0.48010000  0.89010000  1
  H  H10  1  0.09030000  0.31450000  0.02820000  1
  H  H11  1  0.09030000  0.31450000  0.47180000  1
  H  H12  1  0.11290000  0.40520000  0.68760000  1
  H  H13  1  0.11290000  0.40520000  0.81240000  1
  H  H14  1  0.15710000  0.32540000  0.11060000  1
  H  H15  1  0.15710000  0.32540000  0.38940000  1
  H  H16  1  0.17940000  0.98280000  0.22670000  1
  H  H17  1  0.17940000  0.98280000  0.27330000  1
  H  H18  1  0.19050000  0.42630000  0.11980000  1
  H  H19  1  0.19050000  0.42630000  0.38020000  1
  H  H20  1  0.21210000  0.02480000  0.00590000  1
  H  H21  1  0.21210000  0.02480000  0.49410000  1
  H  H22  1  0.23590000  0.87940000  0.58420000  1
  H  H23  1  0.23590000  0.87940000  0.91580000  1
  H  H24  1  0.24970000  0.20840000  0.75000000  1
  H  H25  1  0.25030000  0.70840000  0.25000000  1
  H  H26  1  0.26410000  0.37940000  0.08420000  1
  H  H27  1  0.26410000  0.37940000  0.41580000  1
  H  H28  1  0.28790000  0.52480000  0.50590000  1
  H  H29  1  0.28790000  0.52480000  0.99410000  1
  H  H30  1  0.30950000  0.92630000  0.61980000  1
  H  H31  1  0.30950000  0.92630000  0.88020000  1
  H  H32  1  0.32060000  0.48280000  0.72670000  1
  H  H33  1  0.32060000  0.48280000  0.77330000  1
  H  H34  1  0.34290000  0.82540000  0.61060000  1
  H  H35  1  0.34290000  0.82540000  0.88940000  1
  H  H36  1  0.38710000  0.90520000  0.18760000  1
  H  H37  1  0.38710000  0.90520000  0.31240000  1
  H  H38  1  0.40970000  0.81450000  0.52820000  1
  H  H39  1  0.40970000  0.81450000  0.97180000  1
  H  H40  1  0.46670000  0.98010000  0.10990000  1
  H  H41  1  0.46670000  0.98010000  0.39010000  1
  H  H42  1  0.53330000  0.01990000  0.60990000  1
  H  H43  1  0.53330000  0.01990000  0.89010000  1
  H  H44  1  0.59030000  0.18550000  0.02820000  1
  H  H45  1  0.59030000  0.18550000  0.47180000  1
  H  H46  1  0.61290000  0.09480000  0.68760000  1
  H  H47  1  0.61290000  0.09480000  0.81240000  1
  H  H48  1  0.65710000  0.17460000  0.11060000  1
  H  H49  1  0.65710000  0.17460000  0.38940000  1
  H  H50  1  0.67940000  0.51720000  0.22670000  1
  H  H51  1  0.67940000  0.51720000  0.27330000  1
  H  H52  1  0.69050000  0.07370000  0.11980000  1
  H  H53  1  0.69050000  0.07370000  0.38020000  1
  H  H54  1  0.71210000  0.47520000  0.00590000  1
  H  H55  1  0.71210000  0.47520000  0.49410000  1
  H  H56  1  0.73590000  0.62060000  0.58420000  1
  H  H57  1  0.73590000  0.62060000  0.91580000  1
  H  H58  1  0.74970000  0.29160000  0.75000000  1
  H  H59  1  0.75030000  0.79160000  0.25000000  1
  H  H60  1  0.76410000  0.12060000  0.08420000  1
  H  H61  1  0.76410000  0.12060000  0.41580000  1
  H  H62  1  0.78790000  0.97520000  0.50590000  1
  H  H63  1  0.78790000  0.97520000  0.99410000  1
  H  H64  1  0.80950000  0.57370000  0.61980000  1
  H  H65  1  0.80950000  0.57370000  0.88020000  1
  H  H66  1  0.82060000  0.01720000  0.72670000  1
  H  H67  1  0.82060000  0.01720000  0.77330000  1
  H  H68  1  0.84290000  0.67460000  0.61060000  1
  H  H69  1  0.84290000  0.67460000  0.88940000  1
  H  H70  1  0.88710000  0.59480000  0.18760000  1
  H  H71  1  0.88710000  0.59480000  0.31240000  1
  H  H72  1  0.90970000  0.68550000  0.52820000  1
  H  H73  1  0.90970000  0.68550000  0.97180000  1
  H  H74  1  0.96670000  0.51990000  0.10990000  1
  H  H75  1  0.96670000  0.51990000  0.39010000  1
  C  C76  1  0.02300000  0.36420000  0.03585000  1
  C  C77  1  0.02300000  0.36420000  0.46415000  1
  C  C78  1  0.04580000  0.41300000  0.07248000  1
  C  C79  1  0.04580000  0.41300000  0.42752000  1
  C  C80  1  0.05170000  0.51360000  0.58519000  1
  C  C81  1  0.05170000  0.51360000  0.91481000  1
  C  C82  1  0.06370000  0.38980000  0.71270000  1
  C  C83  1  0.06370000  0.38980000  0.78730000  1
  C  C84  1  0.08040000  0.65780000  0.21259000  1
  C  C85  1  0.08040000  0.65780000  0.28741000  1
  C  C86  1  0.10160000  0.61090000  0.50995000  1
  C  C87  1  0.10160000  0.61090000  0.99005000  1
  C  C88  1  0.12490000  0.66180000  0.03065000  1
  C  C89  1  0.12490000  0.66180000  0.46935000  1
  C  C90  1  0.13100000  0.41320000  0.75000000  1
  C  C91  1  0.15250000  0.67930000  0.25000000  1
  C  C92  1  0.15830000  0.68540000  0.17250000  1
  C  C93  1  0.15830000  0.68540000  0.32750000  1
  C  C94  1  0.17850000  0.49120000  0.55992000  1
  C  C95  1  0.17850000  0.49120000  0.94008000  1
  C  C96  1  0.20240000  0.54020000  0.52253000  1
  C  C97  1  0.20240000  0.54020000  0.97747000  1
  C  C98  1  0.20750000  0.91570000  0.07328000  1
  C  C99  1  0.20750000  0.91570000  0.42672000  1
  C  C100  1  0.29250000  0.41570000  0.57328000  1
  C  C101  1  0.29250000  0.41570000  0.92672000  1
  C  C102  1  0.29760000  0.04020000  0.02253000  1
  C  C103  1  0.29760000  0.04020000  0.47747000  1
  C  C104  1  0.32150000  0.99120000  0.05992000  1
  C  C105  1  0.32150000  0.99120000  0.44008000  1
  C  C106  1  0.34170000  0.18540000  0.67250000  1
  C  C107  1  0.34170000  0.18540000  0.82750000  1
  C  C108  1  0.34750000  0.17930000  0.75000000  1
  C  C109  1  0.36900000  0.91320000  0.25000000  1
  C  C110  1  0.37510000  0.16180000  0.53065000  1
  C  C111  1  0.37510000  0.16180000  0.96935000  1
  C  C112  1  0.39840000  0.11090000  0.00995000  1
  C  C113  1  0.39840000  0.11090000  0.49005000  1
  C  C114  1  0.41960000  0.15780000  0.71259000  1
  C  C115  1  0.41960000  0.15780000  0.78741000  1
  C  C116  1  0.43630000  0.88980000  0.21270000  1
  C  C117  1  0.43630000  0.88980000  0.28730000  1
  C  C118  1  0.44830000  0.01360000  0.08519000  1
  C  C119  1  0.44830000  0.01360000  0.41481000  1
  C  C120  1  0.45420000  0.91300000  0.57248000  1
  C  C121  1  0.45420000  0.91300000  0.92752000  1
  C  C122  1  0.47700000  0.86420000  0.53585000  1
  C  C123  1  0.47700000  0.86420000  0.96415000  1
  C  C124  1  0.52300000  0.13580000  0.03585000  1
  C  C125  1  0.52300000  0.13580000  0.46415000  1
  C  C126  1  0.54580000  0.08700000  0.07248000  1
  C  C127  1  0.54580000  0.08700000  0.42752000  1
  C  C128  1  0.55170000  0.98640000  0.58519000  1
  C  C129  1  0.55170000  0.98640000  0.91481000  1
  C  C130  1  0.56370000  0.11020000  0.71270000  1
  C  C131  1  0.56370000  0.11020000  0.78730000  1
  C  C132  1  0.58040000  0.84220000  0.21259000  1
  C  C133  1  0.58040000  0.84220000  0.28741000  1
  C  C134  1  0.60160000  0.88910000  0.50995000  1
  C  C135  1  0.60160000  0.88910000  0.99005000  1
  C  C136  1  0.62490000  0.83820000  0.03065000  1
  C  C137  1  0.62490000  0.83820000  0.46935000  1
  C  C138  1  0.63100000  0.08680000  0.75000000  1
  C  C139  1  0.65250000  0.82070000  0.25000000  1
  C  C140  1  0.65830000  0.81460000  0.17250000  1
  C  C141  1  0.65830000  0.81460000  0.32750000  1
  C  C142  1  0.67850000  0.00880000  0.55992000  1
  C  C143  1  0.67850000  0.00880000  0.94008000  1
  C  C144  1  0.70240000  0.95980000  0.52253000  1
  C  C145  1  0.70240000  0.95980000  0.97747000  1
  C  C146  1  0.70750000  0.58430000  0.07328000  1
  C  C147  1  0.70750000  0.58430000  0.42672000  1
  C  C148  1  0.79250000  0.08430000  0.57328000  1
  C  C149  1  0.79250000  0.08430000  0.92672000  1
  C  C150  1  0.79760000  0.45980000  0.02253000  1
  C  C151  1  0.79760000  0.45980000  0.47747000  1
  C  C152  1  0.82150000  0.50880000  0.05992000  1
  C  C153  1  0.82150000  0.50880000  0.44008000  1
  C  C154  1  0.84170000  0.31460000  0.67250000  1
  C  C155  1  0.84170000  0.31460000  0.82750000  1
  C  C156  1  0.84750000  0.32070000  0.75000000  1
  C  C157  1  0.86900000  0.58680000  0.25000000  1
  C  C158  1  0.87510000  0.33820000  0.53065000  1
  C  C159  1  0.87510000  0.33820000  0.96935000  1
  C  C160  1  0.89840000  0.38910000  0.00995000  1
  C  C161  1  0.89840000  0.38910000  0.49005000  1
  C  C162  1  0.91960000  0.34220000  0.71259000  1
  C  C163  1  0.91960000  0.34220000  0.78741000  1
  C  C164  1  0.93630000  0.61020000  0.21270000  1
  C  C165  1  0.93630000  0.61020000  0.28730000  1
  C  C166  1  0.94830000  0.48640000  0.08519000  1
  C  C167  1  0.94830000  0.48640000  0.41481000  1
  C  C168  1  0.95420000  0.58700000  0.57248000  1
  C  C169  1  0.95420000  0.58700000  0.92752000  1
  C  C170  1  0.97700000  0.63580000  0.53585000  1
  C  C171  1  0.97700000  0.63580000  0.96415000  1
  N  N172  1  0.04170000  0.02740000  0.66180000  1
  N  N173  1  0.04170000  0.02740000  0.83820000  1
  N  N174  1  0.17750000  0.38300000  0.09948000  1
  N  N175  1  0.17750000  0.38300000  0.40052000  1
  N  N176  1  0.22220000  0.96650000  0.25000000  1
  N  N177  1  0.27780000  0.46650000  0.75000000  1
  N  N178  1  0.32250000  0.88300000  0.59948000  1
  N  N179  1  0.32250000  0.88300000  0.90052000  1
  N  N180  1  0.45830000  0.52740000  0.16180000  1
  N  N181  1  0.45830000  0.52740000  0.33820000  1
  N  N182  1  0.54170000  0.47260000  0.66180000  1
  N  N183  1  0.54170000  0.47260000  0.83820000  1
  N  N184  1  0.67750000  0.11700000  0.09948000  1
  N  N185  1  0.67750000  0.11700000  0.40052000  1
  N  N186  1  0.72220000  0.53350000  0.25000000  1
  N  N187  1  0.77780000  0.03350000  0.75000000  1
  N  N188  1  0.82250000  0.61700000  0.59948000  1
  N  N189  1  0.82250000  0.61700000  0.90052000  1
  N  N190  1  0.95830000  0.97260000  0.16180000  1
  N  N191  1  0.95830000  0.97260000  0.33820000  1
  O  O192  1  0.02000000  0.72140000  0.04201000  1
  O  O193  1  0.02000000  0.72140000  0.45799000  1
  O  O194  1  0.04630000  0.96140000  0.68870000  1
  O  O195  1  0.04630000  0.96140000  0.81130000  1
  O  O196  1  0.05990000  0.90970000  0.16370000  1
  O  O197  1  0.05990000  0.90970000  0.33630000  1
  O  O198  1  0.06580000  0.92870000  0.06351000  1
  O  O199  1  0.06580000  0.92870000  0.43649000  1
  O  O200  1  0.08020000  0.68000000  0.13846000  1
  O  O201  1  0.08020000  0.68000000  0.36154000  1
  O  O202  1  0.14660000  0.03170000  0.63437000  1
  O  O203  1  0.14660000  0.03170000  0.86563000  1
  O  O204  1  0.20350000  0.21160000  0.67348000  1
  O  O205  1  0.20350000  0.21160000  0.82652000  1
  O  O206  1  0.24290000  0.64090000  0.05194000  1
  O  O207  1  0.24290000  0.64090000  0.44806000  1
  O  O208  1  0.24740000  0.84290000  0.09505000  1
  O  O209  1  0.24740000  0.84290000  0.40495000  1
  O  O210  1  0.25260000  0.34290000  0.59505000  1
  O  O211  1  0.25260000  0.34290000  0.90495000  1
  O  O212  1  0.25710000  0.14090000  0.55194000  1
  O  O213  1  0.25710000  0.14090000  0.94806000  1
  O  O214  1  0.29650000  0.71160000  0.17348000  1
  O  O215  1  0.29650000  0.71160000  0.32652000  1
  O  O216  1  0.35340000  0.53170000  0.13437000  1
  O  O217  1  0.35340000  0.53170000  0.36563000  1
  O  O218  1  0.41980000  0.18000000  0.63846000  1
  O  O219  1  0.41980000  0.18000000  0.86154000  1
  O  O220  1  0.43420000  0.42870000  0.56351000  1
  O  O221  1  0.43420000  0.42870000  0.93649000  1
  O  O222  1  0.44010000  0.40970000  0.66370000  1
  O  O223  1  0.44010000  0.40970000  0.83630000  1
  O  O224  1  0.45370000  0.46140000  0.18870000  1
  O  O225  1  0.45370000  0.46140000  0.31130000  1
  O  O226  1  0.48000000  0.22140000  0.54201000  1
  O  O227  1  0.48000000  0.22140000  0.95799000  1
  O  O228  1  0.52000000  0.77860000  0.04201000  1
  O  O229  1  0.52000000  0.77860000  0.45799000  1
  O  O230  1  0.54630000  0.53860000  0.68870000  1
  O  O231  1  0.54630000  0.53860000  0.81130000  1
  O  O232  1  0.55990000  0.59030000  0.16370000  1
  O  O233  1  0.55990000  0.59030000  0.33630000  1
  O  O234  1  0.56580000  0.57130000  0.06351000  1
  O  O235  1  0.56580000  0.57130000  0.43649000  1
  O  O236  1  0.58020000  0.82000000  0.13846000  1
  O  O237  1  0.58020000  0.82000000  0.36154000  1
  O  O238  1  0.64660000  0.46830000  0.63437000  1
  O  O239  1  0.64660000  0.46830000  0.86563000  1
  O  O240  1  0.70350000  0.28840000  0.67348000  1
  O  O241  1  0.70350000  0.28840000  0.82652000  1
  O  O242  1  0.74290000  0.85910000  0.05194000  1
  O  O243  1  0.74290000  0.85910000  0.44806000  1
  O  O244  1  0.74740000  0.65710000  0.09505000  1
  O  O245  1  0.74740000  0.65710000  0.40495000  1
  O  O246  1  0.75260000  0.15710000  0.59505000  1
  O  O247  1  0.75260000  0.15710000  0.90495000  1
  O  O248  1  0.75710000  0.35910000  0.55194000  1
  O  O249  1  0.75710000  0.35910000  0.94806000  1
  O  O250  1  0.79650000  0.78840000  0.17348000  1
  O  O251  1  0.79650000  0.78840000  0.32652000  1
  O  O252  1  0.85340000  0.96830000  0.13437000  1
  O  O253  1  0.85340000  0.96830000  0.36563000  1
  O  O254  1  0.91980000  0.32000000  0.63846000  1
  O  O255  1  0.91980000  0.32000000  0.86154000  1
  O  O256  1  0.93420000  0.07130000  0.56351000  1
  O  O257  1  0.93420000  0.07130000  0.93649000  1
  O  O258  1  0.94010000  0.09030000  0.66370000  1
  O  O259  1  0.94010000  0.09030000  0.83630000  1
  O  O260  1  0.95370000  0.03860000  0.18870000  1
  O  O261  1  0.95370000  0.03860000  0.31130000  1
  O  O262  1  0.98000000  0.27860000  0.54201000  1
  O  O263  1  0.98000000  0.27860000  0.95799000  1
