# generated using pymatgen
data_CoH45(C5N)10
_symmetry_space_group_name_H-M   'P 1'
_cell_length_a   8.77960000
_cell_length_b   14.85700000
_cell_length_c   21.62100000
_cell_angle_alpha   72.21200000
_cell_angle_beta   81.68600000
_cell_angle_gamma   83.57200000
_symmetry_Int_Tables_number   1
_chemical_formula_structural   CoH45(C5N)10
_chemical_formula_sum   'Co2 H90 C100 N20'
_cell_volume   2650.27962532
_cell_formula_units_Z   2
loop_
 _symmetry_equiv_pos_site_id
 _symmetry_equiv_pos_as_xyz
  1  'x, y, z'
loop_
 _atom_site_type_symbol
 _atom_site_label
 _atom_site_symmetry_multiplicity
 _atom_site_fract_x
 _atom_site_fract_y
 _atom_site_fract_z
 _atom_site_occupancy
  Co  Co0  1  0.00000000  0.00000000  0.00000000  1
  Co  Co1  1  0.00000000  0.00000000  0.50000000  1
  H  H2  1  0.00290000  0.65190000  0.70230000  1
  H  H3  1  0.00310000  0.17800000  0.36560000  1
  H  H4  1  0.01040000  0.55440000  0.82840000  1
  H  H5  1  0.02220000  0.41690000  0.55620000  1
  H  H6  1  0.02360000  0.77380000  0.03070000  1
  H  H7  1  0.02830000  0.58160000  0.65980000  1
  H  H8  1  0.04480000  0.10890000  0.75510000  1
  H  H9  1  0.08260000  0.72100000  0.38780000  1
  H  H10  1  0.10780000  0.85570000  0.27780000  1
  H  H11  1  0.12400000  0.59730000  0.09100000  1
  H  H12  1  0.13570000  0.91420000  0.37780000  1
  H  H13  1  0.13850000  0.34710000  0.45170000  1
  H  H14  1  0.14510000  0.18640000  0.52680000  1
  H  H15  1  0.16050000  0.53120000  0.32220000  1
  H  H16  1  0.16430000  0.58050000  0.16210000  1
  H  H17  1  0.16580000  0.90340000  0.14180000  1
  H  H18  1  0.18080000  0.28740000  0.84550000  1
  H  H19  1  0.19560000  0.73310000  0.19610000  1
  H  H20  1  0.20940000  0.80040000  0.51500000  1
  H  H21  1  0.23810000  0.49410000  0.48270000  1
  H  H22  1  0.24280000  0.21540000  0.73350000  1
  H  H23  1  0.24710000  0.60770000  0.78650000  1
  H  H24  1  0.26540000  0.01700000  0.69120000  1
  H  H25  1  0.26590000  0.94630000  0.60480000  1
  H  H26  1  0.26860000  0.06710000  0.06680000  1
  H  H27  1  0.27650000  0.08710000  0.88240000  1
  H  H28  1  0.27860000  0.30470000  0.26000000  1
  H  H29  1  0.33820000  0.52350000  0.65130000  1
  H  H30  1  0.34690000  0.35520000  0.68030000  1
  H  H31  1  0.34820000  0.86980000  0.99580000  1
  H  H32  1  0.35160000  0.05180000  0.43170000  1
  H  H33  1  0.35630000  0.62940000  0.42590000  1
  H  H34  1  0.36250000  0.75730000  0.90670000  1
  H  H35  1  0.38750000  0.59750000  0.91640000  1
  H  H36  1  0.39500000  0.59180000  0.27500000  1
  H  H37  1  0.39830000  0.25690000  0.51720000  1
  H  H38  1  0.42050000  0.34180000  0.80380000  1
  H  H39  1  0.43840000  0.06970000  0.58700000  1
  H  H40  1  0.45770000  0.45830000  0.91540000  1
  H  H41  1  0.45950000  0.65680000  0.59380000  1
  H  H42  1  0.46040000  0.88640000  0.93070000  1
  H  H43  1  0.47000000  0.25440000  0.58000000  1
  H  H44  1  0.47480000  0.30060000  0.92560000  1
  H  H45  1  0.48680000  0.85240000  0.10610000  1
  H  H46  1  0.48970000  0.63670000  0.78900000  1
  H  H47  1  0.51030000  0.36330000  0.21100000  1
  H  H48  1  0.51320000  0.14760000  0.89390000  1
  H  H49  1  0.52520000  0.69940000  0.07440000  1
  H  H50  1  0.53000000  0.74560000  0.42000000  1
  H  H51  1  0.53960000  0.11360000  0.06930000  1
  H  H52  1  0.54050000  0.34320000  0.40620000  1
  H  H53  1  0.54230000  0.54170000  0.08460000  1
  H  H54  1  0.56160000  0.93030000  0.41300000  1
  H  H55  1  0.57950000  0.65820000  0.19620000  1
  H  H56  1  0.60170000  0.74310000  0.48280000  1
  H  H57  1  0.60500000  0.40820000  0.72500000  1
  H  H58  1  0.61250000  0.40250000  0.08360000  1
  H  H59  1  0.63750000  0.24270000  0.09330000  1
  H  H60  1  0.64370000  0.37060000  0.57410000  1
  H  H61  1  0.64840000  0.94820000  0.56830000  1
  H  H62  1  0.65180000  0.13020000  0.00420000  1
  H  H63  1  0.65310000  0.64480000  0.31970000  1
  H  H64  1  0.66180000  0.47650000  0.34870000  1
  H  H65  1  0.72140000  0.69530000  0.74000000  1
  H  H66  1  0.72350000  0.91290000  0.11760000  1
  H  H67  1  0.73140000  0.93290000  0.93320000  1
  H  H68  1  0.73410000  0.05370000  0.39520000  1
  H  H69  1  0.73460000  0.98300000  0.30880000  1
  H  H70  1  0.75290000  0.39230000  0.21350000  1
  H  H71  1  0.75720000  0.78460000  0.26650000  1
  H  H72  1  0.76190000  0.50590000  0.51730000  1
  H  H73  1  0.79060000  0.19960000  0.48500000  1
  H  H74  1  0.80440000  0.26690000  0.80390000  1
  H  H75  1  0.81920000  0.71260000  0.15450000  1
  H  H76  1  0.83420000  0.09660000  0.85820000  1
  H  H77  1  0.83570000  0.41950000  0.83790000  1
  H  H78  1  0.83950000  0.46880000  0.67780000  1
  H  H79  1  0.85490000  0.81360000  0.47320000  1
  H  H80  1  0.86150000  0.65290000  0.54830000  1
  H  H81  1  0.86430000  0.08580000  0.62220000  1
  H  H82  1  0.87600000  0.40270000  0.90900000  1
  H  H83  1  0.89220000  0.14430000  0.72220000  1
  H  H84  1  0.91740000  0.27900000  0.61220000  1
  H  H85  1  0.95520000  0.89110000  0.24490000  1
  H  H86  1  0.97170000  0.41840000  0.34020000  1
  H  H87  1  0.97640000  0.22620000  0.96930000  1
  H  H88  1  0.97780000  0.58310000  0.44380000  1
  H  H89  1  0.98960000  0.44560000  0.17160000  1
  H  H90  1  0.99690000  0.82200000  0.63440000  1
  H  H91  1  0.99710000  0.34810000  0.29770000  1
  C  C92  1  0.00370000  0.13630000  0.71350000  1
  C  C93  1  0.00470000  0.29420000  0.62560000  1
  C  C94  1  0.03530000  0.93970000  0.37190000  1
  C  C95  1  0.03810000  0.19960000  0.39680000  1
  C  C96  1  0.04260000  0.36970000  0.32850000  1
  C  C97  1  0.06190000  0.78540000  0.06520000  1
  C  C98  1  0.06700000  0.23090000  0.67960000  1
  C  C99  1  0.06730000  0.37700000  0.59210000  1
  C  C100  1  0.06750000  0.41460000  0.84190000  1
  C  C101  1  0.09270000  0.51100000  0.82340000  1
  C  C102  1  0.09350000  0.61490000  0.13100000  1
  C  C103  1  0.11220000  0.29330000  0.44340000  1
  C  C104  1  0.11560000  0.20430000  0.48480000  1
  C  C105  1  0.13980000  0.85590000  0.12620000  1
  C  C106  1  0.15720000  0.76210000  0.15630000  1
  C  C107  1  0.18470000  0.02260000  0.66650000  1
  C  C108  1  0.18480000  0.98390000  0.61890000  1
  C  C109  1  0.19340000  0.35200000  0.83380000  1
  C  C110  1  0.19390000  0.41180000  0.29600000  1
  C  C111  1  0.19770000  0.25660000  0.69800000  1
  C  C112  1  0.20170000  0.40490000  0.61040000  1
  C  C113  1  0.23140000  0.49710000  0.30010000  1
  C  C114  1  0.23490000  0.54300000  0.79830000  1
  C  C115  1  0.26140000  0.34030000  0.66560000  1
  C  C116  1  0.27260000  0.84900000  0.49230000  1
  C  C117  1  0.27380000  0.49290000  0.57380000  1
  C  C118  1  0.28190000  0.52690000  0.50520000  1
  C  C119  1  0.30040000  0.07860000  0.02230000  1
  C  C120  1  0.30150000  0.36280000  0.26280000  1
  C  C121  1  0.30560000  0.08990000  0.92140000  1
  C  C122  1  0.33790000  0.38520000  0.80850000  1
  C  C123  1  0.34220000  0.54430000  0.60600000  1
  C  C124  1  0.34730000  0.98640000  0.44690000  1
  C  C125  1  0.35340000  0.60770000  0.47120000  1
  C  C126  1  0.36330000  0.48080000  0.78980000  1
  C  C127  1  0.37290000  0.53360000  0.27190000  1
  C  C128  1  0.41000000  0.71510000  0.94110000  1
  C  C129  1  0.41440000  0.62410000  0.57160000  1
  C  C130  1  0.42200000  0.65800000  0.50330000  1
  C  C131  1  0.42500000  0.61800000  0.94740000  1
  C  C132  1  0.43600000  0.12380000  0.92750000  1
  C  C133  1  0.44170000  0.39730000  0.23400000  1
  C  C134  1  0.45040000  0.85260000  0.97710000  1
  C  C135  1  0.46420000  0.74690000  0.98540000  1
  C  C136  1  0.46530000  0.91790000  0.43690000  1
  C  C137  1  0.48210000  0.48300000  0.23880000  1
  C  C138  1  0.48340000  0.41540000  0.95450000  1
  C  C139  1  0.49250000  0.55150000  0.99700000  1
  C  C140  1  0.49480000  0.25420000  0.53490000  1
  C  C141  1  0.49550000  0.31980000  0.96050000  1
  C  C142  1  0.50450000  0.68020000  0.03950000  1
  C  C143  1  0.50520000  0.74580000  0.46510000  1
  C  C144  1  0.50750000  0.44850000  0.00300000  1
  C  C145  1  0.51660000  0.58460000  0.04550000  1
  C  C146  1  0.51790000  0.51700000  0.76120000  1
  C  C147  1  0.53470000  0.08210000  0.56310000  1
  C  C148  1  0.53580000  0.25310000  0.01460000  1
  C  C149  1  0.54960000  0.14740000  0.02290000  1
  C  C150  1  0.55830000  0.60270000  0.76600000  1
  C  C151  1  0.56400000  0.87620000  0.07250000  1
  C  C152  1  0.57500000  0.38200000  0.05260000  1
  C  C153  1  0.57800000  0.34200000  0.49670000  1
  C  C154  1  0.58560000  0.37590000  0.42840000  1
  C  C155  1  0.59000000  0.28490000  0.05890000  1
  C  C156  1  0.62710000  0.46640000  0.72810000  1
  C  C157  1  0.63670000  0.51920000  0.21020000  1
  C  C158  1  0.64660000  0.39230000  0.52880000  1
  C  C159  1  0.65270000  0.01360000  0.55310000  1
  C  C160  1  0.65780000  0.45570000  0.39400000  1
  C  C161  1  0.66210000  0.61480000  0.19150000  1
  C  C162  1  0.69440000  0.91010000  0.07860000  1
  C  C163  1  0.69850000  0.63720000  0.73720000  1
  C  C164  1  0.69960000  0.92140000  0.97770000  1
  C  C165  1  0.71810000  0.47310000  0.49480000  1
  C  C166  1  0.72620000  0.50710000  0.42620000  1
  C  C167  1  0.72740000  0.15100000  0.50770000  1
  C  C168  1  0.73860000  0.65970000  0.33440000  1
  C  C169  1  0.76510000  0.45700000  0.20170000  1
  C  C170  1  0.76860000  0.50290000  0.69990000  1
  C  C171  1  0.79830000  0.59510000  0.38960000  1
  C  C172  1  0.80230000  0.74340000  0.30200000  1
  C  C173  1  0.80610000  0.58820000  0.70400000  1
  C  C174  1  0.80660000  0.64800000  0.16620000  1
  C  C175  1  0.81520000  0.01610000  0.38110000  1
  C  C176  1  0.81530000  0.97740000  0.33350000  1
  C  C177  1  0.84280000  0.23790000  0.84370000  1
  C  C178  1  0.86020000  0.14410000  0.87380000  1
  C  C179  1  0.88440000  0.79570000  0.51520000  1
  C  C180  1  0.88780000  0.70670000  0.55660000  1
  C  C181  1  0.90650000  0.38510000  0.86900000  1
  C  C182  1  0.90730000  0.48900000  0.17660000  1
  C  C183  1  0.93250000  0.58540000  0.15810000  1
  C  C184  1  0.93270000  0.62300000  0.40790000  1
  C  C185  1  0.93300000  0.76910000  0.32040000  1
  C  C186  1  0.93810000  0.21460000  0.93480000  1
  C  C187  1  0.95740000  0.63030000  0.67150000  1
  C  C188  1  0.96190000  0.80040000  0.60320000  1
  C  C189  1  0.96470000  0.06030000  0.62810000  1
  C  C190  1  0.99530000  0.70580000  0.37440000  1
  C  C191  1  0.99630000  0.86370000  0.28650000  1
  N  N192  1  0.04400000  0.00830000  0.59350000  1
  N  N193  1  0.04500000  0.07250000  0.67290000  1
  N  N194  1  0.06360000  0.28980000  0.38750000  1
  N  N195  1  0.06810000  0.14420000  0.45490000  1
  N  N196  1  0.07740000  0.87030000  0.06880000  1
  N  N197  1  0.10750000  0.71780000  0.11680000  1
  N  N198  1  0.22070000  0.05960000  0.98230000  1
  N  N199  1  0.22900000  0.93940000  0.48220000  1
  N  N200  1  0.41610000  0.83460000  0.46680000  1
  N  N201  1  0.43450000  0.11670000  0.99240000  1
  N  N202  1  0.56550000  0.88330000  0.00760000  1
  N  N203  1  0.58390000  0.16540000  0.53320000  1
  N  N204  1  0.77100000  0.06060000  0.51780000  1
  N  N205  1  0.77930000  0.94040000  0.01770000  1
  N  N206  1  0.89250000  0.28220000  0.88320000  1
  N  N207  1  0.92260000  0.12970000  0.93120000  1
  N  N208  1  0.93190000  0.85580000  0.54510000  1
  N  N209  1  0.93640000  0.71020000  0.61250000  1
  N  N210  1  0.95500000  0.92750000  0.32710000  1
  N  N211  1  0.95600000  0.99170000  0.40650000  1
