# generated using pymatgen
data_CuH16C28(NO2)2
_symmetry_space_group_name_H-M   'P 1'
_cell_length_a   38.34200000
_cell_length_b   39.70700000
_cell_length_c   39.70700000
_cell_angle_alpha   90.00000000
_cell_angle_beta   90.00000000
_cell_angle_gamma   90.00000000
_symmetry_Int_Tables_number   1
_chemical_formula_structural   CuH16C28(NO2)2
_chemical_formula_sum   'Cu24 H384 C672 N48 O96'
_cell_volume   60451.75514236
_cell_formula_units_Z   24
loop_
 _symmetry_equiv_pos_site_id
 _symmetry_equiv_pos_as_xyz
  1  'x, y, z'
loop_
 _atom_site_type_symbol
 _atom_site_label
 _atom_site_symmetry_multiplicity
 _atom_site_fract_x
 _atom_site_fract_y
 _atom_site_fract_z
 _atom_site_occupancy
  Cu  Cu0  1  0.04678000  0.25000000  0.25000000  1
  Cu  Cu1  1  0.11629000  0.25000000  0.25000000  1
  Cu  Cu2  1  0.18154000  0.25000000  0.02750000  1
  Cu  Cu3  1  0.18154000  0.25000000  0.47250000  1
  Cu  Cu4  1  0.18378000  0.25000000  0.53960000  1
  Cu  Cu5  1  0.18378000  0.25000000  0.96040000  1
  Cu  Cu6  1  0.31622000  0.03960000  0.75000000  1
  Cu  Cu7  1  0.31622000  0.46040000  0.75000000  1
  Cu  Cu8  1  0.31846000  0.52750000  0.75000000  1
  Cu  Cu9  1  0.31846000  0.97250000  0.75000000  1
  Cu  Cu10  1  0.38371000  0.75000000  0.75000000  1
  Cu  Cu11  1  0.45322000  0.75000000  0.75000000  1
  Cu  Cu12  1  0.54678000  0.25000000  0.25000000  1
  Cu  Cu13  1  0.61629000  0.25000000  0.25000000  1
  Cu  Cu14  1  0.68154000  0.02750000  0.25000000  1
  Cu  Cu15  1  0.68154000  0.47250000  0.25000000  1
  Cu  Cu16  1  0.68378000  0.53960000  0.25000000  1
  Cu  Cu17  1  0.68378000  0.96040000  0.25000000  1
  Cu  Cu18  1  0.81622000  0.75000000  0.03960000  1
  Cu  Cu19  1  0.81622000  0.75000000  0.46040000  1
  Cu  Cu20  1  0.81846000  0.75000000  0.52750000  1
  Cu  Cu21  1  0.81846000  0.75000000  0.97250000  1
  Cu  Cu22  1  0.88371000  0.75000000  0.75000000  1
  Cu  Cu23  1  0.95322000  0.75000000  0.75000000  1
  H  H24  1  0.00350000  0.11810000  0.03340000  1
  H  H25  1  0.00350000  0.11810000  0.46660000  1
  H  H26  1  0.00350000  0.38190000  0.03340000  1
  H  H27  1  0.00350000  0.38190000  0.46660000  1
  H  H28  1  0.00750000  0.03040000  0.54810000  1
  H  H29  1  0.00750000  0.03040000  0.95190000  1
  H  H30  1  0.00750000  0.46960000  0.54810000  1
  H  H31  1  0.00750000  0.46960000  0.95190000  1
  H  H32  1  0.02490000  0.13700000  0.13430000  1
  H  H33  1  0.02490000  0.13700000  0.36570000  1
  H  H34  1  0.02490000  0.36300000  0.13430000  1
  H  H35  1  0.02490000  0.36300000  0.36570000  1
  H  H36  1  0.02790000  0.03660000  0.07640000  1
  H  H37  1  0.02790000  0.03660000  0.42360000  1
  H  H38  1  0.02790000  0.46340000  0.07640000  1
  H  H39  1  0.02790000  0.46340000  0.42360000  1
  H  H40  1  0.02850000  0.08030000  0.11540000  1
  H  H41  1  0.02850000  0.08030000  0.38460000  1
  H  H42  1  0.02850000  0.41970000  0.11540000  1
  H  H43  1  0.02850000  0.41970000  0.38460000  1
  H  H44  1  0.02990000  0.18000000  0.17470000  1
  H  H45  1  0.02990000  0.18000000  0.32530000  1
  H  H46  1  0.02990000  0.32000000  0.17470000  1
  H  H47  1  0.02990000  0.32000000  0.32530000  1
  H  H48  1  0.03840000  0.57450000  0.53270000  1
  H  H49  1  0.03840000  0.57450000  0.96730000  1
  H  H50  1  0.03840000  0.92550000  0.53270000  1
  H  H51  1  0.03840000  0.92550000  0.96730000  1
  H  H52  1  0.04760000  0.07360000  0.54840000  1
  H  H53  1  0.04760000  0.07360000  0.95160000  1
  H  H54  1  0.04760000  0.42640000  0.54840000  1
  H  H55  1  0.04760000  0.42640000  0.95160000  1
  H  H56  1  0.05980000  0.13110000  0.04090000  1
  H  H57  1  0.05980000  0.13110000  0.45910000  1
  H  H58  1  0.05980000  0.36890000  0.04090000  1
  H  H59  1  0.05980000  0.36890000  0.45910000  1
  H  H60  1  0.06660000  0.13090000  0.56220000  1
  H  H61  1  0.06660000  0.13090000  0.93780000  1
  H  H62  1  0.06660000  0.36910000  0.56220000  1
  H  H63  1  0.06660000  0.36910000  0.93780000  1
  H  H64  1  0.09970000  0.17530000  0.04230000  1
  H  H65  1  0.09970000  0.17530000  0.45770000  1
  H  H66  1  0.09970000  0.32470000  0.04230000  1
  H  H67  1  0.09970000  0.32470000  0.45770000  1
  H  H68  1  0.10550000  0.54360000  0.56590000  1
  H  H69  1  0.10550000  0.54360000  0.93410000  1
  H  H70  1  0.10550000  0.95640000  0.56590000  1
  H  H71  1  0.10550000  0.95640000  0.93410000  1
  H  H72  1  0.10760000  0.17450000  0.55600000  1
  H  H73  1  0.10760000  0.17450000  0.94400000  1
  H  H74  1  0.10760000  0.32550000  0.55600000  1
  H  H75  1  0.10760000  0.32550000  0.94400000  1
  H  H76  1  0.12430000  0.06290000  0.04710000  1
  H  H77  1  0.12430000  0.06290000  0.45290000  1
  H  H78  1  0.12430000  0.43710000  0.04710000  1
  H  H79  1  0.12430000  0.43710000  0.45290000  1
  H  H80  1  0.12580000  0.10540000  0.08640000  1
  H  H81  1  0.12580000  0.10540000  0.41360000  1
  H  H82  1  0.12580000  0.39460000  0.08640000  1
  H  H83  1  0.12580000  0.39460000  0.41360000  1
  H  H84  1  0.12730000  0.12170000  0.13710000  1
  H  H85  1  0.12730000  0.12170000  0.36290000  1
  H  H86  1  0.12730000  0.37830000  0.13710000  1
  H  H87  1  0.12730000  0.37830000  0.36290000  1
  H  H88  1  0.13260000  0.16370000  0.17680000  1
  H  H89  1  0.13260000  0.16370000  0.32320000  1
  H  H90  1  0.13260000  0.33630000  0.17680000  1
  H  H91  1  0.13260000  0.33630000  0.32320000  1
  H  H92  1  0.14070000  0.54110000  0.61130000  1
  H  H93  1  0.14070000  0.54110000  0.88870000  1
  H  H94  1  0.14070000  0.95890000  0.61130000  1
  H  H95  1  0.14070000  0.95890000  0.88870000  1
  H  H96  1  0.14230000  0.04440000  0.53520000  1
  H  H97  1  0.14230000  0.04440000  0.96480000  1
  H  H98  1  0.14230000  0.45560000  0.53520000  1
  H  H99  1  0.14230000  0.45560000  0.96480000  1
  H  H100  1  0.18340000  0.04510000  0.57800000  1
  H  H101  1  0.18340000  0.04510000  0.92200000  1
  H  H102  1  0.18340000  0.45490000  0.57800000  1
  H  H103  1  0.18340000  0.45490000  0.92200000  1
  H  H104  1  0.19150000  0.05130000  0.62900000  1
  H  H105  1  0.19150000  0.05130000  0.87100000  1
  H  H106  1  0.19150000  0.44870000  0.62900000  1
  H  H107  1  0.19150000  0.44870000  0.87100000  1
  H  H108  1  0.20100000  0.54870000  0.63010000  1
  H  H109  1  0.20100000  0.54870000  0.86990000  1
  H  H110  1  0.20100000  0.95130000  0.63010000  1
  H  H111  1  0.20100000  0.95130000  0.86990000  1
  H  H112  1  0.23340000  0.05600000  0.66970000  1
  H  H113  1  0.23340000  0.05600000  0.83030000  1
  H  H114  1  0.23340000  0.44400000  0.66970000  1
  H  H115  1  0.23340000  0.44400000  0.83030000  1
  H  H116  1  0.24220000  0.54620000  0.67330000  1
  H  H117  1  0.24220000  0.54620000  0.82670000  1
  H  H118  1  0.24220000  0.95380000  0.67330000  1
  H  H119  1  0.24220000  0.95380000  0.82670000  1
  H  H120  1  0.25780000  0.17330000  0.04620000  1
  H  H121  1  0.25780000  0.17330000  0.45380000  1
  H  H122  1  0.25780000  0.32670000  0.04620000  1
  H  H123  1  0.25780000  0.32670000  0.45380000  1
  H  H124  1  0.26660000  0.16970000  0.55600000  1
  H  H125  1  0.26660000  0.16970000  0.94400000  1
  H  H126  1  0.26660000  0.33030000  0.55600000  1
  H  H127  1  0.26660000  0.33030000  0.94400000  1
  H  H128  1  0.29900000  0.13010000  0.04870000  1
  H  H129  1  0.29900000  0.13010000  0.45130000  1
  H  H130  1  0.29900000  0.36990000  0.04870000  1
  H  H131  1  0.29900000  0.36990000  0.45130000  1
  H  H132  1  0.30850000  0.12900000  0.55130000  1
  H  H133  1  0.30850000  0.12900000  0.94870000  1
  H  H134  1  0.30850000  0.37100000  0.55130000  1
  H  H135  1  0.30850000  0.37100000  0.94870000  1
  H  H136  1  0.31660000  0.07800000  0.54510000  1
  H  H137  1  0.31660000  0.07800000  0.95490000  1
  H  H138  1  0.31660000  0.42200000  0.54510000  1
  H  H139  1  0.31660000  0.42200000  0.95490000  1
  H  H140  1  0.35770000  0.03520000  0.54440000  1
  H  H141  1  0.35770000  0.03520000  0.95560000  1
  H  H142  1  0.35770000  0.46480000  0.54440000  1
  H  H143  1  0.35770000  0.46480000  0.95560000  1
  H  H144  1  0.35930000  0.11130000  0.04110000  1
  H  H145  1  0.35930000  0.11130000  0.45890000  1
  H  H146  1  0.35930000  0.38870000  0.04110000  1
  H  H147  1  0.35930000  0.38870000  0.45890000  1
  H  H148  1  0.36740000  0.67680000  0.66370000  1
  H  H149  1  0.36740000  0.67680000  0.83630000  1
  H  H150  1  0.36740000  0.82320000  0.66370000  1
  H  H151  1  0.36740000  0.82320000  0.83630000  1
  H  H152  1  0.37270000  0.63710000  0.62170000  1
  H  H153  1  0.37270000  0.63710000  0.87830000  1
  H  H154  1  0.37270000  0.86290000  0.62170000  1
  H  H155  1  0.37270000  0.86290000  0.87830000  1
  H  H156  1  0.37420000  0.58640000  0.60540000  1
  H  H157  1  0.37420000  0.58640000  0.89460000  1
  H  H158  1  0.37420000  0.91360000  0.60540000  1
  H  H159  1  0.37420000  0.91360000  0.89460000  1
  H  H160  1  0.37570000  0.54710000  0.56290000  1
  H  H161  1  0.37570000  0.54710000  0.93710000  1
  H  H162  1  0.37570000  0.95290000  0.56290000  1
  H  H163  1  0.37570000  0.95290000  0.93710000  1
  H  H164  1  0.39240000  0.05600000  0.67450000  1
  H  H165  1  0.39240000  0.05600000  0.82550000  1
  H  H166  1  0.39240000  0.44400000  0.67450000  1
  H  H167  1  0.39240000  0.44400000  0.82550000  1
  H  H168  1  0.39450000  0.06590000  0.04360000  1
  H  H169  1  0.39450000  0.06590000  0.45640000  1
  H  H170  1  0.39450000  0.43410000  0.04360000  1
  H  H171  1  0.39450000  0.43410000  0.45640000  1
  H  H172  1  0.40030000  0.54230000  0.67530000  1
  H  H173  1  0.40030000  0.54230000  0.82470000  1
  H  H174  1  0.40030000  0.95770000  0.67530000  1
  H  H175  1  0.40030000  0.95770000  0.82470000  1
  H  H176  1  0.43340000  0.06220000  0.63090000  1
  H  H177  1  0.43340000  0.06220000  0.86910000  1
  H  H178  1  0.43340000  0.43780000  0.63090000  1
  H  H179  1  0.43340000  0.43780000  0.86910000  1
  H  H180  1  0.44020000  0.54090000  0.63110000  1
  H  H181  1  0.44020000  0.54090000  0.86890000  1
  H  H182  1  0.44020000  0.95910000  0.63110000  1
  H  H183  1  0.44020000  0.95910000  0.86890000  1
  H  H184  1  0.45240000  0.04840000  0.57360000  1
  H  H185  1  0.45240000  0.04840000  0.92640000  1
  H  H186  1  0.45240000  0.45160000  0.57360000  1
  H  H187  1  0.45240000  0.45160000  0.92640000  1
  H  H188  1  0.46160000  0.03270000  0.07450000  1
  H  H189  1  0.46160000  0.03270000  0.42550000  1
  H  H190  1  0.46160000  0.46730000  0.07450000  1
  H  H191  1  0.46160000  0.46730000  0.42550000  1
  H  H192  1  0.47010000  0.67470000  0.68000000  1
  H  H193  1  0.47010000  0.67470000  0.82000000  1
  H  H194  1  0.47010000  0.82530000  0.68000000  1
  H  H195  1  0.47010000  0.82530000  0.82000000  1
  H  H196  1  0.47150000  0.61540000  0.58030000  1
  H  H197  1  0.47150000  0.61540000  0.91970000  1
  H  H198  1  0.47150000  0.88460000  0.58030000  1
  H  H199  1  0.47150000  0.88460000  0.91970000  1
  H  H200  1  0.47210000  0.57640000  0.53660000  1
  H  H201  1  0.47210000  0.57640000  0.96340000  1
  H  H202  1  0.47210000  0.92360000  0.53660000  1
  H  H203  1  0.47210000  0.92360000  0.96340000  1
  H  H204  1  0.47510000  0.63430000  0.63700000  1
  H  H205  1  0.47510000  0.63430000  0.86300000  1
  H  H206  1  0.47510000  0.86570000  0.63700000  1
  H  H207  1  0.47510000  0.86570000  0.86300000  1
  H  H208  1  0.49250000  0.04810000  0.53040000  1
  H  H209  1  0.49250000  0.04810000  0.96960000  1
  H  H210  1  0.49250000  0.45190000  0.53040000  1
  H  H211  1  0.49250000  0.45190000  0.96960000  1
  H  H212  1  0.49650000  0.53340000  0.61810000  1
  H  H213  1  0.49650000  0.53340000  0.88190000  1
  H  H214  1  0.49650000  0.96660000  0.61810000  1
  H  H215  1  0.49650000  0.96660000  0.88190000  1
  H  H216  1  0.50350000  0.03340000  0.11810000  1
  H  H217  1  0.50350000  0.03340000  0.38190000  1
  H  H218  1  0.50350000  0.46660000  0.11810000  1
  H  H219  1  0.50350000  0.46660000  0.38190000  1
  H  H220  1  0.50750000  0.54810000  0.03040000  1
  H  H221  1  0.50750000  0.54810000  0.46960000  1
  H  H222  1  0.50750000  0.95190000  0.03040000  1
  H  H223  1  0.50750000  0.95190000  0.46960000  1
  H  H224  1  0.52490000  0.13430000  0.13700000  1
  H  H225  1  0.52490000  0.13430000  0.36300000  1
  H  H226  1  0.52490000  0.36570000  0.13700000  1
  H  H227  1  0.52490000  0.36570000  0.36300000  1
  H  H228  1  0.52790000  0.07640000  0.03660000  1
  H  H229  1  0.52790000  0.07640000  0.46340000  1
  H  H230  1  0.52790000  0.42360000  0.03660000  1
  H  H231  1  0.52790000  0.42360000  0.46340000  1
  H  H232  1  0.52850000  0.11540000  0.08030000  1
  H  H233  1  0.52850000  0.11540000  0.41970000  1
  H  H234  1  0.52850000  0.38460000  0.08030000  1
  H  H235  1  0.52850000  0.38460000  0.41970000  1
  H  H236  1  0.52990000  0.17470000  0.18000000  1
  H  H237  1  0.52990000  0.17470000  0.32000000  1
  H  H238  1  0.52990000  0.32530000  0.18000000  1
  H  H239  1  0.52990000  0.32530000  0.32000000  1
  H  H240  1  0.53840000  0.53270000  0.57450000  1
  H  H241  1  0.53840000  0.53270000  0.92550000  1
  H  H242  1  0.53840000  0.96730000  0.57450000  1
  H  H243  1  0.53840000  0.96730000  0.92550000  1
  H  H244  1  0.54760000  0.54840000  0.07360000  1
  H  H245  1  0.54760000  0.54840000  0.42640000  1
  H  H246  1  0.54760000  0.95160000  0.07360000  1
  H  H247  1  0.54760000  0.95160000  0.42640000  1
  H  H248  1  0.55980000  0.04090000  0.13110000  1
  H  H249  1  0.55980000  0.04090000  0.36890000  1
  H  H250  1  0.55980000  0.45910000  0.13110000  1
  H  H251  1  0.55980000  0.45910000  0.36890000  1
  H  H252  1  0.56660000  0.56220000  0.13090000  1
  H  H253  1  0.56660000  0.56220000  0.36910000  1
  H  H254  1  0.56660000  0.93780000  0.13090000  1
  H  H255  1  0.56660000  0.93780000  0.36910000  1
  H  H256  1  0.59970000  0.04230000  0.17530000  1
  H  H257  1  0.59970000  0.04230000  0.32470000  1
  H  H258  1  0.59970000  0.45770000  0.17530000  1
  H  H259  1  0.59970000  0.45770000  0.32470000  1
  H  H260  1  0.60550000  0.56590000  0.54360000  1
  H  H261  1  0.60550000  0.56590000  0.95640000  1
  H  H262  1  0.60550000  0.93410000  0.54360000  1
  H  H263  1  0.60550000  0.93410000  0.95640000  1
  H  H264  1  0.60760000  0.55600000  0.17450000  1
  H  H265  1  0.60760000  0.55600000  0.32550000  1
  H  H266  1  0.60760000  0.94400000  0.17450000  1
  H  H267  1  0.60760000  0.94400000  0.32550000  1
  H  H268  1  0.62430000  0.04710000  0.06290000  1
  H  H269  1  0.62430000  0.04710000  0.43710000  1
  H  H270  1  0.62430000  0.45290000  0.06290000  1
  H  H271  1  0.62430000  0.45290000  0.43710000  1
  H  H272  1  0.62580000  0.08640000  0.10540000  1
  H  H273  1  0.62580000  0.08640000  0.39460000  1
  H  H274  1  0.62580000  0.41360000  0.10540000  1
  H  H275  1  0.62580000  0.41360000  0.39460000  1
  H  H276  1  0.62730000  0.13710000  0.12170000  1
  H  H277  1  0.62730000  0.13710000  0.37830000  1
  H  H278  1  0.62730000  0.36290000  0.12170000  1
  H  H279  1  0.62730000  0.36290000  0.37830000  1
  H  H280  1  0.63260000  0.17680000  0.16370000  1
  H  H281  1  0.63260000  0.17680000  0.33630000  1
  H  H282  1  0.63260000  0.32320000  0.16370000  1
  H  H283  1  0.63260000  0.32320000  0.33630000  1
  H  H284  1  0.64070000  0.61130000  0.54110000  1
  H  H285  1  0.64070000  0.61130000  0.95890000  1
  H  H286  1  0.64070000  0.88870000  0.54110000  1
  H  H287  1  0.64070000  0.88870000  0.95890000  1
  H  H288  1  0.64230000  0.53520000  0.04440000  1
  H  H289  1  0.64230000  0.53520000  0.45560000  1
  H  H290  1  0.64230000  0.96480000  0.04440000  1
  H  H291  1  0.64230000  0.96480000  0.45560000  1
  H  H292  1  0.68340000  0.57800000  0.04510000  1
  H  H293  1  0.68340000  0.57800000  0.45490000  1
  H  H294  1  0.68340000  0.92200000  0.04510000  1
  H  H295  1  0.68340000  0.92200000  0.45490000  1
  H  H296  1  0.69150000  0.62900000  0.05130000  1
  H  H297  1  0.69150000  0.62900000  0.44870000  1
  H  H298  1  0.69150000  0.87100000  0.05130000  1
  H  H299  1  0.69150000  0.87100000  0.44870000  1
  H  H300  1  0.70100000  0.63010000  0.54870000  1
  H  H301  1  0.70100000  0.63010000  0.95130000  1
  H  H302  1  0.70100000  0.86990000  0.54870000  1
  H  H303  1  0.70100000  0.86990000  0.95130000  1
  H  H304  1  0.73340000  0.66970000  0.05600000  1
  H  H305  1  0.73340000  0.66970000  0.44400000  1
  H  H306  1  0.73340000  0.83030000  0.05600000  1
  H  H307  1  0.73340000  0.83030000  0.44400000  1
  H  H308  1  0.74220000  0.67330000  0.54620000  1
  H  H309  1  0.74220000  0.67330000  0.95380000  1
  H  H310  1  0.74220000  0.82670000  0.54620000  1
  H  H311  1  0.74220000  0.82670000  0.95380000  1
  H  H312  1  0.75780000  0.04620000  0.17330000  1
  H  H313  1  0.75780000  0.04620000  0.32670000  1
  H  H314  1  0.75780000  0.45380000  0.17330000  1
  H  H315  1  0.75780000  0.45380000  0.32670000  1
  H  H316  1  0.76660000  0.55600000  0.16970000  1
  H  H317  1  0.76660000  0.55600000  0.33030000  1
  H  H318  1  0.76660000  0.94400000  0.16970000  1
  H  H319  1  0.76660000  0.94400000  0.33030000  1
  H  H320  1  0.79900000  0.04870000  0.13010000  1
  H  H321  1  0.79900000  0.04870000  0.36990000  1
  H  H322  1  0.79900000  0.45130000  0.13010000  1
  H  H323  1  0.79900000  0.45130000  0.36990000  1
  H  H324  1  0.80850000  0.55130000  0.12900000  1
  H  H325  1  0.80850000  0.55130000  0.37100000  1
  H  H326  1  0.80850000  0.94870000  0.12900000  1
  H  H327  1  0.80850000  0.94870000  0.37100000  1
  H  H328  1  0.81660000  0.54510000  0.07800000  1
  H  H329  1  0.81660000  0.54510000  0.42200000  1
  H  H330  1  0.81660000  0.95490000  0.07800000  1
  H  H331  1  0.81660000  0.95490000  0.42200000  1
  H  H332  1  0.85770000  0.54440000  0.03520000  1
  H  H333  1  0.85770000  0.54440000  0.46480000  1
  H  H334  1  0.85770000  0.95560000  0.03520000  1
  H  H335  1  0.85770000  0.95560000  0.46480000  1
  H  H336  1  0.85930000  0.04110000  0.11130000  1
  H  H337  1  0.85930000  0.04110000  0.38870000  1
  H  H338  1  0.85930000  0.45890000  0.11130000  1
  H  H339  1  0.85930000  0.45890000  0.38870000  1
  H  H340  1  0.86740000  0.66370000  0.67680000  1
  H  H341  1  0.86740000  0.66370000  0.82320000  1
  H  H342  1  0.86740000  0.83630000  0.67680000  1
  H  H343  1  0.86740000  0.83630000  0.82320000  1
  H  H344  1  0.87270000  0.62170000  0.63710000  1
  H  H345  1  0.87270000  0.62170000  0.86290000  1
  H  H346  1  0.87270000  0.87830000  0.63710000  1
  H  H347  1  0.87270000  0.87830000  0.86290000  1
  H  H348  1  0.87420000  0.60540000  0.58640000  1
  H  H349  1  0.87420000  0.60540000  0.91360000  1
  H  H350  1  0.87420000  0.89460000  0.58640000  1
  H  H351  1  0.87420000  0.89460000  0.91360000  1
  H  H352  1  0.87570000  0.56290000  0.54710000  1
  H  H353  1  0.87570000  0.56290000  0.95290000  1
  H  H354  1  0.87570000  0.93710000  0.54710000  1
  H  H355  1  0.87570000  0.93710000  0.95290000  1
  H  H356  1  0.89240000  0.67450000  0.05600000  1
  H  H357  1  0.89240000  0.67450000  0.44400000  1
  H  H358  1  0.89240000  0.82550000  0.05600000  1
  H  H359  1  0.89240000  0.82550000  0.44400000  1
  H  H360  1  0.89450000  0.04360000  0.06590000  1
  H  H361  1  0.89450000  0.04360000  0.43410000  1
  H  H362  1  0.89450000  0.45640000  0.06590000  1
  H  H363  1  0.89450000  0.45640000  0.43410000  1
  H  H364  1  0.90030000  0.67530000  0.54230000  1
  H  H365  1  0.90030000  0.67530000  0.95770000  1
  H  H366  1  0.90030000  0.82470000  0.54230000  1
  H  H367  1  0.90030000  0.82470000  0.95770000  1
  H  H368  1  0.93340000  0.63090000  0.06220000  1
  H  H369  1  0.93340000  0.63090000  0.43780000  1
  H  H370  1  0.93340000  0.86910000  0.06220000  1
  H  H371  1  0.93340000  0.86910000  0.43780000  1
  H  H372  1  0.94020000  0.63110000  0.54090000  1
  H  H373  1  0.94020000  0.63110000  0.95910000  1
  H  H374  1  0.94020000  0.86890000  0.54090000  1
  H  H375  1  0.94020000  0.86890000  0.95910000  1
  H  H376  1  0.95240000  0.57360000  0.04840000  1
  H  H377  1  0.95240000  0.57360000  0.45160000  1
  H  H378  1  0.95240000  0.92640000  0.04840000  1
  H  H379  1  0.95240000  0.92640000  0.45160000  1
  H  H380  1  0.96160000  0.07450000  0.03270000  1
  H  H381  1  0.96160000  0.07450000  0.46730000  1
  H  H382  1  0.96160000  0.42550000  0.03270000  1
  H  H383  1  0.96160000  0.42550000  0.46730000  1
  H  H384  1  0.97010000  0.68000000  0.67470000  1
  H  H385  1  0.97010000  0.68000000  0.82530000  1
  H  H386  1  0.97010000  0.82000000  0.67470000  1
  H  H387  1  0.97010000  0.82000000  0.82530000  1
  H  H388  1  0.97150000  0.58030000  0.61540000  1
  H  H389  1  0.97150000  0.58030000  0.88460000  1
  H  H390  1  0.97150000  0.91970000  0.61540000  1
  H  H391  1  0.97150000  0.91970000  0.88460000  1
  H  H392  1  0.97210000  0.53660000  0.57640000  1
  H  H393  1  0.97210000  0.53660000  0.92360000  1
  H  H394  1  0.97210000  0.96340000  0.57640000  1
  H  H395  1  0.97210000  0.96340000  0.92360000  1
  H  H396  1  0.97510000  0.63700000  0.63430000  1
  H  H397  1  0.97510000  0.63700000  0.86570000  1
  H  H398  1  0.97510000  0.86300000  0.63430000  1
  H  H399  1  0.97510000  0.86300000  0.86570000  1
  H  H400  1  0.99250000  0.53040000  0.04810000  1
  H  H401  1  0.99250000  0.53040000  0.45190000  1
  H  H402  1  0.99250000  0.96960000  0.04810000  1
  H  H403  1  0.99250000  0.96960000  0.45190000  1
  H  H404  1  0.99650000  0.61810000  0.53340000  1
  H  H405  1  0.99650000  0.61810000  0.96660000  1
  H  H406  1  0.99650000  0.88190000  0.53340000  1
  H  H407  1  0.99650000  0.88190000  0.96660000  1
  C  C408  1  0.00430000  0.10100000  0.01740000  1
  C  C409  1  0.00430000  0.10100000  0.48260000  1
  C  C410  1  0.00430000  0.39900000  0.01740000  1
  C  C411  1  0.00430000  0.39900000  0.48260000  1
  C  C412  1  0.00650000  0.04750000  0.53220000  1
  C  C413  1  0.00650000  0.04750000  0.96780000  1
  C  C414  1  0.00650000  0.45250000  0.53220000  1
  C  C415  1  0.00650000  0.45250000  0.96780000  1
  C  C416  1  0.01930000  0.54830000  0.00750000  1
  C  C417  1  0.01930000  0.54830000  0.49250000  1
  C  C418  1  0.01930000  0.95170000  0.00750000  1
  C  C419  1  0.01930000  0.95170000  0.49250000  1
  C  C420  1  0.02060000  0.57460000  0.51670000  1
  C  C421  1  0.02060000  0.57460000  0.98330000  1
  C  C422  1  0.02060000  0.92540000  0.51670000  1
  C  C423  1  0.02060000  0.92540000  0.98330000  1
  C  C424  1  0.03020000  0.09940000  0.50750000  1
  C  C425  1  0.03020000  0.09940000  0.99250000  1
  C  C426  1  0.03020000  0.40060000  0.50750000  1
  C  C427  1  0.03020000  0.40060000  0.99250000  1
  C  C428  1  0.03040000  0.07330000  0.53180000  1
  C  C429  1  0.03040000  0.07330000  0.96820000  1
  C  C430  1  0.03040000  0.42670000  0.53180000  1
  C  C431  1  0.03040000  0.42670000  0.96820000  1
  C  C432  1  0.04680000  0.14190000  0.14330000  1
  C  C433  1  0.04680000  0.14190000  0.35670000  1
  C  C434  1  0.04680000  0.35810000  0.14330000  1
  C  C435  1  0.04680000  0.35810000  0.35670000  1
  C  C436  1  0.04710000  0.05080000  0.07840000  1
  C  C437  1  0.04710000  0.05080000  0.42160000  1
  C  C438  1  0.04710000  0.44920000  0.07840000  1
  C  C439  1  0.04710000  0.44920000  0.42160000  1
  C  C440  1  0.04720000  0.52300000  0.00750000  1
  C  C441  1  0.04720000  0.52300000  0.49250000  1
  C  C442  1  0.04720000  0.97700000  0.00750000  1
  C  C443  1  0.04720000  0.97700000  0.49250000  1
  C  C444  1  0.04810000  0.07580000  0.10240000  1
  C  C445  1  0.04810000  0.07580000  0.39760000  1
  C  C446  1  0.04810000  0.42420000  0.10240000  1
  C  C447  1  0.04810000  0.42420000  0.39760000  1
  C  C448  1  0.04970000  0.16840000  0.16750000  1
  C  C449  1  0.04970000  0.16840000  0.33250000  1
  C  C450  1  0.04970000  0.33160000  0.16750000  1
  C  C451  1  0.04970000  0.33160000  0.33250000  1
  C  C452  1  0.05850000  0.12770000  0.51020000  1
  C  C453  1  0.05850000  0.12770000  0.98980000  1
  C  C454  1  0.05850000  0.37230000  0.51020000  1
  C  C455  1  0.05850000  0.37230000  0.98980000  1
  C  C456  1  0.06890000  0.13990000  0.02100000  1
  C  C457  1  0.06890000  0.13990000  0.47900000  1
  C  C458  1  0.06890000  0.36010000  0.02100000  1
  C  C459  1  0.06890000  0.36010000  0.47900000  1
  C  C460  1  0.07290000  0.13940000  0.54120000  1
  C  C461  1  0.07290000  0.13940000  0.95880000  1
  C  C462  1  0.07290000  0.36060000  0.54120000  1
  C  C463  1  0.07290000  0.36060000  0.95880000  1
  C  C464  1  0.07420000  0.02180000  0.03040000  1
  C  C465  1  0.07420000  0.02180000  0.46960000  1
  C  C466  1  0.07420000  0.47820000  0.03040000  1
  C  C467  1  0.07420000  0.47820000  0.46960000  1
  C  C468  1  0.07540000  0.04730000  0.05750000  1
  C  C469  1  0.07540000  0.04730000  0.44250000  1
  C  C470  1  0.07540000  0.45270000  0.05750000  1
  C  C471  1  0.07540000  0.45270000  0.44250000  1
  C  C472  1  0.07650000  0.12250000  0.13210000  1
  C  C473  1  0.07650000  0.12250000  0.36790000  1
  C  C474  1  0.07650000  0.37750000  0.13210000  1
  C  C475  1  0.07650000  0.37750000  0.36790000  1
  C  C476  1  0.07810000  0.09390000  0.10690000  1
  C  C477  1  0.07810000  0.09390000  0.39310000  1
  C  C478  1  0.07810000  0.40610000  0.10690000  1
  C  C479  1  0.07810000  0.40610000  0.39310000  1
  C  C480  1  0.07880000  0.20590000  0.20490000  1
  C  C481  1  0.07880000  0.20590000  0.29510000  1
  C  C482  1  0.07880000  0.29410000  0.20490000  1
  C  C483  1  0.07880000  0.29410000  0.29510000  1
  C  C484  1  0.08200000  0.17650000  0.18020000  1
  C  C485  1  0.08200000  0.17650000  0.31980000  1
  C  C486  1  0.08200000  0.32350000  0.18020000  1
  C  C487  1  0.08200000  0.32350000  0.31980000  1
  C  C488  1  0.09360000  0.16610000  0.02150000  1
  C  C489  1  0.09360000  0.16610000  0.47850000  1
  C  C490  1  0.09360000  0.33390000  0.02150000  1
  C  C491  1  0.09360000  0.33390000  0.47850000  1
  C  C492  1  0.09460000  0.50070000  0.51980000  1
  C  C493  1  0.09460000  0.50070000  0.98020000  1
  C  C494  1  0.09460000  0.99930000  0.51980000  1
  C  C495  1  0.09460000  0.99930000  0.98020000  1
  C  C496  1  0.09790000  0.16550000  0.53640000  1
  C  C497  1  0.09790000  0.16550000  0.96360000  1
  C  C498  1  0.09790000  0.33450000  0.53640000  1
  C  C499  1  0.09790000  0.33450000  0.96360000  1
  C  C500  1  0.10530000  0.06670000  0.06100000  1
  C  C501  1  0.10530000  0.06670000  0.43900000  1
  C  C502  1  0.10530000  0.43330000  0.06100000  1
  C  C503  1  0.10530000  0.43330000  0.43900000  1
  C  C504  1  0.10660000  0.09110000  0.08480000  1
  C  C505  1  0.10660000  0.09110000  0.41520000  1
  C  C506  1  0.10660000  0.40890000  0.08480000  1
  C  C507  1  0.10660000  0.40890000  0.41520000  1
  C  C508  1  0.10720000  0.13240000  0.14460000  1
  C  C509  1  0.10720000  0.13240000  0.35540000  1
  C  C510  1  0.10720000  0.36760000  0.14460000  1
  C  C511  1  0.10720000  0.36760000  0.35540000  1
  C  C512  1  0.10950000  0.17890000  0.50700000  1
  C  C513  1  0.10950000  0.17890000  0.99300000  1
  C  C514  1  0.10950000  0.32110000  0.50700000  1
  C  C515  1  0.10950000  0.32110000  0.99300000  1
  C  C516  1  0.11050000  0.15850000  0.16860000  1
  C  C517  1  0.11050000  0.15850000  0.33140000  1
  C  C518  1  0.11050000  0.34150000  0.16860000  1
  C  C519  1  0.11050000  0.34150000  0.33140000  1
  C  C520  1  0.12010000  0.50040000  0.54730000  1
  C  C521  1  0.12010000  0.50040000  0.95270000  1
  C  C522  1  0.12010000  0.99960000  0.54730000  1
  C  C523  1  0.12010000  0.99960000  0.95270000  1
  C  C524  1  0.12040000  0.52530000  0.56890000  1
  C  C525  1  0.12040000  0.52530000  0.93110000  1
  C  C526  1  0.12040000  0.97470000  0.56890000  1
  C  C527  1  0.12040000  0.97470000  0.93110000  1
  C  C528  1  0.13630000  0.20360000  0.50730000  1
  C  C529  1  0.13630000  0.20360000  0.99270000  1
  C  C530  1  0.13630000  0.29640000  0.50730000  1
  C  C531  1  0.13630000  0.29640000  0.99270000  1
  C  C532  1  0.14170000  0.52450000  0.59490000  1
  C  C533  1  0.14170000  0.52450000  0.90510000  1
  C  C534  1  0.14170000  0.97550000  0.59490000  1
  C  C535  1  0.14170000  0.97550000  0.90510000  1
  C  C536  1  0.14340000  0.02680000  0.55060000  1
  C  C537  1  0.14340000  0.02680000  0.94940000  1
  C  C538  1  0.14340000  0.47320000  0.55060000  1
  C  C539  1  0.14340000  0.47320000  0.94940000  1
  C  C540  1  0.16560000  0.00170000  0.59710000  1
  C  C541  1  0.16560000  0.00170000  0.90290000  1
  C  C542  1  0.16560000  0.49830000  0.59710000  1
  C  C543  1  0.16560000  0.49830000  0.90290000  1
  C  C544  1  0.16720000  0.02780000  0.57580000  1
  C  C545  1  0.16720000  0.02780000  0.92420000  1
  C  C546  1  0.16720000  0.47220000  0.57580000  1
  C  C547  1  0.16720000  0.47220000  0.92420000  1
  C  C548  1  0.19280000  0.00140000  0.62500000  1
  C  C549  1  0.19280000  0.00140000  0.87500000  1
  C  C550  1  0.19280000  0.49860000  0.62500000  1
  C  C551  1  0.19280000  0.49860000  0.87500000  1
  C  C552  1  0.20210000  0.03200000  0.63740000  1
  C  C553  1  0.20210000  0.03200000  0.86260000  1
  C  C554  1  0.20210000  0.46800000  0.63740000  1
  C  C555  1  0.20210000  0.46800000  0.86260000  1
  C  C556  1  0.20780000  0.52790000  0.63860000  1
  C  C557  1  0.20780000  0.52790000  0.86140000  1
  C  C558  1  0.20780000  0.97210000  0.63860000  1
  C  C559  1  0.20780000  0.97210000  0.86140000  1
  C  C560  1  0.22670000  0.03480000  0.66220000  1
  C  C561  1  0.22670000  0.03480000  0.83780000  1
  C  C562  1  0.22670000  0.46520000  0.66220000  1
  C  C563  1  0.22670000  0.46520000  0.83780000  1
  C  C564  1  0.22840000  0.20680000  0.50540000  1
  C  C565  1  0.22840000  0.20680000  0.99460000  1
  C  C566  1  0.22840000  0.29320000  0.50540000  1
  C  C567  1  0.22840000  0.29320000  0.99460000  1
  C  C568  1  0.23250000  0.52670000  0.66430000  1
  C  C569  1  0.23250000  0.52670000  0.83570000  1
  C  C570  1  0.23250000  0.97330000  0.66430000  1
  C  C571  1  0.23250000  0.97330000  0.83570000  1
  C  C572  1  0.24210000  0.00600000  0.67620000  1
  C  C573  1  0.24210000  0.00600000  0.82380000  1
  C  C574  1  0.24210000  0.49400000  0.67620000  1
  C  C575  1  0.24210000  0.49400000  0.82380000  1
  C  C576  1  0.25790000  0.17620000  0.50600000  1
  C  C577  1  0.25790000  0.17620000  0.99400000  1
  C  C578  1  0.25790000  0.32380000  0.50600000  1
  C  C579  1  0.25790000  0.32380000  0.99400000  1
  C  C580  1  0.26750000  0.16430000  0.02670000  1
  C  C581  1  0.26750000  0.16430000  0.47330000  1
  C  C582  1  0.26750000  0.33570000  0.02670000  1
  C  C583  1  0.26750000  0.33570000  0.47330000  1
  C  C584  1  0.27160000  0.00540000  0.70680000  1
  C  C585  1  0.27160000  0.00540000  0.79320000  1
  C  C586  1  0.27160000  0.49460000  0.70680000  1
  C  C587  1  0.27160000  0.49460000  0.79320000  1
  C  C588  1  0.27330000  0.16220000  0.53480000  1
  C  C589  1  0.27330000  0.16220000  0.96520000  1
  C  C590  1  0.27330000  0.33780000  0.53480000  1
  C  C591  1  0.27330000  0.33780000  0.96520000  1
  C  C592  1  0.29220000  0.13860000  0.02790000  1
  C  C593  1  0.29220000  0.13860000  0.47210000  1
  C  C594  1  0.29220000  0.36140000  0.02790000  1
  C  C595  1  0.29220000  0.36140000  0.47210000  1
  C  C596  1  0.29790000  0.13740000  0.53200000  1
  C  C597  1  0.29790000  0.13740000  0.96800000  1
  C  C598  1  0.29790000  0.36260000  0.53200000  1
  C  C599  1  0.29790000  0.36260000  0.96800000  1
  C  C600  1  0.30720000  0.12500000  0.50140000  1
  C  C601  1  0.30720000  0.12500000  0.99860000  1
  C  C602  1  0.30720000  0.37500000  0.50140000  1
  C  C603  1  0.30720000  0.37500000  0.99860000  1
  C  C604  1  0.33280000  0.07580000  0.52780000  1
  C  C605  1  0.33280000  0.07580000  0.97220000  1
  C  C606  1  0.33280000  0.42420000  0.52780000  1
  C  C607  1  0.33280000  0.42420000  0.97220000  1
  C  C608  1  0.33440000  0.09710000  0.50170000  1
  C  C609  1  0.33440000  0.09710000  0.99830000  1
  C  C610  1  0.33440000  0.40290000  0.50170000  1
  C  C611  1  0.33440000  0.40290000  0.99830000  1
  C  C612  1  0.35660000  0.05060000  0.52680000  1
  C  C613  1  0.35660000  0.05060000  0.97320000  1
  C  C614  1  0.35660000  0.44940000  0.52680000  1
  C  C615  1  0.35660000  0.44940000  0.97320000  1
  C  C616  1  0.35830000  0.09490000  0.02450000  1
  C  C617  1  0.35830000  0.09490000  0.47550000  1
  C  C618  1  0.35830000  0.40510000  0.02450000  1
  C  C619  1  0.35830000  0.40510000  0.47550000  1
  C  C620  1  0.36370000  0.00730000  0.70360000  1
  C  C621  1  0.36370000  0.00730000  0.79640000  1
  C  C622  1  0.36370000  0.49270000  0.70360000  1
  C  C623  1  0.36370000  0.49270000  0.79640000  1
  C  C624  1  0.37960000  0.06890000  0.02530000  1
  C  C625  1  0.37960000  0.06890000  0.47470000  1
  C  C626  1  0.37960000  0.43110000  0.02530000  1
  C  C627  1  0.37960000  0.43110000  0.47470000  1
  C  C628  1  0.37990000  0.04730000  0.00040000  1
  C  C629  1  0.37990000  0.04730000  0.49960000  1
  C  C630  1  0.37990000  0.45270000  0.00040000  1
  C  C631  1  0.37990000  0.45270000  0.49960000  1
  C  C632  1  0.38950000  0.66860000  0.65850000  1
  C  C633  1  0.38950000  0.66860000  0.84150000  1
  C  C634  1  0.38950000  0.83140000  0.65850000  1
  C  C635  1  0.38950000  0.83140000  0.84150000  1
  C  C636  1  0.39050000  0.00700000  0.67890000  1
  C  C637  1  0.39050000  0.00700000  0.82110000  1
  C  C638  1  0.39050000  0.49300000  0.67890000  1
  C  C639  1  0.39050000  0.49300000  0.82110000  1
  C  C640  1  0.39280000  0.64460000  0.63240000  1
  C  C641  1  0.39280000  0.64460000  0.86760000  1
  C  C642  1  0.39280000  0.85540000  0.63240000  1
  C  C643  1  0.39280000  0.85540000  0.86760000  1
  C  C644  1  0.39340000  0.58480000  0.59110000  1
  C  C645  1  0.39340000  0.58480000  0.90890000  1
  C  C646  1  0.39340000  0.91520000  0.59110000  1
  C  C647  1  0.39340000  0.91520000  0.90890000  1
  C  C648  1  0.39470000  0.56100000  0.56670000  1
  C  C649  1  0.39470000  0.56100000  0.93330000  1
  C  C650  1  0.39470000  0.93900000  0.56670000  1
  C  C651  1  0.39470000  0.93900000  0.93330000  1
  C  C652  1  0.40210000  0.03640000  0.66550000  1
  C  C653  1  0.40210000  0.03640000  0.83450000  1
  C  C654  1  0.40210000  0.46360000  0.66550000  1
  C  C655  1  0.40210000  0.46360000  0.83450000  1
  C  C656  1  0.40540000  0.01980000  0.00070000  1
  C  C657  1  0.40540000  0.01980000  0.49930000  1
  C  C658  1  0.40540000  0.48020000  0.00070000  1
  C  C659  1  0.40540000  0.48020000  0.49930000  1
  C  C660  1  0.40640000  0.52150000  0.66610000  1
  C  C661  1  0.40640000  0.52150000  0.83390000  1
  C  C662  1  0.40640000  0.97850000  0.66610000  1
  C  C663  1  0.40640000  0.97850000  0.83390000  1
  C  C664  1  0.41800000  0.68020000  0.67650000  1
  C  C665  1  0.41800000  0.68020000  0.82350000  1
  C  C666  1  0.41800000  0.81980000  0.67650000  1
  C  C667  1  0.41800000  0.81980000  0.82350000  1
  C  C668  1  0.42120000  0.70490000  0.70590000  1
  C  C669  1  0.42120000  0.70490000  0.79410000  1
  C  C670  1  0.42120000  0.79510000  0.70590000  1
  C  C671  1  0.42120000  0.79510000  0.79410000  1
  C  C672  1  0.42190000  0.60690000  0.59390000  1
  C  C673  1  0.42190000  0.60690000  0.90610000  1
  C  C674  1  0.42190000  0.89310000  0.59390000  1
  C  C675  1  0.42190000  0.89310000  0.90610000  1
  C  C676  1  0.42350000  0.63210000  0.62250000  1
  C  C677  1  0.42350000  0.63210000  0.87750000  1
  C  C678  1  0.42350000  0.86790000  0.62250000  1
  C  C679  1  0.42350000  0.86790000  0.87750000  1
  C  C680  1  0.42460000  0.55750000  0.54730000  1
  C  C681  1  0.42460000  0.55750000  0.95270000  1
  C  C682  1  0.42460000  0.94250000  0.54730000  1
  C  C683  1  0.42460000  0.94250000  0.95270000  1
  C  C684  1  0.42580000  0.53040000  0.52180000  1
  C  C685  1  0.42580000  0.53040000  0.97820000  1
  C  C686  1  0.42580000  0.96960000  0.52180000  1
  C  C687  1  0.42580000  0.96960000  0.97820000  1
  C  C688  1  0.42710000  0.04120000  0.63940000  1
  C  C689  1  0.42710000  0.04120000  0.86060000  1
  C  C690  1  0.42710000  0.45880000  0.63940000  1
  C  C691  1  0.42710000  0.45880000  0.86060000  1
  C  C692  1  0.43110000  0.52100000  0.63990000  1
  C  C693  1  0.43110000  0.52100000  0.86010000  1
  C  C694  1  0.43110000  0.97900000  0.63990000  1
  C  C695  1  0.43110000  0.97900000  0.86010000  1
  C  C696  1  0.44150000  0.01020000  0.62770000  1
  C  C697  1  0.44150000  0.01020000  0.87230000  1
  C  C698  1  0.44150000  0.48980000  0.62770000  1
  C  C699  1  0.44150000  0.48980000  0.87230000  1
  C  C700  1  0.45030000  0.66750000  0.66840000  1
  C  C701  1  0.45030000  0.66750000  0.83160000  1
  C  C702  1  0.45030000  0.83250000  0.66840000  1
  C  C703  1  0.45030000  0.83250000  0.83160000  1
  C  C704  1  0.45190000  0.60240000  0.57580000  1
  C  C705  1  0.45190000  0.60240000  0.92420000  1
  C  C706  1  0.45190000  0.89760000  0.57580000  1
  C  C707  1  0.45190000  0.89760000  0.92420000  1
  C  C708  1  0.45280000  0.50750000  0.02300000  1
  C  C709  1  0.45280000  0.50750000  0.47700000  1
  C  C710  1  0.45280000  0.99250000  0.02300000  1
  C  C711  1  0.45280000  0.99250000  0.47700000  1
  C  C712  1  0.45290000  0.57840000  0.55080000  1
  C  C713  1  0.45290000  0.57840000  0.94920000  1
  C  C714  1  0.45290000  0.92160000  0.55080000  1
  C  C715  1  0.45290000  0.92160000  0.94920000  1
  C  C716  1  0.45320000  0.64330000  0.64190000  1
  C  C717  1  0.45320000  0.64330000  0.85810000  1
  C  C718  1  0.45320000  0.85670000  0.64190000  1
  C  C719  1  0.45320000  0.85670000  0.85810000  1
  C  C720  1  0.46960000  0.03180000  0.57330000  1
  C  C721  1  0.46960000  0.03180000  0.92670000  1
  C  C722  1  0.46960000  0.46820000  0.57330000  1
  C  C723  1  0.46960000  0.46820000  0.92670000  1
  C  C724  1  0.46980000  0.00750000  0.59940000  1
  C  C725  1  0.46980000  0.00750000  0.90060000  1
  C  C726  1  0.46980000  0.49250000  0.59940000  1
  C  C727  1  0.46980000  0.49250000  0.90060000  1
  C  C728  1  0.47940000  0.01670000  0.07460000  1
  C  C729  1  0.47940000  0.01670000  0.42540000  1
  C  C730  1  0.47940000  0.48330000  0.07460000  1
  C  C731  1  0.47940000  0.48330000  0.42540000  1
  C  C732  1  0.48070000  0.50750000  0.04830000  1
  C  C733  1  0.48070000  0.50750000  0.45170000  1
  C  C734  1  0.48070000  0.99250000  0.04830000  1
  C  C735  1  0.48070000  0.99250000  0.45170000  1
  C  C736  1  0.49350000  0.03220000  0.54750000  1
  C  C737  1  0.49350000  0.03220000  0.95250000  1
  C  C738  1  0.49350000  0.46780000  0.54750000  1
  C  C739  1  0.49350000  0.46780000  0.95250000  1
  C  C740  1  0.49570000  0.51740000  0.60100000  1
  C  C741  1  0.49570000  0.51740000  0.89900000  1
  C  C742  1  0.49570000  0.98260000  0.60100000  1
  C  C743  1  0.49570000  0.98260000  0.89900000  1
  C  C744  1  0.50430000  0.01740000  0.10100000  1
  C  C745  1  0.50430000  0.01740000  0.39900000  1
  C  C746  1  0.50430000  0.48260000  0.10100000  1
  C  C747  1  0.50430000  0.48260000  0.39900000  1
  C  C748  1  0.50650000  0.53220000  0.04750000  1
  C  C749  1  0.50650000  0.53220000  0.45250000  1
  C  C750  1  0.50650000  0.96780000  0.04750000  1
  C  C751  1  0.50650000  0.96780000  0.45250000  1
  C  C752  1  0.51930000  0.00750000  0.54830000  1
  C  C753  1  0.51930000  0.00750000  0.95170000  1
  C  C754  1  0.51930000  0.49250000  0.54830000  1
  C  C755  1  0.51930000  0.49250000  0.95170000  1
  C  C756  1  0.52060000  0.51670000  0.57460000  1
  C  C757  1  0.52060000  0.51670000  0.92540000  1
  C  C758  1  0.52060000  0.98330000  0.57460000  1
  C  C759  1  0.52060000  0.98330000  0.92540000  1
  C  C760  1  0.53020000  0.50750000  0.09940000  1
  C  C761  1  0.53020000  0.50750000  0.40060000  1
  C  C762  1  0.53020000  0.99250000  0.09940000  1
  C  C763  1  0.53020000  0.99250000  0.40060000  1
  C  C764  1  0.53040000  0.53180000  0.07330000  1
  C  C765  1  0.53040000  0.53180000  0.42670000  1
  C  C766  1  0.53040000  0.96820000  0.07330000  1
  C  C767  1  0.53040000  0.96820000  0.42670000  1
  C  C768  1  0.54680000  0.14330000  0.14190000  1
  C  C769  1  0.54680000  0.14330000  0.35810000  1
  C  C770  1  0.54680000  0.35670000  0.14190000  1
  C  C771  1  0.54680000  0.35670000  0.35810000  1
  C  C772  1  0.54710000  0.07840000  0.05080000  1
  C  C773  1  0.54710000  0.07840000  0.44920000  1
  C  C774  1  0.54710000  0.42160000  0.05080000  1
  C  C775  1  0.54710000  0.42160000  0.44920000  1
  C  C776  1  0.54720000  0.00750000  0.52300000  1
  C  C777  1  0.54720000  0.00750000  0.97700000  1
  C  C778  1  0.54720000  0.49250000  0.52300000  1
  C  C779  1  0.54720000  0.49250000  0.97700000  1
  C  C780  1  0.54810000  0.10240000  0.07580000  1
  C  C781  1  0.54810000  0.10240000  0.42420000  1
  C  C782  1  0.54810000  0.39760000  0.07580000  1
  C  C783  1  0.54810000  0.39760000  0.42420000  1
  C  C784  1  0.54970000  0.16750000  0.16840000  1
  C  C785  1  0.54970000  0.16750000  0.33160000  1
  C  C786  1  0.54970000  0.33250000  0.16840000  1
  C  C787  1  0.54970000  0.33250000  0.33160000  1
  C  C788  1  0.55850000  0.51020000  0.12770000  1
  C  C789  1  0.55850000  0.51020000  0.37230000  1
  C  C790  1  0.55850000  0.98980000  0.12770000  1
  C  C791  1  0.55850000  0.98980000  0.37230000  1
  C  C792  1  0.56890000  0.02100000  0.13990000  1
  C  C793  1  0.56890000  0.02100000  0.36010000  1
  C  C794  1  0.56890000  0.47900000  0.13990000  1
  C  C795  1  0.56890000  0.47900000  0.36010000  1
  C  C796  1  0.57290000  0.54120000  0.13940000  1
  C  C797  1  0.57290000  0.54120000  0.36060000  1
  C  C798  1  0.57290000  0.95880000  0.13940000  1
  C  C799  1  0.57290000  0.95880000  0.36060000  1
  C  C800  1  0.57420000  0.03040000  0.02180000  1
  C  C801  1  0.57420000  0.03040000  0.47820000  1
  C  C802  1  0.57420000  0.46960000  0.02180000  1
  C  C803  1  0.57420000  0.46960000  0.47820000  1
  C  C804  1  0.57540000  0.05750000  0.04730000  1
  C  C805  1  0.57540000  0.05750000  0.45270000  1
  C  C806  1  0.57540000  0.44250000  0.04730000  1
  C  C807  1  0.57540000  0.44250000  0.45270000  1
  C  C808  1  0.57650000  0.13210000  0.12250000  1
  C  C809  1  0.57650000  0.13210000  0.37750000  1
  C  C810  1  0.57650000  0.36790000  0.12250000  1
  C  C811  1  0.57650000  0.36790000  0.37750000  1
  C  C812  1  0.57810000  0.10690000  0.09390000  1
  C  C813  1  0.57810000  0.10690000  0.40610000  1
  C  C814  1  0.57810000  0.39310000  0.09390000  1
  C  C815  1  0.57810000  0.39310000  0.40610000  1
  C  C816  1  0.57880000  0.20490000  0.20590000  1
  C  C817  1  0.57880000  0.20490000  0.29410000  1
  C  C818  1  0.57880000  0.29510000  0.20590000  1
  C  C819  1  0.57880000  0.29510000  0.29410000  1
  C  C820  1  0.58200000  0.18020000  0.17650000  1
  C  C821  1  0.58200000  0.18020000  0.32350000  1
  C  C822  1  0.58200000  0.31980000  0.17650000  1
  C  C823  1  0.58200000  0.31980000  0.32350000  1
  C  C824  1  0.59360000  0.02150000  0.16610000  1
  C  C825  1  0.59360000  0.02150000  0.33390000  1
  C  C826  1  0.59360000  0.47850000  0.16610000  1
  C  C827  1  0.59360000  0.47850000  0.33390000  1
  C  C828  1  0.59460000  0.51980000  0.50070000  1
  C  C829  1  0.59460000  0.51980000  0.99930000  1
  C  C830  1  0.59460000  0.98020000  0.50070000  1
  C  C831  1  0.59460000  0.98020000  0.99930000  1
  C  C832  1  0.59790000  0.53640000  0.16550000  1
  C  C833  1  0.59790000  0.53640000  0.33450000  1
  C  C834  1  0.59790000  0.96360000  0.16550000  1
  C  C835  1  0.59790000  0.96360000  0.33450000  1
  C  C836  1  0.60530000  0.06100000  0.06670000  1
  C  C837  1  0.60530000  0.06100000  0.43330000  1
  C  C838  1  0.60530000  0.43900000  0.06670000  1
  C  C839  1  0.60530000  0.43900000  0.43330000  1
  C  C840  1  0.60660000  0.08480000  0.09110000  1
  C  C841  1  0.60660000  0.08480000  0.40890000  1
  C  C842  1  0.60660000  0.41520000  0.09110000  1
  C  C843  1  0.60660000  0.41520000  0.40890000  1
  C  C844  1  0.60720000  0.14460000  0.13240000  1
  C  C845  1  0.60720000  0.14460000  0.36760000  1
  C  C846  1  0.60720000  0.35540000  0.13240000  1
  C  C847  1  0.60720000  0.35540000  0.36760000  1
  C  C848  1  0.60950000  0.50700000  0.17890000  1
  C  C849  1  0.60950000  0.50700000  0.32110000  1
  C  C850  1  0.60950000  0.99300000  0.17890000  1
  C  C851  1  0.60950000  0.99300000  0.32110000  1
  C  C852  1  0.61050000  0.16860000  0.15850000  1
  C  C853  1  0.61050000  0.16860000  0.34150000  1
  C  C854  1  0.61050000  0.33140000  0.15850000  1
  C  C855  1  0.61050000  0.33140000  0.34150000  1
  C  C856  1  0.62010000  0.54730000  0.50040000  1
  C  C857  1  0.62010000  0.54730000  0.99960000  1
  C  C858  1  0.62010000  0.95270000  0.50040000  1
  C  C859  1  0.62010000  0.95270000  0.99960000  1
  C  C860  1  0.62040000  0.56890000  0.52530000  1
  C  C861  1  0.62040000  0.56890000  0.97470000  1
  C  C862  1  0.62040000  0.93110000  0.52530000  1
  C  C863  1  0.62040000  0.93110000  0.97470000  1
  C  C864  1  0.63630000  0.50730000  0.20360000  1
  C  C865  1  0.63630000  0.50730000  0.29640000  1
  C  C866  1  0.63630000  0.99270000  0.20360000  1
  C  C867  1  0.63630000  0.99270000  0.29640000  1
  C  C868  1  0.64170000  0.59490000  0.52450000  1
  C  C869  1  0.64170000  0.59490000  0.97550000  1
  C  C870  1  0.64170000  0.90510000  0.52450000  1
  C  C871  1  0.64170000  0.90510000  0.97550000  1
  C  C872  1  0.64340000  0.55060000  0.02680000  1
  C  C873  1  0.64340000  0.55060000  0.47320000  1
  C  C874  1  0.64340000  0.94940000  0.02680000  1
  C  C875  1  0.64340000  0.94940000  0.47320000  1
  C  C876  1  0.66560000  0.59710000  0.00170000  1
  C  C877  1  0.66560000  0.59710000  0.49830000  1
  C  C878  1  0.66560000  0.90290000  0.00170000  1
  C  C879  1  0.66560000  0.90290000  0.49830000  1
  C  C880  1  0.66720000  0.57580000  0.02780000  1
  C  C881  1  0.66720000  0.57580000  0.47220000  1
  C  C882  1  0.66720000  0.92420000  0.02780000  1
  C  C883  1  0.66720000  0.92420000  0.47220000  1
  C  C884  1  0.69280000  0.62500000  0.00140000  1
  C  C885  1  0.69280000  0.62500000  0.49860000  1
  C  C886  1  0.69280000  0.87500000  0.00140000  1
  C  C887  1  0.69280000  0.87500000  0.49860000  1
  C  C888  1  0.70210000  0.63740000  0.03200000  1
  C  C889  1  0.70210000  0.63740000  0.46800000  1
  C  C890  1  0.70210000  0.86260000  0.03200000  1
  C  C891  1  0.70210000  0.86260000  0.46800000  1
  C  C892  1  0.70780000  0.63860000  0.52790000  1
  C  C893  1  0.70780000  0.63860000  0.97210000  1
  C  C894  1  0.70780000  0.86140000  0.52790000  1
  C  C895  1  0.70780000  0.86140000  0.97210000  1
  C  C896  1  0.72670000  0.66220000  0.03480000  1
  C  C897  1  0.72670000  0.66220000  0.46520000  1
  C  C898  1  0.72670000  0.83780000  0.03480000  1
  C  C899  1  0.72670000  0.83780000  0.46520000  1
  C  C900  1  0.72840000  0.50540000  0.20680000  1
  C  C901  1  0.72840000  0.50540000  0.29320000  1
  C  C902  1  0.72840000  0.99460000  0.20680000  1
  C  C903  1  0.72840000  0.99460000  0.29320000  1
  C  C904  1  0.73250000  0.66430000  0.52670000  1
  C  C905  1  0.73250000  0.66430000  0.97330000  1
  C  C906  1  0.73250000  0.83570000  0.52670000  1
  C  C907  1  0.73250000  0.83570000  0.97330000  1
  C  C908  1  0.74210000  0.67620000  0.00600000  1
  C  C909  1  0.74210000  0.67620000  0.49400000  1
  C  C910  1  0.74210000  0.82380000  0.00600000  1
  C  C911  1  0.74210000  0.82380000  0.49400000  1
  C  C912  1  0.75790000  0.50600000  0.17620000  1
  C  C913  1  0.75790000  0.50600000  0.32380000  1
  C  C914  1  0.75790000  0.99400000  0.17620000  1
  C  C915  1  0.75790000  0.99400000  0.32380000  1
  C  C916  1  0.76750000  0.02670000  0.16430000  1
  C  C917  1  0.76750000  0.02670000  0.33570000  1
  C  C918  1  0.76750000  0.47330000  0.16430000  1
  C  C919  1  0.76750000  0.47330000  0.33570000  1
  C  C920  1  0.77160000  0.70680000  0.00540000  1
  C  C921  1  0.77160000  0.70680000  0.49460000  1
  C  C922  1  0.77160000  0.79320000  0.00540000  1
  C  C923  1  0.77160000  0.79320000  0.49460000  1
  C  C924  1  0.77330000  0.53480000  0.16220000  1
  C  C925  1  0.77330000  0.53480000  0.33780000  1
  C  C926  1  0.77330000  0.96520000  0.16220000  1
  C  C927  1  0.77330000  0.96520000  0.33780000  1
  C  C928  1  0.79220000  0.02790000  0.13860000  1
  C  C929  1  0.79220000  0.02790000  0.36140000  1
  C  C930  1  0.79220000  0.47210000  0.13860000  1
  C  C931  1  0.79220000  0.47210000  0.36140000  1
  C  C932  1  0.79790000  0.53200000  0.13740000  1
  C  C933  1  0.79790000  0.53200000  0.36260000  1
  C  C934  1  0.79790000  0.96800000  0.13740000  1
  C  C935  1  0.79790000  0.96800000  0.36260000  1
  C  C936  1  0.80720000  0.50140000  0.12500000  1
  C  C937  1  0.80720000  0.50140000  0.37500000  1
  C  C938  1  0.80720000  0.99860000  0.12500000  1
  C  C939  1  0.80720000  0.99860000  0.37500000  1
  C  C940  1  0.83280000  0.52780000  0.07580000  1
  C  C941  1  0.83280000  0.52780000  0.42420000  1
  C  C942  1  0.83280000  0.97220000  0.07580000  1
  C  C943  1  0.83280000  0.97220000  0.42420000  1
  C  C944  1  0.83440000  0.50170000  0.09710000  1
  C  C945  1  0.83440000  0.50170000  0.40290000  1
  C  C946  1  0.83440000  0.99830000  0.09710000  1
  C  C947  1  0.83440000  0.99830000  0.40290000  1
  C  C948  1  0.85660000  0.52680000  0.05060000  1
  C  C949  1  0.85660000  0.52680000  0.44940000  1
  C  C950  1  0.85660000  0.97320000  0.05060000  1
  C  C951  1  0.85660000  0.97320000  0.44940000  1
  C  C952  1  0.85830000  0.02450000  0.09490000  1
  C  C953  1  0.85830000  0.02450000  0.40510000  1
  C  C954  1  0.85830000  0.47550000  0.09490000  1
  C  C955  1  0.85830000  0.47550000  0.40510000  1
  C  C956  1  0.86370000  0.70360000  0.00730000  1
  C  C957  1  0.86370000  0.70360000  0.49270000  1
  C  C958  1  0.86370000  0.79640000  0.00730000  1
  C  C959  1  0.86370000  0.79640000  0.49270000  1
  C  C960  1  0.87960000  0.02530000  0.06890000  1
  C  C961  1  0.87960000  0.02530000  0.43110000  1
  C  C962  1  0.87960000  0.47470000  0.06890000  1
  C  C963  1  0.87960000  0.47470000  0.43110000  1
  C  C964  1  0.87990000  0.00040000  0.04730000  1
  C  C965  1  0.87990000  0.00040000  0.45270000  1
  C  C966  1  0.87990000  0.49960000  0.04730000  1
  C  C967  1  0.87990000  0.49960000  0.45270000  1
  C  C968  1  0.88950000  0.65850000  0.66860000  1
  C  C969  1  0.88950000  0.65850000  0.83140000  1
  C  C970  1  0.88950000  0.84150000  0.66860000  1
  C  C971  1  0.88950000  0.84150000  0.83140000  1
  C  C972  1  0.89050000  0.67890000  0.00700000  1
  C  C973  1  0.89050000  0.67890000  0.49300000  1
  C  C974  1  0.89050000  0.82110000  0.00700000  1
  C  C975  1  0.89050000  0.82110000  0.49300000  1
  C  C976  1  0.89280000  0.63240000  0.64460000  1
  C  C977  1  0.89280000  0.63240000  0.85540000  1
  C  C978  1  0.89280000  0.86760000  0.64460000  1
  C  C979  1  0.89280000  0.86760000  0.85540000  1
  C  C980  1  0.89340000  0.59110000  0.58480000  1
  C  C981  1  0.89340000  0.59110000  0.91520000  1
  C  C982  1  0.89340000  0.90890000  0.58480000  1
  C  C983  1  0.89340000  0.90890000  0.91520000  1
  C  C984  1  0.89470000  0.56670000  0.56100000  1
  C  C985  1  0.89470000  0.56670000  0.93900000  1
  C  C986  1  0.89470000  0.93330000  0.56100000  1
  C  C987  1  0.89470000  0.93330000  0.93900000  1
  C  C988  1  0.90210000  0.66550000  0.03640000  1
  C  C989  1  0.90210000  0.66550000  0.46360000  1
  C  C990  1  0.90210000  0.83450000  0.03640000  1
  C  C991  1  0.90210000  0.83450000  0.46360000  1
  C  C992  1  0.90540000  0.00070000  0.01980000  1
  C  C993  1  0.90540000  0.00070000  0.48020000  1
  C  C994  1  0.90540000  0.49930000  0.01980000  1
  C  C995  1  0.90540000  0.49930000  0.48020000  1
  C  C996  1  0.90640000  0.66610000  0.52150000  1
  C  C997  1  0.90640000  0.66610000  0.97850000  1
  C  C998  1  0.90640000  0.83390000  0.52150000  1
  C  C999  1  0.90640000  0.83390000  0.97850000  1
  C  C1000  1  0.91800000  0.67650000  0.68020000  1
  C  C1001  1  0.91800000  0.67650000  0.81980000  1
  C  C1002  1  0.91800000  0.82350000  0.68020000  1
  C  C1003  1  0.91800000  0.82350000  0.81980000  1
  C  C1004  1  0.92120000  0.70590000  0.70490000  1
  C  C1005  1  0.92120000  0.70590000  0.79510000  1
  C  C1006  1  0.92120000  0.79410000  0.70490000  1
  C  C1007  1  0.92120000  0.79410000  0.79510000  1
  C  C1008  1  0.92190000  0.59390000  0.60690000  1
  C  C1009  1  0.92190000  0.59390000  0.89310000  1
  C  C1010  1  0.92190000  0.90610000  0.60690000  1
  C  C1011  1  0.92190000  0.90610000  0.89310000  1
  C  C1012  1  0.92350000  0.62250000  0.63210000  1
  C  C1013  1  0.92350000  0.62250000  0.86790000  1
  C  C1014  1  0.92350000  0.87750000  0.63210000  1
  C  C1015  1  0.92350000  0.87750000  0.86790000  1
  C  C1016  1  0.92460000  0.54730000  0.55750000  1
  C  C1017  1  0.92460000  0.54730000  0.94250000  1
  C  C1018  1  0.92460000  0.95270000  0.55750000  1
  C  C1019  1  0.92460000  0.95270000  0.94250000  1
  C  C1020  1  0.92580000  0.52180000  0.53040000  1
  C  C1021  1  0.92580000  0.52180000  0.96960000  1
  C  C1022  1  0.92580000  0.97820000  0.53040000  1
  C  C1023  1  0.92580000  0.97820000  0.96960000  1
  C  C1024  1  0.92710000  0.63940000  0.04120000  1
  C  C1025  1  0.92710000  0.63940000  0.45880000  1
  C  C1026  1  0.92710000  0.86060000  0.04120000  1
  C  C1027  1  0.92710000  0.86060000  0.45880000  1
  C  C1028  1  0.93110000  0.63990000  0.52100000  1
  C  C1029  1  0.93110000  0.63990000  0.97900000  1
  C  C1030  1  0.93110000  0.86010000  0.52100000  1
  C  C1031  1  0.93110000  0.86010000  0.97900000  1
  C  C1032  1  0.94150000  0.62770000  0.01020000  1
  C  C1033  1  0.94150000  0.62770000  0.48980000  1
  C  C1034  1  0.94150000  0.87230000  0.01020000  1
  C  C1035  1  0.94150000  0.87230000  0.48980000  1
  C  C1036  1  0.95030000  0.66840000  0.66750000  1
  C  C1037  1  0.95030000  0.66840000  0.83250000  1
  C  C1038  1  0.95030000  0.83160000  0.66750000  1
  C  C1039  1  0.95030000  0.83160000  0.83250000  1
  C  C1040  1  0.95190000  0.57580000  0.60240000  1
  C  C1041  1  0.95190000  0.57580000  0.89760000  1
  C  C1042  1  0.95190000  0.92420000  0.60240000  1
  C  C1043  1  0.95190000  0.92420000  0.89760000  1
  C  C1044  1  0.95280000  0.02300000  0.50750000  1
  C  C1045  1  0.95280000  0.02300000  0.99250000  1
  C  C1046  1  0.95280000  0.47700000  0.50750000  1
  C  C1047  1  0.95280000  0.47700000  0.99250000  1
  C  C1048  1  0.95290000  0.55080000  0.57840000  1
  C  C1049  1  0.95290000  0.55080000  0.92160000  1
  C  C1050  1  0.95290000  0.94920000  0.57840000  1
  C  C1051  1  0.95290000  0.94920000  0.92160000  1
  C  C1052  1  0.95320000  0.64190000  0.64330000  1
  C  C1053  1  0.95320000  0.64190000  0.85670000  1
  C  C1054  1  0.95320000  0.85810000  0.64330000  1
  C  C1055  1  0.95320000  0.85810000  0.85670000  1
  C  C1056  1  0.96960000  0.57330000  0.03180000  1
  C  C1057  1  0.96960000  0.57330000  0.46820000  1
  C  C1058  1  0.96960000  0.92670000  0.03180000  1
  C  C1059  1  0.96960000  0.92670000  0.46820000  1
  C  C1060  1  0.96980000  0.59940000  0.00750000  1
  C  C1061  1  0.96980000  0.59940000  0.49250000  1
  C  C1062  1  0.96980000  0.90060000  0.00750000  1
  C  C1063  1  0.96980000  0.90060000  0.49250000  1
  C  C1064  1  0.97940000  0.07460000  0.01670000  1
  C  C1065  1  0.97940000  0.07460000  0.48330000  1
  C  C1066  1  0.97940000  0.42540000  0.01670000  1
  C  C1067  1  0.97940000  0.42540000  0.48330000  1
  C  C1068  1  0.98070000  0.04830000  0.50750000  1
  C  C1069  1  0.98070000  0.04830000  0.99250000  1
  C  C1070  1  0.98070000  0.45170000  0.50750000  1
  C  C1071  1  0.98070000  0.45170000  0.99250000  1
  C  C1072  1  0.99350000  0.54750000  0.03220000  1
  C  C1073  1  0.99350000  0.54750000  0.46780000  1
  C  C1074  1  0.99350000  0.95250000  0.03220000  1
  C  C1075  1  0.99350000  0.95250000  0.46780000  1
  C  C1076  1  0.99570000  0.60100000  0.51740000  1
  C  C1077  1  0.99570000  0.60100000  0.98260000  1
  C  C1078  1  0.99570000  0.89900000  0.51740000  1
  C  C1079  1  0.99570000  0.89900000  0.98260000  1
  N  N1080  1  0.04790000  0.50060000  0.03280000  1
  N  N1081  1  0.04790000  0.50060000  0.46720000  1
  N  N1082  1  0.04790000  0.99940000  0.03280000  1
  N  N1083  1  0.04790000  0.99940000  0.46720000  1
  N  N1084  1  0.06940000  0.52410000  0.51900000  1
  N  N1085  1  0.06940000  0.52410000  0.98100000  1
  N  N1086  1  0.06940000  0.97590000  0.51900000  1
  N  N1087  1  0.06940000  0.97590000  0.98100000  1
  N  N1088  1  0.09730000  0.02290000  0.00480000  1
  N  N1089  1  0.09730000  0.02290000  0.49520000  1
  N  N1090  1  0.09730000  0.47710000  0.00480000  1
  N  N1091  1  0.09730000  0.47710000  0.49520000  1
  N  N1092  1  0.40270000  0.50480000  0.52290000  1
  N  N1093  1  0.40270000  0.50480000  0.97710000  1
  N  N1094  1  0.40270000  0.99520000  0.52290000  1
  N  N1095  1  0.40270000  0.99520000  0.97710000  1
  N  N1096  1  0.43060000  0.01900000  0.02410000  1
  N  N1097  1  0.43060000  0.01900000  0.47590000  1
  N  N1098  1  0.43060000  0.48100000  0.02410000  1
  N  N1099  1  0.43060000  0.48100000  0.47590000  1
  N  N1100  1  0.45210000  0.53280000  0.00060000  1
  N  N1101  1  0.45210000  0.53280000  0.49940000  1
  N  N1102  1  0.45210000  0.96720000  0.00060000  1
  N  N1103  1  0.45210000  0.96720000  0.49940000  1
  N  N1104  1  0.54790000  0.03280000  0.50060000  1
  N  N1105  1  0.54790000  0.03280000  0.99940000  1
  N  N1106  1  0.54790000  0.46720000  0.50060000  1
  N  N1107  1  0.54790000  0.46720000  0.99940000  1
  N  N1108  1  0.56940000  0.51900000  0.52410000  1
  N  N1109  1  0.56940000  0.51900000  0.97590000  1
  N  N1110  1  0.56940000  0.98100000  0.52410000  1
  N  N1111  1  0.56940000  0.98100000  0.97590000  1
  N  N1112  1  0.59730000  0.00480000  0.02290000  1
  N  N1113  1  0.59730000  0.00480000  0.47710000  1
  N  N1114  1  0.59730000  0.49520000  0.02290000  1
  N  N1115  1  0.59730000  0.49520000  0.47710000  1
  N  N1116  1  0.90270000  0.52290000  0.50480000  1
  N  N1117  1  0.90270000  0.52290000  0.99520000  1
  N  N1118  1  0.90270000  0.97710000  0.50480000  1
  N  N1119  1  0.90270000  0.97710000  0.99520000  1
  N  N1120  1  0.93060000  0.02410000  0.01900000  1
  N  N1121  1  0.93060000  0.02410000  0.48100000  1
  N  N1122  1  0.93060000  0.47590000  0.01900000  1
  N  N1123  1  0.93060000  0.47590000  0.48100000  1
  N  N1124  1  0.95210000  0.00060000  0.53280000  1
  N  N1125  1  0.95210000  0.00060000  0.96720000  1
  N  N1126  1  0.95210000  0.49940000  0.53280000  1
  N  N1127  1  0.95210000  0.49940000  0.96720000  1
  O  O1128  1  0.05177000  0.21580000  0.21510000  1
  O  O1129  1  0.05177000  0.21580000  0.28490000  1
  O  O1130  1  0.05177000  0.28420000  0.21510000  1
  O  O1131  1  0.05177000  0.28420000  0.28490000  1
  O  O1132  1  0.10907000  0.21521000  0.21529000  1
  O  O1133  1  0.10907000  0.21521000  0.28471000  1
  O  O1134  1  0.10907000  0.28479000  0.21529000  1
  O  O1135  1  0.10907000  0.28479000  0.28471000  1
  O  O1136  1  0.14533000  0.21561000  0.01915000  1
  O  O1137  1  0.14533000  0.21561000  0.48085000  1
  O  O1138  1  0.14533000  0.28439000  0.01915000  1
  O  O1139  1  0.14533000  0.28439000  0.48085000  1
  O  O1140  1  0.14780000  0.21550000  0.53486000  1
  O  O1141  1  0.14780000  0.21550000  0.96514000  1
  O  O1142  1  0.14780000  0.28450000  0.53486000  1
  O  O1143  1  0.14780000  0.28450000  0.96514000  1
  O  O1144  1  0.21803000  0.21555000  0.02411000  1
  O  O1145  1  0.21803000  0.21555000  0.47589000  1
  O  O1146  1  0.21803000  0.28445000  0.02411000  1
  O  O1147  1  0.21803000  0.28445000  0.47589000  1
  O  O1148  1  0.21951000  0.21596000  0.53353000  1
  O  O1149  1  0.21951000  0.21596000  0.96647000  1
  O  O1150  1  0.21951000  0.28404000  0.53353000  1
  O  O1151  1  0.21951000  0.28404000  0.96647000  1
  O  O1152  1  0.28049000  0.03353000  0.71596000  1
  O  O1153  1  0.28049000  0.03353000  0.78404000  1
  O  O1154  1  0.28049000  0.46647000  0.71596000  1
  O  O1155  1  0.28049000  0.46647000  0.78404000  1
  O  O1156  1  0.28197000  0.52411000  0.71555000  1
  O  O1157  1  0.28197000  0.52411000  0.78445000  1
  O  O1158  1  0.28197000  0.97589000  0.71555000  1
  O  O1159  1  0.28197000  0.97589000  0.78445000  1
  O  O1160  1  0.35220000  0.03486000  0.71550000  1
  O  O1161  1  0.35220000  0.03486000  0.78450000  1
  O  O1162  1  0.35220000  0.46514000  0.71550000  1
  O  O1163  1  0.35220000  0.46514000  0.78450000  1
  O  O1164  1  0.35467000  0.51915000  0.71561000  1
  O  O1165  1  0.35467000  0.51915000  0.78439000  1
  O  O1166  1  0.35467000  0.98085000  0.71561000  1
  O  O1167  1  0.35467000  0.98085000  0.78439000  1
  O  O1168  1  0.39093000  0.71529000  0.71521000  1
  O  O1169  1  0.39093000  0.71529000  0.78479000  1
  O  O1170  1  0.39093000  0.78471000  0.71521000  1
  O  O1171  1  0.39093000  0.78471000  0.78479000  1
  O  O1172  1  0.44823000  0.71510000  0.71580000  1
  O  O1173  1  0.44823000  0.71510000  0.78420000  1
  O  O1174  1  0.44823000  0.78490000  0.71580000  1
  O  O1175  1  0.44823000  0.78490000  0.78420000  1
  O  O1176  1  0.55177000  0.21510000  0.21580000  1
  O  O1177  1  0.55177000  0.21510000  0.28420000  1
  O  O1178  1  0.55177000  0.28490000  0.21580000  1
  O  O1179  1  0.55177000  0.28490000  0.28420000  1
  O  O1180  1  0.60907000  0.21529000  0.21521000  1
  O  O1181  1  0.60907000  0.21529000  0.28479000  1
  O  O1182  1  0.60907000  0.28471000  0.21521000  1
  O  O1183  1  0.60907000  0.28471000  0.28479000  1
  O  O1184  1  0.64533000  0.01915000  0.21561000  1
  O  O1185  1  0.64533000  0.01915000  0.28439000  1
  O  O1186  1  0.64533000  0.48085000  0.21561000  1
  O  O1187  1  0.64533000  0.48085000  0.28439000  1
  O  O1188  1  0.64780000  0.53486000  0.21550000  1
  O  O1189  1  0.64780000  0.53486000  0.28450000  1
  O  O1190  1  0.64780000  0.96514000  0.21550000  1
  O  O1191  1  0.64780000  0.96514000  0.28450000  1
  O  O1192  1  0.71803000  0.02411000  0.21555000  1
  O  O1193  1  0.71803000  0.02411000  0.28445000  1
  O  O1194  1  0.71803000  0.47589000  0.21555000  1
  O  O1195  1  0.71803000  0.47589000  0.28445000  1
  O  O1196  1  0.71951000  0.53353000  0.21596000  1
  O  O1197  1  0.71951000  0.53353000  0.28404000  1
  O  O1198  1  0.71951000  0.96647000  0.21596000  1
  O  O1199  1  0.71951000  0.96647000  0.28404000  1
  O  O1200  1  0.78049000  0.71596000  0.03353000  1
  O  O1201  1  0.78049000  0.71596000  0.46647000  1
  O  O1202  1  0.78049000  0.78404000  0.03353000  1
  O  O1203  1  0.78049000  0.78404000  0.46647000  1
  O  O1204  1  0.78197000  0.71555000  0.52411000  1
  O  O1205  1  0.78197000  0.71555000  0.97589000  1
  O  O1206  1  0.78197000  0.78445000  0.52411000  1
  O  O1207  1  0.78197000  0.78445000  0.97589000  1
  O  O1208  1  0.85220000  0.71550000  0.03486000  1
  O  O1209  1  0.85220000  0.71550000  0.46514000  1
  O  O1210  1  0.85220000  0.78450000  0.03486000  1
  O  O1211  1  0.85220000  0.78450000  0.46514000  1
  O  O1212  1  0.85467000  0.71561000  0.51915000  1
  O  O1213  1  0.85467000  0.71561000  0.98085000  1
  O  O1214  1  0.85467000  0.78439000  0.51915000  1
  O  O1215  1  0.85467000  0.78439000  0.98085000  1
  O  O1216  1  0.89093000  0.71521000  0.71529000  1
  O  O1217  1  0.89093000  0.71521000  0.78471000  1
  O  O1218  1  0.89093000  0.78479000  0.71529000  1
  O  O1219  1  0.89093000  0.78479000  0.78471000  1
  O  O1220  1  0.94823000  0.71580000  0.71510000  1
  O  O1221  1  0.94823000  0.71580000  0.78490000  1
  O  O1222  1  0.94823000  0.78420000  0.71510000  1
  O  O1223  1  0.94823000  0.78420000  0.78490000  1
