# generated using pymatgen
data_MnH8C14SO6
_symmetry_space_group_name_H-M   'P 1'
_cell_length_a   16.70940000
_cell_length_b   17.19360000
_cell_length_c   20.28570000
_cell_angle_alpha   90.00000000
_cell_angle_beta   90.00000000
_cell_angle_gamma   99.17800000
_symmetry_Int_Tables_number   1
_chemical_formula_structural   MnH8C14SO6
_chemical_formula_sum   'Mn12 H96 C168 S12 O72'
_cell_volume   5753.36273474
_cell_formula_units_Z   12
loop_
 _symmetry_equiv_pos_site_id
 _symmetry_equiv_pos_as_xyz
  1  'x, y, z'
loop_
 _atom_site_type_symbol
 _atom_site_label
 _atom_site_symmetry_multiplicity
 _atom_site_fract_x
 _atom_site_fract_y
 _atom_site_fract_z
 _atom_site_occupancy
  Mn  Mn0  1  0.96521000  0.75106000  0.83514000  1
  Mn  Mn1  1  0.91367000  0.05064000  0.14359000  1
  Mn  Mn2  1  0.85918000  0.55479000  0.87878000  1
  Mn  Mn3  1  0.64082000  0.94521000  0.37878000  1
  Mn  Mn4  1  0.58633000  0.44936000  0.64359000  1
  Mn  Mn5  1  0.53479000  0.74894000  0.33514000  1
  Mn  Mn6  1  0.46521000  0.25106000  0.66486000  1
  Mn  Mn7  1  0.41367000  0.55064000  0.35641000  1
  Mn  Mn8  1  0.35918000  0.05479000  0.62122000  1
  Mn  Mn9  1  0.14082000  0.44521000  0.12122000  1
  Mn  Mn10  1  0.08633000  0.94936000  0.85641000  1
  Mn  Mn11  1  0.03479000  0.24894000  0.16486000  1
  H  H12  1  0.99730000  0.74790000  0.53900000  1
  H  H13  1  0.99470000  0.76460000  0.65200000  1
  H  H14  1  0.98990000  0.78760000  0.00060000  1
  H  H15  1  0.98800000  0.42810000  0.93400000  1
  H  H16  1  0.97690000  0.61390000  0.37260000  1
  H  H17  1  0.97360000  0.15850000  0.89620000  1
  H  H18  1  0.97150000  0.43490000  0.72290000  1
  H  H19  1  0.97080000  0.90450000  0.24920000  1
  H  H20  1  0.95110000  0.37610000  0.83040000  1
  H  H21  1  0.94130000  0.34430000  0.33400000  1
  H  H22  1  0.91110000  0.30790000  0.56080000  1
  H  H23  1  0.90970000  0.66810000  0.25880000  1
  H  H24  1  0.89540000  0.02650000  0.48130000  1
  H  H25  1  0.89420000  0.01170000  0.36760000  1
  H  H26  1  0.89350000  0.39240000  0.42980000  1
  H  H27  1  0.88270000  0.04640000  0.95880000  1
  H  H28  1  0.84200000  0.91880000  0.27910000  1
  H  H29  1  0.82330000  0.35030000  0.12580000  1
  H  H30  1  0.82150000  0.66790000  0.43910000  1
  H  H31  1  0.81040000  0.81950000  0.91060000  1
  H  H32  1  0.79690000  0.36320000  0.58020000  1
  H  H33  1  0.79110000  0.09560000  0.60910000  1
  H  H34  1  0.77950000  0.68320000  0.28760000  1
  H  H35  1  0.75220000  0.05800000  0.99060000  1
  H  H36  1  0.74780000  0.44200000  0.49060000  1
  H  H37  1  0.72050000  0.81680000  0.78760000  1
  H  H38  1  0.70890000  0.40440000  0.10910000  1
  H  H39  1  0.70310000  0.13680000  0.08020000  1
  H  H40  1  0.68960000  0.68050000  0.41060000  1
  H  H41  1  0.67850000  0.83210000  0.93910000  1
  H  H42  1  0.67670000  0.14970000  0.62580000  1
  H  H43  1  0.65800000  0.58120000  0.77910000  1
  H  H44  1  0.61730000  0.45360000  0.45880000  1
  H  H45  1  0.60650000  0.10760000  0.92980000  1
  H  H46  1  0.60580000  0.48830000  0.86760000  1
  H  H47  1  0.60460000  0.47350000  0.98130000  1
  H  H48  1  0.59030000  0.83190000  0.75880000  1
  H  H49  1  0.58890000  0.19210000  0.06080000  1
  H  H50  1  0.55870000  0.15570000  0.83400000  1
  H  H51  1  0.54890000  0.12390000  0.33040000  1
  H  H52  1  0.52920000  0.59550000  0.74920000  1
  H  H53  1  0.52850000  0.06510000  0.22290000  1
  H  H54  1  0.52640000  0.34150000  0.39620000  1
  H  H55  1  0.52310000  0.88610000  0.87260000  1
  H  H56  1  0.51200000  0.07190000  0.43400000  1
  H  H57  1  0.51010000  0.71240000  0.50060000  1
  H  H58  1  0.50530000  0.73540000  0.15200000  1
  H  H59  1  0.50270000  0.75210000  0.03900000  1
  H  H60  1  0.49730000  0.24790000  0.96100000  1
  H  H61  1  0.49470000  0.26460000  0.84800000  1
  H  H62  1  0.48990000  0.28760000  0.49940000  1
  H  H63  1  0.48800000  0.92810000  0.56600000  1
  H  H64  1  0.47690000  0.11390000  0.12740000  1
  H  H65  1  0.47360000  0.65850000  0.60380000  1
  H  H66  1  0.47150000  0.93490000  0.77710000  1
  H  H67  1  0.47080000  0.40450000  0.25080000  1
  H  H68  1  0.45110000  0.87610000  0.66960000  1
  H  H69  1  0.44130000  0.84430000  0.16600000  1
  H  H70  1  0.41110000  0.80790000  0.93920000  1
  H  H71  1  0.40970000  0.16810000  0.24120000  1
  H  H72  1  0.39540000  0.52650000  0.01870000  1
  H  H73  1  0.39420000  0.51170000  0.13240000  1
  H  H74  1  0.39350000  0.89240000  0.07020000  1
  H  H75  1  0.38270000  0.54640000  0.54120000  1
  H  H76  1  0.34200000  0.41880000  0.22090000  1
  H  H77  1  0.32330000  0.85030000  0.37420000  1
  H  H78  1  0.32150000  0.16790000  0.06090000  1
  H  H79  1  0.31040000  0.31950000  0.58940000  1
  H  H80  1  0.29690000  0.86320000  0.91980000  1
  H  H81  1  0.29110000  0.59560000  0.89090000  1
  H  H82  1  0.27950000  0.18320000  0.21240000  1
  H  H83  1  0.25220000  0.55800000  0.50940000  1
  H  H84  1  0.24780000  0.94200000  0.00940000  1
  H  H85  1  0.22050000  0.31680000  0.71240000  1
  H  H86  1  0.20890000  0.90440000  0.39090000  1
  H  H87  1  0.20310000  0.63680000  0.41980000  1
  H  H88  1  0.18960000  0.18050000  0.08940000  1
  H  H89  1  0.17850000  0.33210000  0.56090000  1
  H  H90  1  0.17670000  0.64970000  0.87420000  1
  H  H91  1  0.15800000  0.08120000  0.72090000  1
  H  H92  1  0.11730000  0.95360000  0.04120000  1
  H  H93  1  0.10650000  0.60760000  0.57020000  1
  H  H94  1  0.10580000  0.98830000  0.63240000  1
  H  H95  1  0.10460000  0.97350000  0.51870000  1
  H  H96  1  0.09030000  0.33190000  0.74120000  1
  H  H97  1  0.08890000  0.69210000  0.43920000  1
  H  H98  1  0.05870000  0.65570000  0.66600000  1
  H  H99  1  0.04890000  0.62390000  0.16960000  1
  H  H100  1  0.02920000  0.09550000  0.75080000  1
  H  H101  1  0.02850000  0.56510000  0.27710000  1
  H  H102  1  0.02640000  0.84150000  0.10380000  1
  H  H103  1  0.02310000  0.38610000  0.62740000  1
  H  H104  1  0.01200000  0.57190000  0.06600000  1
  H  H105  1  0.01010000  0.21240000  0.99940000  1
  H  H106  1  0.00530000  0.23540000  0.34800000  1
  H  H107  1  0.00270000  0.25210000  0.46100000  1
  C  C108  1  0.99970000  0.24480000  0.96490000  1
  C  C109  1  0.99910000  0.46950000  0.69230000  1
  C  C110  1  0.99410000  0.67390000  0.02500000  1
  C  C111  1  0.99020000  0.44910000  0.29590000  1
  C  C112  1  0.98650000  0.37460000  0.92590000  1
  C  C113  1  0.98260000  0.19370000  0.37470000  1
  C  C114  1  0.98160000  0.20390000  0.44210000  1
  C  C115  1  0.97800000  0.21240000  0.90360000  1
  C  C116  1  0.97610000  0.58370000  0.76540000  1
  C  C117  1  0.97060000  0.55990000  0.36500000  1
  C  C118  1  0.96450000  0.34370000  0.86390000  1
  C  C119  1  0.96290000  0.26450000  0.85300000  1
  C  C120  1  0.95610000  0.63690000  0.96320000  1
  C  C121  1  0.95420000  0.11420000  0.27280000  1
  C  C122  1  0.95290000  0.78510000  0.25180000  1
  C  C123  1  0.95020000  0.12240000  0.34610000  1
  C  C124  1  0.94930000  0.39830000  0.34170000  1
  C  C125  1  0.94820000  0.14020000  0.48140000  1
  C  C126  1  0.94050000  0.92820000  0.90660000  1
  C  C127  1  0.93220000  0.86030000  0.25730000  1
  C  C128  1  0.93100000  0.50750000  0.40980000  1
  C  C129  1  0.92030000  0.42700000  0.39870000  1
  C  C130  1  0.91660000  0.06850000  0.45430000  1
  C  C131  1  0.91660000  0.05960000  0.38640000  1
  C  C132  1  0.89570000  0.71810000  0.26290000  1
  C  C133  1  0.86350000  0.27640000  0.57420000  1
  C  C134  1  0.86160000  0.19540000  0.58280000  1
  C  C135  1  0.85800000  0.93210000  0.92960000  1
  C  C136  1  0.85580000  0.86880000  0.27460000  1
  C  C137  1  0.85000000  0.20230000  0.11670000  1
  C  C138  1  0.84120000  0.00370000  0.95470000  1
  C  C139  1  0.81840000  0.72730000  0.27990000  1
  C  C140  1  0.79830000  0.86760000  0.92520000  1
  C  C141  1  0.79760000  0.80220000  0.28570000  1
  C  C142  1  0.79590000  0.55420000  0.46570000  1
  C  C143  1  0.79540000  0.30930000  0.58540000  1
  C  C144  1  0.79210000  0.14930000  0.60260000  1
  C  C145  1  0.78550000  0.68650000  0.80520000  1
  C  C146  1  0.78000000  0.62520000  0.44280000  1
  C  C147  1  0.77570000  0.31830000  0.11290000  1
  C  C148  1  0.77510000  0.23760000  0.10430000  1
  C  C149  1  0.76410000  0.01100000  0.97340000  1
  C  C150  1  0.73590000  0.48900000  0.47340000  1
  C  C151  1  0.72490000  0.26240000  0.60430000  1
  C  C152  1  0.72430000  0.18170000  0.61290000  1
  C  C153  1  0.72000000  0.87480000  0.94280000  1
  C  C154  1  0.71450000  0.81350000  0.30520000  1
  C  C155  1  0.70790000  0.35070000  0.10260000  1
  C  C156  1  0.70460000  0.19070000  0.08540000  1
  C  C157  1  0.70410000  0.94580000  0.96570000  1
  C  C158  1  0.70240000  0.69780000  0.78570000  1
  C  C159  1  0.70170000  0.63240000  0.42520000  1
  C  C160  1  0.68160000  0.77270000  0.77990000  1
  C  C161  1  0.65880000  0.49630000  0.45470000  1
  C  C162  1  0.65000000  0.29770000  0.61670000  1
  C  C163  1  0.64420000  0.63120000  0.77460000  1
  C  C164  1  0.64200000  0.56790000  0.42960000  1
  C  C165  1  0.63840000  0.30460000  0.08280000  1
  C  C166  1  0.63650000  0.22360000  0.07420000  1
  C  C167  1  0.60430000  0.78190000  0.76290000  1
  C  C168  1  0.58340000  0.43150000  0.95430000  1
  C  C169  1  0.58340000  0.44040000  0.88640000  1
  C  C170  1  0.57970000  0.07300000  0.89870000  1
  C  C171  1  0.56900000  0.99250000  0.90980000  1
  C  C172  1  0.56780000  0.63970000  0.75730000  1
  C  C173  1  0.55950000  0.57180000  0.40660000  1
  C  C174  1  0.55180000  0.35980000  0.98140000  1
  C  C175  1  0.55070000  0.10170000  0.84170000  1
  C  C176  1  0.54980000  0.37760000  0.84610000  1
  C  C177  1  0.54710000  0.71490000  0.75180000  1
  C  C178  1  0.54580000  0.38580000  0.77280000  1
  C  C179  1  0.54390000  0.86310000  0.46320000  1
  C  C180  1  0.53710000  0.23550000  0.35300000  1
  C  C181  1  0.53550000  0.15630000  0.36390000  1
  C  C182  1  0.52940000  0.94010000  0.86500000  1
  C  C183  1  0.52390000  0.91630000  0.26540000  1
  C  C184  1  0.52200000  0.28760000  0.40360000  1
  C  C185  1  0.51840000  0.29610000  0.94210000  1
  C  C186  1  0.51740000  0.30630000  0.87470000  1
  C  C187  1  0.51350000  0.12540000  0.42590000  1
  C  C188  1  0.50980000  0.05090000  0.79590000  1
  C  C189  1  0.50590000  0.82610000  0.52500000  1
  C  C190  1  0.50090000  0.03050000  0.19230000  1
  C  C191  1  0.50030000  0.25520000  0.46490000  1
  C  C192  1  0.49970000  0.74480000  0.53510000  1
  C  C193  1  0.49910000  0.96950000  0.80770000  1
  C  C194  1  0.49410000  0.17390000  0.47500000  1
  C  C195  1  0.49020000  0.94910000  0.20410000  1
  C  C196  1  0.48650000  0.87460000  0.57410000  1
  C  C197  1  0.48260000  0.69370000  0.12530000  1
  C  C198  1  0.48160000  0.70390000  0.05790000  1
  C  C199  1  0.47800000  0.71240000  0.59640000  1
  C  C200  1  0.47610000  0.08370000  0.73460000  1
  C  C201  1  0.47060000  0.05990000  0.13500000  1
  C  C202  1  0.46450000  0.84370000  0.63610000  1
  C  C203  1  0.46290000  0.76450000  0.64700000  1
  C  C204  1  0.45610000  0.13690000  0.53680000  1
  C  C205  1  0.45420000  0.61420000  0.22720000  1
  C  C206  1  0.45290000  0.28510000  0.24820000  1
  C  C207  1  0.45020000  0.62240000  0.15390000  1
  C  C208  1  0.44930000  0.89830000  0.15830000  1
  C  C209  1  0.44820000  0.64020000  0.01860000  1
  C  C210  1  0.44050000  0.42820000  0.59340000  1
  C  C211  1  0.43220000  0.36030000  0.24270000  1
  C  C212  1  0.43100000  0.00750000  0.09020000  1
  C  C213  1  0.42030000  0.92700000  0.10130000  1
  C  C214  1  0.41660000  0.55960000  0.11360000  1
  C  C215  1  0.41660000  0.56850000  0.04570000  1
  C  C216  1  0.39570000  0.21810000  0.23710000  1
  C  C217  1  0.36350000  0.77640000  0.92580000  1
  C  C218  1  0.36160000  0.69540000  0.91720000  1
  C  C219  1  0.35800000  0.43210000  0.57040000  1
  C  C220  1  0.35580000  0.36880000  0.22540000  1
  C  C221  1  0.35000000  0.70230000  0.38330000  1
  C  C222  1  0.34120000  0.50370000  0.54530000  1
  C  C223  1  0.31840000  0.22730000  0.22010000  1
  C  C224  1  0.29830000  0.36760000  0.57480000  1
  C  C225  1  0.29760000  0.30220000  0.21430000  1
  C  C226  1  0.29590000  0.05420000  0.03430000  1
  C  C227  1  0.29540000  0.80930000  0.91460000  1
  C  C228  1  0.29210000  0.64930000  0.89740000  1
  C  C229  1  0.28550000  0.18650000  0.69480000  1
  C  C230  1  0.28000000  0.12520000  0.05720000  1
  C  C231  1  0.27570000  0.81830000  0.38710000  1
  C  C232  1  0.27510000  0.73760000  0.39570000  1
  C  C233  1  0.26410000  0.51100000  0.52660000  1
  C  C234  1  0.23590000  0.98900000  0.02660000  1
  C  C235  1  0.22490000  0.76240000  0.89570000  1
  C  C236  1  0.22430000  0.68170000  0.88710000  1
  C  C237  1  0.22000000  0.37480000  0.55720000  1
  C  C238  1  0.21450000  0.31350000  0.19480000  1
  C  C239  1  0.20790000  0.85070000  0.39740000  1
  C  C240  1  0.20460000  0.69070000  0.41460000  1
  C  C241  1  0.20410000  0.44580000  0.53430000  1
  C  C242  1  0.20240000  0.19780000  0.71430000  1
  C  C243  1  0.20170000  0.13240000  0.07480000  1
  C  C244  1  0.18160000  0.27270000  0.72010000  1
  C  C245  1  0.15880000  0.99630000  0.04530000  1
  C  C246  1  0.15000000  0.79770000  0.88330000  1
  C  C247  1  0.14420000  0.13120000  0.72540000  1
  C  C248  1  0.14200000  0.06790000  0.07040000  1
  C  C249  1  0.13840000  0.80460000  0.41720000  1
  C  C250  1  0.13650000  0.72360000  0.42580000  1
  C  C251  1  0.10430000  0.28190000  0.73710000  1
  C  C252  1  0.08340000  0.94040000  0.61360000  1
  C  C253  1  0.08340000  0.93150000  0.54570000  1
  C  C254  1  0.07970000  0.57300000  0.60130000  1
  C  C255  1  0.06900000  0.49250000  0.59020000  1
  C  C256  1  0.06780000  0.13970000  0.74270000  1
  C  C257  1  0.05950000  0.07180000  0.09340000  1
  C  C258  1  0.05180000  0.85980000  0.51860000  1
  C  C259  1  0.05070000  0.60170000  0.65830000  1
  C  C260  1  0.04980000  0.87760000  0.65390000  1
  C  C261  1  0.04710000  0.21490000  0.74820000  1
  C  C262  1  0.04580000  0.88580000  0.72720000  1
  C  C263  1  0.04390000  0.36310000  0.03680000  1
  C  C264  1  0.03710000  0.73550000  0.14700000  1
  C  C265  1  0.03550000  0.65630000  0.13610000  1
  C  C266  1  0.02940000  0.44010000  0.63500000  1
  C  C267  1  0.02390000  0.41630000  0.23460000  1
  C  C268  1  0.02200000  0.78760000  0.09640000  1
  C  C269  1  0.01840000  0.79610000  0.55790000  1
  C  C270  1  0.01740000  0.80630000  0.62530000  1
  C  C271  1  0.01350000  0.62540000  0.07410000  1
  C  C272  1  0.00980000  0.55090000  0.70410000  1
  C  C273  1  0.00590000  0.32610000  0.97500000  1
  C  C274  1  0.00090000  0.53050000  0.30770000  1
  C  C275  1  0.00030000  0.75520000  0.03510000  1
  S  S276  1  0.94915000  0.22628000  0.77200000  1
  S  S277  1  0.94806000  0.15331000  0.56815000  1
  S  S278  1  0.89571000  0.54291000  0.48405000  1
  S  S279  1  0.60429000  0.95709000  0.98405000  1
  S  S280  1  0.55194000  0.34669000  0.06815000  1
  S  S281  1  0.55085000  0.27372000  0.27200000  1
  S  S282  1  0.44915000  0.72628000  0.72800000  1
  S  S283  1  0.44806000  0.65331000  0.93185000  1
  S  S284  1  0.39571000  0.04291000  0.01595000  1
  S  S285  1  0.10429000  0.45709000  0.51595000  1
  S  S286  1  0.05194000  0.84669000  0.43185000  1
  S  S287  1  0.05085000  0.77372000  0.22800000  1
  O  O288  1  0.99510000  0.16860000  0.24263000  1
  O  O289  1  0.98880000  0.99220000  0.89990000  1
  O  O290  1  0.98300000  0.78780000  0.41550000  1
  O  O291  1  0.98230000  0.65690000  0.76887000  1
  O  O292  1  0.96120000  0.86240000  0.89384000  1
  O  O293  1  0.94420000  0.56250000  0.95907000  1
  O  O294  1  0.94300000  0.53320000  0.80601000  1
  O  O295  1  0.94010000  0.61990000  0.49776000  1
  O  O296  1  0.93750000  0.07700000  0.59850000  1
  O  O297  1  0.93020000  0.67900000  0.91981000  1
  O  O298  1  0.92390000  0.28710000  0.73217000  1
  O  O299  1  0.91670000  0.05310000  0.24588000  1
  O  O300  1  0.91160000  0.24710000  0.13260000  1
  O  O301  1  0.90100000  0.14930000  0.77421000  1
  O  O302  1  0.89290000  0.48080000  0.53225000  1
  O  O303  1  0.84320000  0.12810000  0.11031000  1
  O  O304  1  0.83860000  0.74560000  0.80903000  1
  O  O305  1  0.79510000  0.61530000  0.81580000  1
  O  O306  1  0.70490000  0.88470000  0.31580000  1
  O  O307  1  0.66140000  0.75440000  0.30903000  1
  O  O308  1  0.65680000  0.37190000  0.61031000  1
  O  O309  1  0.60710000  0.01920000  0.03225000  1
  O  O310  1  0.59900000  0.35070000  0.27421000  1
  O  O311  1  0.58840000  0.25290000  0.63260000  1
  O  O312  1  0.58330000  0.44690000  0.74588000  1
  O  O313  1  0.57610000  0.21290000  0.23217000  1
  O  O314  1  0.56980000  0.82100000  0.41981000  1
  O  O315  1  0.56250000  0.42300000  0.09850000  1
  O  O316  1  0.55990000  0.88010000  0.99776000  1
  O  O317  1  0.55700000  0.96680000  0.30601000  1
  O  O318  1  0.55580000  0.93750000  0.45907000  1
  O  O319  1  0.53880000  0.63760000  0.39384000  1
  O  O320  1  0.51770000  0.84310000  0.26887000  1
  O  O321  1  0.51700000  0.71220000  0.91550000  1
  O  O322  1  0.51120000  0.50780000  0.39990000  1
  O  O323  1  0.50490000  0.33140000  0.74263000  1
  O  O324  1  0.49510000  0.66860000  0.25737000  1
  O  O325  1  0.48880000  0.49220000  0.60010000  1
  O  O326  1  0.48300000  0.28780000  0.08450000  1
  O  O327  1  0.48230000  0.15690000  0.73113000  1
  O  O328  1  0.46120000  0.36240000  0.60616000  1
  O  O329  1  0.44420000  0.06250000  0.54093000  1
  O  O330  1  0.44300000  0.03320000  0.69399000  1
  O  O331  1  0.44010000  0.11990000  0.00224000  1
  O  O332  1  0.43750000  0.57700000  0.90150000  1
  O  O333  1  0.43020000  0.17900000  0.58019000  1
  O  O334  1  0.42390000  0.78710000  0.76783000  1
  O  O335  1  0.41670000  0.55310000  0.25412000  1
  O  O336  1  0.41160000  0.74710000  0.36740000  1
  O  O337  1  0.40100000  0.64930000  0.72579000  1
  O  O338  1  0.39290000  0.98080000  0.96775000  1
  O  O339  1  0.34320000  0.62810000  0.38969000  1
  O  O340  1  0.33860000  0.24560000  0.69097000  1
  O  O341  1  0.29510000  0.11530000  0.68420000  1
  O  O342  1  0.20490000  0.38470000  0.18420000  1
  O  O343  1  0.16140000  0.25440000  0.19097000  1
  O  O344  1  0.15680000  0.87190000  0.88969000  1
  O  O345  1  0.10710000  0.51920000  0.46775000  1
  O  O346  1  0.09900000  0.85070000  0.22579000  1
  O  O347  1  0.08840000  0.75290000  0.86740000  1
  O  O348  1  0.08330000  0.94690000  0.75412000  1
  O  O349  1  0.07610000  0.71290000  0.26783000  1
  O  O350  1  0.06980000  0.32100000  0.08019000  1
  O  O351  1  0.06250000  0.92300000  0.40150000  1
  O  O352  1  0.05990000  0.38010000  0.50224000  1
  O  O353  1  0.05700000  0.46680000  0.19399000  1
  O  O354  1  0.05580000  0.43750000  0.04093000  1
  O  O355  1  0.03880000  0.13760000  0.10616000  1
  O  O356  1  0.01770000  0.34310000  0.23113000  1
  O  O357  1  0.01700000  0.21220000  0.58450000  1
  O  O358  1  0.01120000  0.00780000  0.10010000  1
  O  O359  1  0.00490000  0.83140000  0.75737000  1
