# generated using pymatgen
data_Zn7H12C21(N3O2)4
_symmetry_space_group_name_H-M   'P 1'
_cell_length_a   20.14050000
_cell_length_b   20.14050000
_cell_length_c   20.14050000
_cell_angle_alpha   90.00000000
_cell_angle_beta   90.00000000
_cell_angle_gamma   90.00000000
_symmetry_Int_Tables_number   1
_chemical_formula_structural   Zn7H12C21(N3O2)4
_chemical_formula_sum   'Zn28 H48 C84 N48 O32'
_cell_volume   8169.78718851
_cell_formula_units_Z   4
loop_
 _symmetry_equiv_pos_site_id
 _symmetry_equiv_pos_as_xyz
  1  'x, y, z'
loop_
 _atom_site_type_symbol
 _atom_site_label
 _atom_site_symmetry_multiplicity
 _atom_site_fract_x
 _atom_site_fract_y
 _atom_site_fract_z
 _atom_site_occupancy
  Zn  Zn0  1  0.19033000  0.69033000  0.80967000  1
  Zn  Zn1  1  0.19110000  0.69697000  0.19670000  1
  Zn  Zn2  1  0.19206000  0.80332000  0.69596000  1
  Zn  Zn3  1  0.19596000  0.30794000  0.19668000  1
  Zn  Zn4  1  0.19668000  0.19596000  0.30794000  1
  Zn  Zn5  1  0.19670000  0.19110000  0.69697000  1
  Zn  Zn6  1  0.19697000  0.30330000  0.80890000  1
  Zn  Zn7  1  0.30303000  0.69670000  0.30890000  1
  Zn  Zn8  1  0.30330000  0.80890000  0.19697000  1
  Zn  Zn9  1  0.30332000  0.80404000  0.80794000  1
  Zn  Zn10  1  0.30404000  0.69206000  0.69668000  1
  Zn  Zn11  1  0.30794000  0.19668000  0.19596000  1
  Zn  Zn12  1  0.30890000  0.30303000  0.69670000  1
  Zn  Zn13  1  0.30967000  0.30967000  0.30967000  1
  Zn  Zn14  1  0.69033000  0.80967000  0.19033000  1
  Zn  Zn15  1  0.69110000  0.80303000  0.80330000  1
  Zn  Zn16  1  0.69206000  0.69668000  0.30404000  1
  Zn  Zn17  1  0.69596000  0.19206000  0.80332000  1
  Zn  Zn18  1  0.69668000  0.30404000  0.69206000  1
  Zn  Zn19  1  0.69670000  0.30890000  0.30303000  1
  Zn  Zn20  1  0.69697000  0.19670000  0.19110000  1
  Zn  Zn21  1  0.80303000  0.80330000  0.69110000  1
  Zn  Zn22  1  0.80330000  0.69110000  0.80303000  1
  Zn  Zn23  1  0.80332000  0.69596000  0.19206000  1
  Zn  Zn24  1  0.80404000  0.80794000  0.30332000  1
  Zn  Zn25  1  0.80794000  0.30332000  0.80404000  1
  Zn  Zn26  1  0.80890000  0.19697000  0.30330000  1
  Zn  Zn27  1  0.80967000  0.19033000  0.69033000  1
  H  H28  1  0.01080000  0.31290000  0.17480000  1
  H  H29  1  0.02160000  0.68300000  0.82790000  1
  H  H30  1  0.02520000  0.83070000  0.70030000  1
  H  H31  1  0.04360000  0.16360000  0.26470000  1
  H  H32  1  0.16360000  0.26470000  0.04360000  1
  H  H33  1  0.16930000  0.20030000  0.47480000  1
  H  H34  1  0.17210000  0.52160000  0.81700000  1
  H  H35  1  0.17480000  0.01080000  0.31290000  1
  H  H36  1  0.18300000  0.67210000  0.97840000  1
  H  H37  1  0.18710000  0.82520000  0.51080000  1
  H  H38  1  0.20030000  0.47480000  0.16930000  1
  H  H39  1  0.23530000  0.95640000  0.66360000  1
  H  H40  1  0.26470000  0.04360000  0.16360000  1
  H  H41  1  0.29970000  0.52520000  0.66930000  1
  H  H42  1  0.31290000  0.17480000  0.01080000  1
  H  H43  1  0.31700000  0.32790000  0.47840000  1
  H  H44  1  0.32520000  0.98920000  0.81290000  1
  H  H45  1  0.32790000  0.47840000  0.31700000  1
  H  H46  1  0.33070000  0.79970000  0.97480000  1
  H  H47  1  0.33640000  0.73530000  0.54360000  1
  H  H48  1  0.45640000  0.83640000  0.76470000  1
  H  H49  1  0.47480000  0.16930000  0.20030000  1
  H  H50  1  0.47840000  0.31700000  0.32790000  1
  H  H51  1  0.48920000  0.68710000  0.67480000  1
  H  H52  1  0.51080000  0.18710000  0.82520000  1
  H  H53  1  0.52160000  0.81700000  0.17210000  1
  H  H54  1  0.52520000  0.66930000  0.29970000  1
  H  H55  1  0.54360000  0.33640000  0.73530000  1
  H  H56  1  0.66360000  0.23530000  0.95640000  1
  H  H57  1  0.66930000  0.29970000  0.52520000  1
  H  H58  1  0.67210000  0.97840000  0.18300000  1
  H  H59  1  0.67480000  0.48920000  0.68710000  1
  H  H60  1  0.68300000  0.82790000  0.02160000  1
  H  H61  1  0.68710000  0.67480000  0.48920000  1
  H  H62  1  0.70030000  0.02520000  0.83070000  1
  H  H63  1  0.73530000  0.54360000  0.33640000  1
  H  H64  1  0.76470000  0.45640000  0.83640000  1
  H  H65  1  0.79970000  0.97480000  0.33070000  1
  H  H66  1  0.81290000  0.32520000  0.98920000  1
  H  H67  1  0.81700000  0.17210000  0.52160000  1
  H  H68  1  0.82520000  0.51080000  0.18710000  1
  H  H69  1  0.82790000  0.02160000  0.68300000  1
  H  H70  1  0.83070000  0.70030000  0.02520000  1
  H  H71  1  0.83640000  0.76470000  0.45640000  1
  H  H72  1  0.95640000  0.66360000  0.23530000  1
  H  H73  1  0.97480000  0.33070000  0.79970000  1
  H  H74  1  0.97840000  0.18300000  0.67210000  1
  H  H75  1  0.98920000  0.81290000  0.32520000  1
  C  C76  1  0.00330000  0.73660000  0.25090000  1
  C  C77  1  0.00540000  0.24150000  0.75260000  1
  C  C78  1  0.03024000  0.28410000  0.20670000  1
  C  C79  1  0.03620000  0.70990000  0.79200000  1
  C  C80  1  0.03870000  0.79020000  0.72020000  1
  C  C81  1  0.04739000  0.21060000  0.26270000  1
  C  C82  1  0.07480000  0.23880000  0.75570000  1
  C  C83  1  0.20670000  0.03024000  0.28410000  1
  C  C84  1  0.20800000  0.53620000  0.79010000  1
  C  C85  1  0.20980000  0.22020000  0.46130000  1
  C  C86  1  0.20990000  0.70800000  0.96380000  1
  C  C87  1  0.21060000  0.26270000  0.04739000  1
  C  C88  1  0.21590000  0.79330000  0.53024000  1
  C  C89  1  0.22020000  0.46130000  0.20980000  1
  C  C90  1  0.23660000  0.24910000  0.99670000  1
  C  C91  1  0.23730000  0.95261000  0.71060000  1
  C  C92  1  0.23880000  0.75570000  0.07480000  1
  C  C93  1  0.24150000  0.75260000  0.00540000  1
  C  C94  1  0.24430000  0.57480000  0.26120000  1
  C  C95  1  0.24740000  0.50540000  0.25850000  1
  C  C96  1  0.24910000  0.99670000  0.23660000  1
  C  C97  1  0.25090000  0.00330000  0.73660000  1
  C  C98  1  0.25260000  0.49460000  0.75850000  1
  C  C99  1  0.25570000  0.42520000  0.76120000  1
  C  C100  1  0.25850000  0.24740000  0.50540000  1
  C  C101  1  0.26120000  0.24430000  0.57480000  1
  C  C102  1  0.26270000  0.04739000  0.21060000  1
  C  C103  1  0.26340000  0.75090000  0.49670000  1
  C  C104  1  0.27980000  0.53870000  0.70980000  1
  C  C105  1  0.28410000  0.20670000  0.03024000  1
  C  C106  1  0.28940000  0.73730000  0.54739000  1
  C  C107  1  0.29010000  0.29200000  0.46380000  1
  C  C108  1  0.29020000  0.77980000  0.96130000  1
  C  C109  1  0.29200000  0.46380000  0.29010000  1
  C  C110  1  0.29330000  0.96976000  0.78410000  1
  C  C111  1  0.42520000  0.76120000  0.25570000  1
  C  C112  1  0.45261000  0.78940000  0.76270000  1
  C  C113  1  0.46130000  0.20980000  0.22020000  1
  C  C114  1  0.46380000  0.29010000  0.29200000  1
  C  C115  1  0.46976000  0.71590000  0.70670000  1
  C  C116  1  0.49460000  0.75850000  0.25260000  1
  C  C117  1  0.49670000  0.26340000  0.75090000  1
  C  C118  1  0.50330000  0.76340000  0.74910000  1
  C  C119  1  0.50540000  0.25850000  0.24740000  1
  C  C120  1  0.53024000  0.21590000  0.79330000  1
  C  C121  1  0.53620000  0.79010000  0.20800000  1
  C  C122  1  0.53870000  0.70980000  0.27980000  1
  C  C123  1  0.54739000  0.28940000  0.73730000  1
  C  C124  1  0.57480000  0.26120000  0.24430000  1
  C  C125  1  0.70670000  0.46976000  0.71590000  1
  C  C126  1  0.70800000  0.96380000  0.20990000  1
  C  C127  1  0.70980000  0.27980000  0.53870000  1
  C  C128  1  0.70990000  0.79200000  0.03620000  1
  C  C129  1  0.71060000  0.23730000  0.95261000  1
  C  C130  1  0.71590000  0.70670000  0.46976000  1
  C  C131  1  0.72020000  0.03870000  0.79020000  1
  C  C132  1  0.73660000  0.25090000  0.00330000  1
  C  C133  1  0.73730000  0.54739000  0.28940000  1
  C  C134  1  0.73880000  0.74430000  0.92520000  1
  C  C135  1  0.74150000  0.74740000  0.99460000  1
  C  C136  1  0.74430000  0.92520000  0.73880000  1
  C  C137  1  0.74740000  0.99460000  0.74150000  1
  C  C138  1  0.74910000  0.50330000  0.76340000  1
  C  C139  1  0.75090000  0.49670000  0.26340000  1
  C  C140  1  0.75260000  0.00540000  0.24150000  1
  C  C141  1  0.75570000  0.07480000  0.23880000  1
  C  C142  1  0.75850000  0.25260000  0.49460000  1
  C  C143  1  0.76120000  0.25570000  0.42520000  1
  C  C144  1  0.76270000  0.45261000  0.78940000  1
  C  C145  1  0.76340000  0.74910000  0.50330000  1
  C  C146  1  0.77980000  0.96130000  0.29020000  1
  C  C147  1  0.78410000  0.29330000  0.96976000  1
  C  C148  1  0.78940000  0.76270000  0.45261000  1
  C  C149  1  0.79010000  0.20800000  0.53620000  1
  C  C150  1  0.79020000  0.72020000  0.03870000  1
  C  C151  1  0.79200000  0.03620000  0.70990000  1
  C  C152  1  0.79330000  0.53024000  0.21590000  1
  C  C153  1  0.92520000  0.73880000  0.74430000  1
  C  C154  1  0.95261000  0.71060000  0.23730000  1
  C  C155  1  0.96130000  0.29020000  0.77980000  1
  C  C156  1  0.96380000  0.20990000  0.70800000  1
  C  C157  1  0.96976000  0.78410000  0.29330000  1
  C  C158  1  0.99460000  0.74150000  0.74740000  1
  C  C159  1  0.99670000  0.23660000  0.24910000  1
  N  N160  1  0.09910000  0.72230000  0.77780000  1
  N  N161  1  0.10190000  0.77040000  0.72700000  1
  N  N162  1  0.10310000  0.27780000  0.22460000  1
  N  N163  1  0.10360000  0.22980000  0.27470000  1
  N  N164  1  0.22220000  0.59910000  0.77770000  1
  N  N165  1  0.22220000  0.77540000  0.60310000  1
  N  N166  1  0.22230000  0.72220000  0.90090000  1
  N  N167  1  0.22460000  0.10310000  0.27780000  1
  N  N168  1  0.22530000  0.89640000  0.72980000  1
  N  N169  1  0.22700000  0.39810000  0.22960000  1
  N  N170  1  0.22960000  0.22700000  0.39810000  1
  N  N171  1  0.22980000  0.27470000  0.10360000  1
  N  N172  1  0.27020000  0.72530000  0.60360000  1
  N  N173  1  0.27040000  0.77300000  0.89810000  1
  N  N174  1  0.27300000  0.60190000  0.72960000  1
  N  N175  1  0.27470000  0.10360000  0.22980000  1
  N  N176  1  0.27540000  0.89690000  0.77780000  1
  N  N177  1  0.27770000  0.27780000  0.40090000  1
  N  N178  1  0.27780000  0.22460000  0.10310000  1
  N  N179  1  0.27780000  0.40090000  0.27770000  1
  N  N180  1  0.39640000  0.77020000  0.77470000  1
  N  N181  1  0.39690000  0.72220000  0.72460000  1
  N  N182  1  0.39810000  0.22960000  0.22700000  1
  N  N183  1  0.40090000  0.27770000  0.27780000  1
  N  N184  1  0.59910000  0.77770000  0.22220000  1
  N  N185  1  0.60190000  0.72960000  0.27300000  1
  N  N186  1  0.60310000  0.22220000  0.77540000  1
  N  N187  1  0.60360000  0.27020000  0.72530000  1
  N  N188  1  0.72220000  0.72460000  0.39690000  1
  N  N189  1  0.72220000  0.90090000  0.22230000  1
  N  N190  1  0.72230000  0.77780000  0.09910000  1
  N  N191  1  0.72460000  0.39690000  0.72220000  1
  N  N192  1  0.72530000  0.60360000  0.27020000  1
  N  N193  1  0.72700000  0.10190000  0.77040000  1
  N  N194  1  0.72960000  0.27300000  0.60190000  1
  N  N195  1  0.72980000  0.22530000  0.89640000  1
  N  N196  1  0.77020000  0.77470000  0.39640000  1
  N  N197  1  0.77040000  0.72700000  0.10190000  1
  N  N198  1  0.77300000  0.89810000  0.27040000  1
  N  N199  1  0.77470000  0.39640000  0.77020000  1
  N  N200  1  0.77540000  0.60310000  0.22220000  1
  N  N201  1  0.77770000  0.22220000  0.59910000  1
  N  N202  1  0.77780000  0.09910000  0.72230000  1
  N  N203  1  0.77780000  0.27540000  0.89690000  1
  N  N204  1  0.89640000  0.72980000  0.22530000  1
  N  N205  1  0.89690000  0.77780000  0.27540000  1
  N  N206  1  0.89810000  0.27040000  0.77300000  1
  N  N207  1  0.90090000  0.22230000  0.72220000  1
  O  O208  1  0.10580000  0.27770000  0.79220000  1
  O  O209  1  0.10650000  0.20470000  0.72680000  1
  O  O210  1  0.20470000  0.72680000  0.10650000  1
  O  O211  1  0.20780000  0.60580000  0.22230000  1
  O  O212  1  0.22230000  0.20780000  0.60580000  1
  O  O213  1  0.22680000  0.39350000  0.79530000  1
  O  O214  1  0.24570000  0.75430000  0.25430000  1
  O  O215  1  0.24830000  0.74830000  0.75170000  1
  O  O216  1  0.25170000  0.25170000  0.25170000  1
  O  O217  1  0.25430000  0.24570000  0.75430000  1
  O  O218  1  0.27320000  0.60650000  0.29530000  1
  O  O219  1  0.27770000  0.79220000  0.10580000  1
  O  O220  1  0.29220000  0.39420000  0.72230000  1
  O  O221  1  0.29530000  0.27320000  0.60650000  1
  O  O222  1  0.39350000  0.79530000  0.22680000  1
  O  O223  1  0.39420000  0.72230000  0.29220000  1
  O  O224  1  0.60580000  0.22230000  0.20780000  1
  O  O225  1  0.60650000  0.29530000  0.27320000  1
  O  O226  1  0.70470000  0.77320000  0.89350000  1
  O  O227  1  0.70780000  0.89420000  0.77770000  1
  O  O228  1  0.72230000  0.29220000  0.39420000  1
  O  O229  1  0.72680000  0.10650000  0.20470000  1
  O  O230  1  0.74570000  0.74570000  0.74570000  1
  O  O231  1  0.74830000  0.75170000  0.24830000  1
  O  O232  1  0.75170000  0.24830000  0.74830000  1
  O  O233  1  0.75430000  0.25430000  0.24570000  1
  O  O234  1  0.77320000  0.89350000  0.70470000  1
  O  O235  1  0.77770000  0.70780000  0.89420000  1
  O  O236  1  0.79220000  0.10580000  0.27770000  1
  O  O237  1  0.79530000  0.22680000  0.39350000  1
  O  O238  1  0.89350000  0.70470000  0.77320000  1
  O  O239  1  0.89420000  0.77770000  0.70780000  1
