# generated using pymatgen
data_FeH8(C3N)4
_symmetry_space_group_name_H-M   'P 1'
_cell_length_a   13.43330000
_cell_length_b   13.84930000
_cell_length_c   26.74770000
_cell_angle_alpha   90.00000000
_cell_angle_beta   101.55000000
_cell_angle_gamma   90.00000000
_symmetry_Int_Tables_number   1
_chemical_formula_structural   FeH8(C3N)4
_chemical_formula_sum   'Fe8 H64 C96 N32'
_cell_volume   4875.42418803
_cell_formula_units_Z   8
loop_
 _symmetry_equiv_pos_site_id
 _symmetry_equiv_pos_as_xyz
  1  'x, y, z'
loop_
 _atom_site_type_symbol
 _atom_site_label
 _atom_site_symmetry_multiplicity
 _atom_site_fract_x
 _atom_site_fract_y
 _atom_site_fract_z
 _atom_site_occupancy
  Fe  Fe0  1  0.47925000  0.13397000  0.72908000  1
  Fe  Fe1  1  0.47925000  0.36603000  0.22908000  1
  Fe  Fe2  1  0.48841000  0.61244000  0.25751000  1
  Fe  Fe3  1  0.48841000  0.88756000  0.75751000  1
  Fe  Fe4  1  0.51159000  0.11244000  0.24249000  1
  Fe  Fe5  1  0.51159000  0.38756000  0.74249000  1
  Fe  Fe6  1  0.52075000  0.63397000  0.77092000  1
  Fe  Fe7  1  0.52075000  0.86603000  0.27092000  1
  H  H8  1  0.05030000  0.13190000  0.69620000  1
  H  H9  1  0.05030000  0.36810000  0.19620000  1
  H  H10  1  0.08570000  0.61850000  0.27530000  1
  H  H11  1  0.08570000  0.88150000  0.77530000  1
  H  H12  1  0.08730000  0.11980000  0.22300000  1
  H  H13  1  0.08730000  0.38020000  0.72300000  1
  H  H14  1  0.12260000  0.63200000  0.80170000  1
  H  H15  1  0.12260000  0.86800000  0.30170000  1
  H  H16  1  0.22620000  0.14250000  0.70570000  1
  H  H17  1  0.22620000  0.35750000  0.20570000  1
  H  H18  1  0.25350000  0.62190000  0.26890000  1
  H  H19  1  0.25350000  0.87810000  0.76890000  1
  H  H20  1  0.26250000  0.12460000  0.22910000  1
  H  H21  1  0.26250000  0.37540000  0.72910000  1
  H  H22  1  0.28760000  0.63910000  0.79220000  1
  H  H23  1  0.28760000  0.86090000  0.29220000  1
  H  H24  1  0.41870000  0.63420000  0.04470000  1
  H  H25  1  0.41870000  0.86580000  0.54470000  1
  H  H26  1  0.43000000  0.64110000  0.95980000  1
  H  H27  1  0.43000000  0.85890000  0.45980000  1
  H  H28  1  0.43400000  0.62090000  0.13260000  1
  H  H29  1  0.43400000  0.87910000  0.63260000  1
  H  H30  1  0.46790000  0.08450000  0.02220000  1
  H  H31  1  0.46790000  0.41550000  0.52220000  1
  H  H32  1  0.47340000  0.13410000  0.60830000  1
  H  H33  1  0.47340000  0.36590000  0.10830000  1
  H  H34  1  0.47450000  0.58120000  0.37860000  1
  H  H35  1  0.47450000  0.91880000  0.87860000  1
  H  H36  1  0.47600000  0.09130000  0.93610000  1
  H  H37  1  0.47600000  0.40870000  0.43610000  1
  H  H38  1  0.48180000  0.10130000  0.85010000  1
  H  H39  1  0.48180000  0.39870000  0.35010000  1
  H  H40  1  0.51820000  0.60130000  0.64990000  1
  H  H41  1  0.51820000  0.89870000  0.14990000  1
  H  H42  1  0.52400000  0.59130000  0.56390000  1
  H  H43  1  0.52400000  0.90870000  0.06390000  1
  H  H44  1  0.52550000  0.08120000  0.12140000  1
  H  H45  1  0.52550000  0.41880000  0.62140000  1
  H  H46  1  0.52660000  0.63410000  0.89170000  1
  H  H47  1  0.52660000  0.86590000  0.39170000  1
  H  H48  1  0.53210000  0.58450000  0.47780000  1
  H  H49  1  0.53210000  0.91550000  0.97780000  1
  H  H50  1  0.56600000  0.12090000  0.36740000  1
  H  H51  1  0.56600000  0.37910000  0.86740000  1
  H  H52  1  0.57000000  0.14110000  0.54020000  1
  H  H53  1  0.57000000  0.35890000  0.04020000  1
  H  H54  1  0.58130000  0.13420000  0.45530000  1
  H  H55  1  0.58130000  0.36580000  0.95530000  1
  H  H56  1  0.71240000  0.13910000  0.70780000  1
  H  H57  1  0.71240000  0.36090000  0.20780000  1
  H  H58  1  0.73750000  0.62460000  0.27090000  1
  H  H59  1  0.73750000  0.87540000  0.77090000  1
  H  H60  1  0.74650000  0.12190000  0.23110000  1
  H  H61  1  0.74650000  0.37810000  0.73110000  1
  H  H62  1  0.77380000  0.64250000  0.79430000  1
  H  H63  1  0.77380000  0.85750000  0.29430000  1
  H  H64  1  0.87740000  0.13200000  0.69830000  1
  H  H65  1  0.87740000  0.36800000  0.19830000  1
  H  H66  1  0.91270000  0.61980000  0.27700000  1
  H  H67  1  0.91270000  0.88020000  0.77700000  1
  H  H68  1  0.91430000  0.11850000  0.22470000  1
  H  H69  1  0.91430000  0.38150000  0.72470000  1
  H  H70  1  0.94970000  0.63190000  0.80380000  1
  H  H71  1  0.94970000  0.86810000  0.30380000  1
  C  C72  1  0.02260000  0.08080000  0.71284000  1
  C  C73  1  0.02260000  0.41920000  0.21284000  1
  C  C74  1  0.04340000  0.56750000  0.25957000  1
  C  C75  1  0.04340000  0.93250000  0.75957000  1
  C  C76  1  0.05980000  0.06830000  0.23936000  1
  C  C77  1  0.05980000  0.43170000  0.73936000  1
  C  C78  1  0.08080000  0.58070000  0.78606000  1
  C  C79  1  0.08080000  0.91930000  0.28606000  1
  C  C80  1  0.08530000  0.00720000  0.73573000  1
  C  C81  1  0.08530000  0.49280000  0.23573000  1
  C  C82  1  0.12330000  0.50640000  0.76235000  1
  C  C83  1  0.12330000  0.99360000  0.26235000  1
  C  C84  1  0.19580000  0.00870000  0.73616000  1
  C  C85  1  0.19580000  0.49130000  0.23616000  1
  C  C86  1  0.23340000  0.50680000  0.76107000  1
  C  C87  1  0.23340000  0.99320000  0.26107000  1
  C  C88  1  0.25310000  0.08290000  0.71996000  1
  C  C89  1  0.25310000  0.41710000  0.21996000  1
  C  C90  1  0.26790000  0.56200000  0.25456000  1
  C  C91  1  0.26790000  0.93800000  0.75456000  1
  C  C92  1  0.28900000  0.06460000  0.24294000  1
  C  C93  1  0.28900000  0.43540000  0.74294000  1
  C  C94  1  0.30260000  0.57980000  0.77745000  1
  C  C95  1  0.30260000  0.92020000  0.27745000  1
  C  C96  1  0.44370000  0.69110000  0.03168000  1
  C  C97  1  0.44370000  0.80890000  0.53168000  1
  C  C98  1  0.45010000  0.69560000  0.98103000  1
  C  C99  1  0.45010000  0.80440000  0.48103000  1
  C  C100  1  0.45510000  0.68210000  0.14696000  1
  C  C101  1  0.45510000  0.81790000  0.64696000  1
  C  C102  1  0.47360000  0.73050000  0.56401000  1
  C  C103  1  0.47360000  0.76950000  0.06401000  1
  C  C104  1  0.47450000  0.73700000  0.61891000  1
  C  C105  1  0.47450000  0.76300000  0.11891000  1
  C  C106  1  0.48370000  0.19770000  0.62164000  1
  C  C107  1  0.48370000  0.30230000  0.12164000  1
  C  C108  1  0.48540000  0.72200000  0.45981000  1
  C  C109  1  0.48540000  0.77800000  0.95981000  1
  C  C110  1  0.48750000  0.64660000  0.37133000  1
  C  C111  1  0.48750000  0.85340000  0.87133000  1
  C  C112  1  0.48920000  0.14250000  0.00856000  1
  C  C113  1  0.48920000  0.35750000  0.50856000  1
  C  C114  1  0.49440000  0.14640000  0.95710000  1
  C  C115  1  0.49440000  0.35360000  0.45710000  1
  C  C116  1  0.49510000  0.72160000  0.40601000  1
  C  C117  1  0.49510000  0.77840000  0.90601000  1
  C  C118  1  0.49930000  0.16590000  0.84365000  1
  C  C119  1  0.49930000  0.33410000  0.34365000  1
  C  C120  1  0.50070000  0.66590000  0.65635000  1
  C  C121  1  0.50070000  0.83410000  0.15635000  1
  C  C122  1  0.50490000  0.22160000  0.09399000  1
  C  C123  1  0.50490000  0.27840000  0.59399000  1
  C  C124  1  0.50560000  0.64640000  0.54290000  1
  C  C125  1  0.50560000  0.85360000  0.04290000  1
  C  C126  1  0.51080000  0.64250000  0.49144000  1
  C  C127  1  0.51080000  0.85750000  0.99144000  1
  C  C128  1  0.51250000  0.14660000  0.12867000  1
  C  C129  1  0.51250000  0.35340000  0.62867000  1
  C  C130  1  0.51460000  0.22200000  0.04019000  1
  C  C131  1  0.51460000  0.27800000  0.54019000  1
  C  C132  1  0.51630000  0.69770000  0.87836000  1
  C  C133  1  0.51630000  0.80230000  0.37836000  1
  C  C134  1  0.52550000  0.23700000  0.88109000  1
  C  C135  1  0.52550000  0.26300000  0.38109000  1
  C  C136  1  0.52640000  0.23050000  0.93599000  1
  C  C137  1  0.52640000  0.26950000  0.43599000  1
  C  C138  1  0.54490000  0.18210000  0.35304000  1
  C  C139  1  0.54490000  0.31790000  0.85304000  1
  C  C140  1  0.54990000  0.19560000  0.51897000  1
  C  C141  1  0.54990000  0.30440000  0.01897000  1
  C  C142  1  0.55630000  0.19110000  0.46832000  1
  C  C143  1  0.55630000  0.30890000  0.96832000  1
  C  C144  1  0.69740000  0.07980000  0.72255000  1
  C  C145  1  0.69740000  0.42020000  0.22255000  1
  C  C146  1  0.71100000  0.56460000  0.25706000  1
  C  C147  1  0.71100000  0.93540000  0.75706000  1
  C  C148  1  0.73210000  0.06200000  0.24544000  1
  C  C149  1  0.73210000  0.43800000  0.74544000  1
  C  C150  1  0.74690000  0.58290000  0.78004000  1
  C  C151  1  0.74690000  0.91710000  0.28004000  1
  C  C152  1  0.76660000  0.00680000  0.73893000  1
  C  C153  1  0.76660000  0.49320000  0.23893000  1
  C  C154  1  0.80420000  0.50870000  0.76384000  1
  C  C155  1  0.80420000  0.99130000  0.26384000  1
  C  C156  1  0.87670000  0.00640000  0.73765000  1
  C  C157  1  0.87670000  0.49360000  0.23765000  1
  C  C158  1  0.91470000  0.50720000  0.76427000  1
  C  C159  1  0.91470000  0.99280000  0.26427000  1
  C  C160  1  0.91920000  0.08070000  0.71394000  1
  C  C161  1  0.91920000  0.41930000  0.21394000  1
  C  C162  1  0.94020000  0.56830000  0.26064000  1
  C  C163  1  0.94020000  0.93170000  0.76064000  1
  C  C164  1  0.95660000  0.06750000  0.24043000  1
  C  C165  1  0.95660000  0.43250000  0.74043000  1
  C  C166  1  0.97740000  0.58080000  0.78716000  1
  C  C167  1  0.97740000  0.91920000  0.28716000  1
  N  N168  1  0.35120000  0.05740000  0.72759000  1
  N  N169  1  0.35120000  0.44260000  0.22759000  1
  N  N170  1  0.36110000  0.53320000  0.24901000  1
  N  N171  1  0.36110000  0.96680000  0.74901000  1
  N  N172  1  0.38550000  0.03650000  0.24783000  1
  N  N173  1  0.38550000  0.46350000  0.74783000  1
  N  N174  1  0.39510000  0.55350000  0.76913000  1
  N  N175  1  0.39510000  0.94650000  0.26913000  1
  N  N176  1  0.47040000  0.70290000  0.19680000  1
  N  N177  1  0.47040000  0.79710000  0.69680000  1
  N  N178  1  0.48030000  0.22330000  0.66988000  1
  N  N179  1  0.48030000  0.27670000  0.16988000  1
  N  N180  1  0.49750000  0.70170000  0.70269000  1
  N  N181  1  0.49750000  0.79830000  0.20269000  1
  N  N182  1  0.49870000  0.17970000  0.17417000  1
  N  N183  1  0.49870000  0.32030000  0.67417000  1
  N  N184  1  0.50130000  0.67970000  0.32583000  1
  N  N185  1  0.50130000  0.82030000  0.82583000  1
  N  N186  1  0.50250000  0.20170000  0.79731000  1
  N  N187  1  0.50250000  0.29830000  0.29731000  1
  N  N188  1  0.51970000  0.72330000  0.83012000  1
  N  N189  1  0.51970000  0.77670000  0.33012000  1
  N  N190  1  0.52960000  0.20290000  0.30320000  1
  N  N191  1  0.52960000  0.29710000  0.80320000  1
  N  N192  1  0.60490000  0.05350000  0.73087000  1
  N  N193  1  0.60490000  0.44650000  0.23087000  1
  N  N194  1  0.61450000  0.53650000  0.25217000  1
  N  N195  1  0.61450000  0.96350000  0.75217000  1
  N  N196  1  0.63890000  0.03320000  0.25099000  1
  N  N197  1  0.63890000  0.46680000  0.75099000  1
  N  N198  1  0.64880000  0.55740000  0.77241000  1
  N  N199  1  0.64880000  0.94260000  0.27241000  1
