# generated using pymatgen
data_Ni3H16C30(NO7)2
_symmetry_space_group_name_H-M   'P 1'
_cell_length_a   12.23150000
_cell_length_b   12.44280000
_cell_length_c   17.74830000
_cell_angle_alpha   90.00000000
_cell_angle_beta   90.00000000
_cell_angle_gamma   112.51000000
_symmetry_Int_Tables_number   1
_chemical_formula_structural   Ni3H16C30(NO7)2
_chemical_formula_sum   'Ni6 H32 C60 N4 O28'
_cell_volume   2495.39064432
_cell_formula_units_Z   2
loop_
 _symmetry_equiv_pos_site_id
 _symmetry_equiv_pos_as_xyz
  1  'x, y, z'
loop_
 _atom_site_type_symbol
 _atom_site_label
 _atom_site_symmetry_multiplicity
 _atom_site_fract_x
 _atom_site_fract_y
 _atom_site_fract_z
 _atom_site_occupancy
  Ni  Ni0  1  0.00000000  0.50000000  0.50000000  1
  Ni  Ni1  1  0.15437000  0.06103000  0.29552000  1
  Ni  Ni2  1  0.34563000  0.93897000  0.79552000  1
  Ni  Ni3  1  0.50000000  0.50000000  0.00000000  1
  Ni  Ni4  1  0.65437000  0.06103000  0.20448000  1
  Ni  Ni5  1  0.84563000  0.93897000  0.70448000  1
  H  H6  1  0.01030000  0.68470000  0.20670000  1
  H  H7  1  0.03090000  0.58940000  0.71570000  1
  H  H8  1  0.06640000  0.41120000  0.73310000  1
  H  H9  1  0.06890000  0.71410000  0.39630000  1
  H  H10  1  0.14880000  0.26860000  0.77060000  1
  H  H11  1  0.15020000  0.64210000  0.12400000  1
  H  H12  1  0.21150000  0.48380000  0.42760000  1
  H  H13  1  0.24720000  0.37610000  0.17870000  1
  H  H14  1  0.25280000  0.62390000  0.67870000  1
  H  H15  1  0.28850000  0.51620000  0.92760000  1
  H  H16  1  0.34980000  0.35790000  0.62400000  1
  H  H17  1  0.35120000  0.73140000  0.27060000  1
  H  H18  1  0.43110000  0.28590000  0.89630000  1
  H  H19  1  0.43360000  0.58880000  0.23310000  1
  H  H20  1  0.46910000  0.41060000  0.21570000  1
  H  H21  1  0.48970000  0.31530000  0.70670000  1
  H  H22  1  0.51030000  0.68470000  0.29330000  1
  H  H23  1  0.53090000  0.58940000  0.78430000  1
  H  H24  1  0.56640000  0.41120000  0.76690000  1
  H  H25  1  0.56890000  0.71410000  0.10370000  1
  H  H26  1  0.64880000  0.26860000  0.72940000  1
  H  H27  1  0.65020000  0.64210000  0.37600000  1
  H  H28  1  0.71150000  0.48380000  0.07240000  1
  H  H29  1  0.74720000  0.37610000  0.32130000  1
  H  H30  1  0.75280000  0.62390000  0.82130000  1
  H  H31  1  0.78850000  0.51620000  0.57240000  1
  H  H32  1  0.84980000  0.35790000  0.87600000  1
  H  H33  1  0.85120000  0.73140000  0.22940000  1
  H  H34  1  0.93110000  0.28590000  0.60370000  1
  H  H35  1  0.93360000  0.58880000  0.26690000  1
  H  H36  1  0.96910000  0.41060000  0.28430000  1
  H  H37  1  0.98970000  0.31530000  0.79330000  1
  C  C38  1  0.03170000  0.43740000  0.24860000  1
  C  C39  1  0.03230000  0.39970000  0.78450000  1
  C  C40  1  0.04980000  0.53720000  0.20660000  1
  C  C41  1  0.08730000  0.26880000  0.28170000  1
  C  C42  1  0.10590000  0.37700000  0.23820000  1
  C  C43  1  0.12670000  0.68370000  0.38310000  1
  C  C44  1  0.13950000  0.57480000  0.15310000  1
  C  C45  1  0.19190000  0.44650000  0.58290000  1
  C  C46  1  0.19620000  0.41680000  0.18540000  1
  C  C47  1  0.20420000  0.39830000  0.84810000  1
  C  C48  1  0.20520000  0.30370000  0.80910000  1
  C  C49  1  0.20710000  0.84630000  0.28930000  1
  C  C50  1  0.20810000  0.73950000  0.32780000  1
  C  C51  1  0.21020000  0.55020000  0.40180000  1
  C  C52  1  0.21360000  0.51560000  0.14180000  1
  C  C53  1  0.28640000  0.48440000  0.64180000  1
  C  C54  1  0.28980000  0.44980000  0.90180000  1
  C  C55  1  0.29190000  0.26050000  0.82780000  1
  C  C56  1  0.29290000  0.15370000  0.78930000  1
  C  C57  1  0.29480000  0.69630000  0.30910000  1
  C  C58  1  0.29580000  0.60170000  0.34810000  1
  C  C59  1  0.30380000  0.58320000  0.68540000  1
  C  C60  1  0.30810000  0.55350000  0.08290000  1
  C  C61  1  0.36050000  0.42520000  0.65310000  1
  C  C62  1  0.37330000  0.31630000  0.88310000  1
  C  C63  1  0.39410000  0.62300000  0.73820000  1
  C  C64  1  0.41270000  0.73120000  0.78170000  1
  C  C65  1  0.45020000  0.46280000  0.70660000  1
  C  C66  1  0.46770000  0.60030000  0.28450000  1
  C  C67  1  0.46830000  0.56260000  0.74860000  1
  C  C68  1  0.53170000  0.43740000  0.25140000  1
  C  C69  1  0.53230000  0.39970000  0.71550000  1
  C  C70  1  0.54980000  0.53720000  0.29340000  1
  C  C71  1  0.58730000  0.26880000  0.21830000  1
  C  C72  1  0.60590000  0.37700000  0.26180000  1
  C  C73  1  0.62670000  0.68370000  0.11690000  1
  C  C74  1  0.63950000  0.57480000  0.34690000  1
  C  C75  1  0.69190000  0.44650000  0.91710000  1
  C  C76  1  0.69620000  0.41680000  0.31460000  1
  C  C77  1  0.70420000  0.39830000  0.65190000  1
  C  C78  1  0.70520000  0.30370000  0.69090000  1
  C  C79  1  0.70710000  0.84630000  0.21070000  1
  C  C80  1  0.70810000  0.73950000  0.17220000  1
  C  C81  1  0.71020000  0.55020000  0.09820000  1
  C  C82  1  0.71360000  0.51560000  0.35820000  1
  C  C83  1  0.78640000  0.48440000  0.85820000  1
  C  C84  1  0.78980000  0.44980000  0.59820000  1
  C  C85  1  0.79190000  0.26050000  0.67220000  1
  C  C86  1  0.79290000  0.15370000  0.71070000  1
  C  C87  1  0.79480000  0.69630000  0.19090000  1
  C  C88  1  0.79580000  0.60170000  0.15190000  1
  C  C89  1  0.80380000  0.58320000  0.81460000  1
  C  C90  1  0.80810000  0.55350000  0.41710000  1
  C  C91  1  0.86050000  0.42520000  0.84690000  1
  C  C92  1  0.87330000  0.31630000  0.61690000  1
  C  C93  1  0.89410000  0.62300000  0.76180000  1
  C  C94  1  0.91270000  0.73120000  0.71830000  1
  C  C95  1  0.95020000  0.46280000  0.79340000  1
  C  C96  1  0.96770000  0.60030000  0.21550000  1
  C  C97  1  0.96830000  0.56260000  0.75140000  1
  N  N98  1  0.12570000  0.58870000  0.41917000  1
  N  N99  1  0.37430000  0.41130000  0.91917000  1
  N  N100  1  0.62570000  0.58870000  0.08083000  1
  N  N101  1  0.87430000  0.41130000  0.58083000  1
  O  O102  1  0.00160000  0.23160000  0.32799000  1
  O  O103  1  0.12340000  0.44880000  0.83958000  1
  O  O104  1  0.12900000  0.50560000  0.57614000  1
  O  O105  1  0.14940000  0.89840000  0.32061000  1
  O  O106  1  0.16090000  0.22220000  0.27017000  1
  O  O107  1  0.18230000  0.35930000  0.54282000  1
  O  O108  1  0.23440000  0.12430000  0.72859000  1
  O  O109  1  0.26560000  0.87570000  0.22859000  1
  O  O110  1  0.31770000  0.64070000  0.04282000  1
  O  O111  1  0.33910000  0.77780000  0.77017000  1
  O  O112  1  0.35060000  0.10160000  0.82061000  1
  O  O113  1  0.37100000  0.49440000  0.07614000  1
  O  O114  1  0.37660000  0.55120000  0.33958000  1
  O  O115  1  0.49840000  0.76840000  0.82799000  1
  O  O116  1  0.50160000  0.23160000  0.17201000  1
  O  O117  1  0.62340000  0.44880000  0.66042000  1
  O  O118  1  0.62900000  0.50560000  0.92386000  1
  O  O119  1  0.64940000  0.89840000  0.17939000  1
  O  O120  1  0.66090000  0.22220000  0.22983000  1
  O  O121  1  0.68230000  0.35930000  0.95718000  1
  O  O122  1  0.73440000  0.12430000  0.77141000  1
  O  O123  1  0.76560000  0.87570000  0.27141000  1
  O  O124  1  0.81770000  0.64070000  0.45718000  1
  O  O125  1  0.83910000  0.77780000  0.72983000  1
  O  O126  1  0.85060000  0.10160000  0.67939000  1
  O  O127  1  0.87100000  0.49440000  0.42386000  1
  O  O128  1  0.87660000  0.55120000  0.16042000  1
  O  O129  1  0.99840000  0.76840000  0.67201000  1
