# generated using pymatgen
data_MnH8C12(NO2)2
_symmetry_space_group_name_H-M   'P 1'
_cell_length_a   9.91650000
_cell_length_b   10.96930000
_cell_length_c   13.05280000
_cell_angle_alpha   90.00000000
_cell_angle_beta   90.00000000
_cell_angle_gamma   101.63300000
_symmetry_Int_Tables_number   1
_chemical_formula_structural   MnH8C12(NO2)2
_chemical_formula_sum   'Mn4 H32 C48 N8 O16'
_cell_volume   1390.68060228
_cell_formula_units_Z   4
loop_
 _symmetry_equiv_pos_site_id
 _symmetry_equiv_pos_as_xyz
  1  'x, y, z'
loop_
 _atom_site_type_symbol
 _atom_site_label
 _atom_site_symmetry_multiplicity
 _atom_site_fract_x
 _atom_site_fract_y
 _atom_site_fract_z
 _atom_site_occupancy
  Mn  Mn0  1  0.12446000  0.25318000  0.38847000  1
  Mn  Mn1  1  0.37357000  0.75178000  0.88756000  1
  Mn  Mn2  1  0.62643000  0.24822000  0.38756000  1
  Mn  Mn3  1  0.87554000  0.74682000  0.88847000  1
  H  H4  1  0.04240000  0.99110000  0.22030000  1
  H  H5  1  0.04860000  0.86100000  0.08250000  1
  H  H6  1  0.08650000  0.63720000  0.75470000  1
  H  H7  1  0.10290000  0.51320000  0.61720000  1
  H  H8  1  0.29910000  0.37530000  0.20460000  1
  H  H9  1  0.29960000  0.50040000  0.06540000  1
  H  H10  1  0.32250000  0.14470000  0.09110000  1
  H  H11  1  0.33260000  0.13160000  0.51750000  1
  H  H12  1  0.34050000  0.02060000  0.95250000  1
  H  H13  1  0.34690000  0.00400000  0.65510000  1
  H  H14  1  0.37640000  0.74540000  0.13110000  1
  H  H15  1  0.38230000  0.86810000  0.27300000  1
  H  H16  1  0.38470000  0.76040000  0.64240000  1
  H  H17  1  0.38940000  0.63840000  0.50160000  1
  H  H18  1  0.39220000  0.48130000  0.82190000  1
  H  H19  1  0.40750000  0.35360000  0.68690000  1
  H  H20  1  0.59250000  0.64640000  0.18690000  1
  H  H21  1  0.60780000  0.51870000  0.32190000  1
  H  H22  1  0.61060000  0.36160000  0.00160000  1
  H  H23  1  0.61530000  0.23960000  0.14240000  1
  H  H24  1  0.61770000  0.13190000  0.77300000  1
  H  H25  1  0.62360000  0.25460000  0.63110000  1
  H  H26  1  0.65310000  0.99600000  0.15510000  1
  H  H27  1  0.65950000  0.97940000  0.45250000  1
  H  H28  1  0.66740000  0.86840000  0.01750000  1
  H  H29  1  0.67750000  0.85530000  0.59110000  1
  H  H30  1  0.70040000  0.49960000  0.56540000  1
  H  H31  1  0.70090000  0.62470000  0.70460000  1
  H  H32  1  0.89710000  0.48680000  0.11720000  1
  H  H33  1  0.91350000  0.36280000  0.25470000  1
  H  H34  1  0.95140000  0.13900000  0.58250000  1
  H  H35  1  0.95760000  0.00890000  0.72030000  1
  C  C36  1  0.00820000  0.60710000  0.71600000  1
  C  C37  1  0.01880000  0.53290000  0.63430000  1
  C  C38  1  0.03160000  0.11000000  0.59560000  1
  C  C39  1  0.03540000  0.03300000  0.67960000  1
  C  C40  1  0.09120000  0.59620000  0.98590000  1
  C  C41  1  0.09850000  0.51320000  0.07640000  1
  C  C42  1  0.15390000  0.99260000  0.70240000  1
  C  C43  1  0.15830000  0.90280000  0.78980000  1
  C  C44  1  0.21810000  0.40030000  0.18670000  1
  C  C45  1  0.21960000  0.47520000  0.10340000  1
  C  C46  1  0.25480000  0.10580000  0.55780000  1
  C  C47  1  0.26480000  0.02950000  0.64130000  1
  C  C48  1  0.33660000  0.06430000  0.10080000  1
  C  C49  1  0.34410000  0.10150000  0.29090000  1
  C  C50  1  0.34500000  0.98800000  0.01790000  1
  C  C51  1  0.34960000  0.01900000  0.19910000  1
  C  C52  1  0.36910000  0.82800000  0.12250000  1
  C  C53  1  0.36910000  0.90020000  0.20870000  1
  C  C54  1  0.38780000  0.67690000  0.65130000  1
  C  C55  1  0.39180000  0.60420000  0.56670000  1
  C  C56  1  0.39370000  0.51360000  0.75590000  1
  C  C57  1  0.39920000  0.48100000  0.57700000  1
  C  C58  1  0.40120000  0.43590000  0.67550000  1
  C  C59  1  0.40970000  0.40090000  0.48570000  1
  C  C60  1  0.59030000  0.59910000  0.98570000  1
  C  C61  1  0.59880000  0.56410000  0.17550000  1
  C  C62  1  0.60080000  0.51900000  0.07700000  1
  C  C63  1  0.60630000  0.48640000  0.25590000  1
  C  C64  1  0.60820000  0.39580000  0.06670000  1
  C  C65  1  0.61220000  0.32310000  0.15130000  1
  C  C66  1  0.63090000  0.09980000  0.70870000  1
  C  C67  1  0.63090000  0.17200000  0.62250000  1
  C  C68  1  0.65040000  0.98100000  0.69910000  1
  C  C69  1  0.65500000  0.01200000  0.51790000  1
  C  C70  1  0.65590000  0.89850000  0.79090000  1
  C  C71  1  0.66340000  0.93570000  0.60080000  1
  C  C72  1  0.73520000  0.97050000  0.14130000  1
  C  C73  1  0.74520000  0.89420000  0.05780000  1
  C  C74  1  0.78040000  0.52480000  0.60340000  1
  C  C75  1  0.78190000  0.59970000  0.68670000  1
  C  C76  1  0.84170000  0.09720000  0.28980000  1
  C  C77  1  0.84610000  0.00740000  0.20240000  1
  C  C78  1  0.90150000  0.48680000  0.57640000  1
  C  C79  1  0.90880000  0.40380000  0.48590000  1
  C  C80  1  0.96460000  0.96700000  0.17960000  1
  C  C81  1  0.96840000  0.89000000  0.09560000  1
  C  C82  1  0.98120000  0.46710000  0.13430000  1
  C  C83  1  0.99180000  0.39290000  0.21600000  1
  N  N84  1  0.10860000  0.36180000  0.24270000  1
  N  N85  1  0.14010000  0.14410000  0.53230000  1
  N  N86  1  0.35930000  0.86980000  0.02670000  1
  N  N87  1  0.38840000  0.63250000  0.74500000  1
  N  N88  1  0.61160000  0.36750000  0.24500000  1
  N  N89  1  0.64070000  0.13020000  0.52670000  1
  N  N90  1  0.85990000  0.85590000  0.03230000  1
  N  N91  1  0.89140000  0.63820000  0.74270000  1
  O  O92  1  0.01700000  0.36690000  0.47390000  1
  O  O93  1  0.05950000  0.88160000  0.84780000  1
  O  O94  1  0.19420000  0.61940000  0.92780000  1
  O  O95  1  0.23800000  0.14480000  0.29490000  1
  O  O96  1  0.26760000  0.86150000  0.79330000  1
  O  O97  1  0.31480000  0.38660000  0.42110000  1
  O  O98  1  0.44190000  0.11480000  0.35010000  1
  O  O99  1  0.48600000  0.64590000  0.98060000  1
  O  O100  1  0.51400000  0.35410000  0.48060000  1
  O  O101  1  0.55810000  0.88520000  0.85010000  1
  O  O102  1  0.68520000  0.61340000  0.92110000  1
  O  O103  1  0.73240000  0.13850000  0.29330000  1
  O  O104  1  0.76200000  0.85520000  0.79490000  1
  O  O105  1  0.80580000  0.38060000  0.42780000  1
  O  O106  1  0.94050000  0.11840000  0.34780000  1
  O  O107  1  0.98300000  0.63310000  0.97390000  1
