# generated using pymatgen
data_Ni3H12(C11O5)2
_symmetry_space_group_name_H-M   'P 1'
_cell_length_a   11.00310000
_cell_length_b   11.22170000
_cell_length_c   11.69590000
_cell_angle_alpha   69.19300000
_cell_angle_beta   79.67600000
_cell_angle_gamma   81.00800000
_symmetry_Int_Tables_number   1
_chemical_formula_structural   Ni3H12(C11O5)2
_chemical_formula_sum   'Ni6 H24 C44 O20'
_cell_volume   1321.33993596
_cell_formula_units_Z   2
loop_
 _symmetry_equiv_pos_site_id
 _symmetry_equiv_pos_as_xyz
  1  'x, y, z'
loop_
 _atom_site_type_symbol
 _atom_site_label
 _atom_site_symmetry_multiplicity
 _atom_site_fract_x
 _atom_site_fract_y
 _atom_site_fract_z
 _atom_site_occupancy
  Ni  Ni0  1  0.01533000  0.75470000  0.76187000  1
  Ni  Ni1  1  0.02843000  0.57350000  0.07488000  1
  Ni  Ni2  1  0.13653000  0.98240000  0.49931000  1
  Ni  Ni3  1  0.86347000  0.01760000  0.50069000  1
  Ni  Ni4  1  0.97157000  0.42650000  0.92512000  1
  Ni  Ni5  1  0.98467000  0.24530000  0.23813000  1
  H  H6  1  0.01950000  0.01910000  0.33160000  1
  H  H7  1  0.13470000  0.56290000  0.88050000  1
  H  H8  1  0.20740000  0.73440000  0.28590000  1
  H  H9  1  0.25440000  0.20860000  0.79180000  1
  H  H10  1  0.26600000  0.46460000  0.61620000  1
  H  H11  1  0.27700000  0.97310000  0.13790000  1
  H  H12  1  0.30820000  0.59490000  0.18990000  1
  H  H13  1  0.35950000  0.04820000  0.72090000  1
  H  H14  1  0.37220000  0.33240000  0.51660000  1
  H  H15  1  0.38640000  0.82270000  0.07030000  1
  H  H16  1  0.39370000  0.22450000  0.07870000  1
  H  H17  1  0.42610000  0.67200000  0.64830000  1
  H  H18  1  0.57390000  0.32800000  0.35170000  1
  H  H19  1  0.60630000  0.77550000  0.92130000  1
  H  H20  1  0.61360000  0.17730000  0.92970000  1
  H  H21  1  0.62780000  0.66760000  0.48340000  1
  H  H22  1  0.64050000  0.95180000  0.27910000  1
  H  H23  1  0.69180000  0.40510000  0.81010000  1
  H  H24  1  0.72300000  0.02690000  0.86210000  1
  H  H25  1  0.73400000  0.53540000  0.38380000  1
  H  H26  1  0.74560000  0.79140000  0.20820000  1
  H  H27  1  0.79260000  0.26560000  0.71410000  1
  H  H28  1  0.86530000  0.43710000  0.11950000  1
  H  H29  1  0.98050000  0.98090000  0.66840000  1
  C  C30  1  0.14920000  0.19790000  0.01610000  1
  C  C31  1  0.15780000  0.70350000  0.52960000  1
  C  C32  1  0.22300000  0.61750000  0.46270000  1
  C  C33  1  0.22660000  0.36600000  0.18290000  1
  C  C34  1  0.23870000  0.65320000  0.33290000  1
  C  C35  1  0.24400000  0.10720000  0.97280000  1
  C  C36  1  0.27270000  0.83850000  0.71520000  1
  C  C37  1  0.27500000  0.49160000  0.53050000  1
  C  C38  1  0.27730000  0.12910000  0.84810000  1
  C  C39  1  0.29270000  0.98880000  0.05330000  1
  C  C40  1  0.29960000  0.56930000  0.27550000  1
  C  C41  1  0.33680000  0.41210000  0.47080000  1
  C  C42  1  0.34480000  0.03390000  0.80530000  1
  C  C43  1  0.34940000  0.44600000  0.34170000  1
  C  C44  1  0.35950000  0.89960000  0.01270000  1
  C  C45  1  0.36220000  0.33030000  0.19050000  1
  C  C46  1  0.39150000  0.91570000  0.88800000  1
  C  C47  1  0.39980000  0.78180000  0.75260000  1
  C  C48  1  0.41730000  0.35970000  0.27830000  1
  C  C49  1  0.42970000  0.24430000  0.13500000  1
  C  C50  1  0.45290000  0.81270000  0.84040000  1
  C  C51  1  0.46440000  0.69520000  0.70080000  1
  C  C52  1  0.53560000  0.30480000  0.29920000  1
  C  C53  1  0.54710000  0.18730000  0.15960000  1
  C  C54  1  0.57030000  0.75570000  0.86500000  1
  C  C55  1  0.58270000  0.64030000  0.72170000  1
  C  C56  1  0.60020000  0.21820000  0.24740000  1
  C  C57  1  0.60850000  0.08430000  0.11200000  1
  C  C58  1  0.63780000  0.66970000  0.80950000  1
  C  C59  1  0.64050000  0.10040000  0.98730000  1
  C  C60  1  0.65060000  0.55400000  0.65830000  1
  C  C61  1  0.65520000  0.96610000  0.19470000  1
  C  C62  1  0.66320000  0.58790000  0.52920000  1
  C  C63  1  0.70040000  0.43070000  0.72450000  1
  C  C64  1  0.70730000  0.01120000  0.94670000  1
  C  C65  1  0.72270000  0.87090000  0.15190000  1
  C  C66  1  0.72500000  0.50840000  0.46950000  1
  C  C67  1  0.72730000  0.16150000  0.28480000  1
  C  C68  1  0.75600000  0.89280000  0.02720000  1
  C  C69  1  0.76130000  0.34680000  0.66710000  1
  C  C70  1  0.77340000  0.63400000  0.81710000  1
  C  C71  1  0.77700000  0.38250000  0.53730000  1
  C  C72  1  0.84220000  0.29650000  0.47040000  1
  C  C73  1  0.85080000  0.80210000  0.98390000  1
  O  O74  1  0.01310000  0.07090000  0.37100000  1
  O  O75  1  0.05760000  0.58350000  0.89670000  1
  O  O76  1  0.09160000  0.15550000  0.12110000  1
  O  O77  1  0.11580000  0.66730000  0.64050000  1
  O  O78  1  0.13560000  0.31010000  0.94290000  1
  O  O79  1  0.13960000  0.82180000  0.45560000  1
  O  O80  1  0.15190000  0.29720000  0.25850000  1
  O  O81  1  0.17610000  0.81170000  0.79610000  1
  O  O82  1  0.20090000  0.46880000  0.09390000  1
  O  O83  1  0.27320000  0.90120000  0.60210000  1
  O  O84  1  0.72680000  0.09880000  0.39790000  1
  O  O85  1  0.79910000  0.53120000  0.90610000  1
  O  O86  1  0.82390000  0.18830000  0.20390000  1
  O  O87  1  0.84810000  0.70280000  0.74150000  1
  O  O88  1  0.86040000  0.17820000  0.54440000  1
  O  O89  1  0.86440000  0.68990000  0.05710000  1
  O  O90  1  0.88420000  0.33270000  0.35950000  1
  O  O91  1  0.90840000  0.84450000  0.87890000  1
  O  O92  1  0.94240000  0.41650000  0.10330000  1
  O  O93  1  0.98690000  0.92910000  0.62900000  1
