# generated using pymatgen
data_Mn5H110C162(N4O13)2
_symmetry_space_group_name_H-M   'P 1'
_cell_length_a   13.02030000
_cell_length_b   19.77600000
_cell_length_c   20.82740000
_cell_angle_alpha   61.93200000
_cell_angle_beta   73.26800000
_cell_angle_gamma   80.16200000
_symmetry_Int_Tables_number   1
_chemical_formula_structural   Mn5H110C162(N4O13)2
_chemical_formula_sum   'Mn5 H110 C162 N8 O26'
_cell_volume   4527.78392138
_cell_formula_units_Z   1
loop_
 _symmetry_equiv_pos_site_id
 _symmetry_equiv_pos_as_xyz
  1  'x, y, z'
loop_
 _atom_site_type_symbol
 _atom_site_label
 _atom_site_symmetry_multiplicity
 _atom_site_fract_x
 _atom_site_fract_y
 _atom_site_fract_z
 _atom_site_occupancy
  Mn  Mn0  1  0.00000000  0.00000000  0.00000000  1
  Mn  Mn1  1  0.08455000  0.20235000  0.90042000  1
  Mn  Mn2  1  0.29339000  0.29806000  0.90380000  1
  Mn  Mn3  1  0.70661000  0.70194000  0.09620000  1
  Mn  Mn4  1  0.91545000  0.79765000  0.09958000  1
  H  H5  1  0.00820000  0.18890000  0.27960000  1
  H  H6  1  0.02750000  0.22780000  0.69520000  1
  H  H7  1  0.03550000  0.14890000  0.47160000  1
  H  H8  1  0.03860000  0.95740000  0.78860000  1
  H  H9  1  0.04510000  0.73240000  0.58820000  1
  H  H10  1  0.04640000  0.58780000  0.35160000  1
  H  H11  1  0.04840000  0.11990000  0.09150000  1
  H  H12  1  0.05550000  0.74180000  0.39870000  1
  H  H13  1  0.06720000  0.88680000  0.61080000  1
  H  H14  1  0.06840000  0.57750000  0.22680000  1
  H  H15  1  0.07690000  0.58350000  0.53900000  1
  H  H16  1  0.09080000  0.26950000  0.15850000  1
  H  H17  1  0.09690000  0.37290000  0.43910000  1
  H  H18  1  0.09940000  0.64000000  0.70470000  1
  H  H19  1  0.11620000  0.02700000  0.68370000  1
  H  H20  1  0.12280000  0.96630000  0.18210000  1
  H  H21  1  0.13060000  0.36990000  0.62460000  1
  H  H22  1  0.14290000  0.72990000  0.96260000  1
  H  H23  1  0.14780000  0.97000000  0.49100000  1
  H  H24  1  0.14930000  0.45980000  0.28530000  1
  H  H25  1  0.17820000  0.52190000  0.76540000  1
  H  H26  1  0.18470000  0.90130000  0.41930000  1
  H  H27  1  0.19960000  0.73540000  0.74010000  1
  H  H28  1  0.20070000  0.93900000  0.27780000  1
  H  H29  1  0.20370000  0.10750000  0.56470000  1
  H  H30  1  0.21740000  0.70500000  0.86210000  1
  H  H31  1  0.22950000  0.10990000  0.31060000  1
  H  H32  1  0.23410000  0.12230000  0.03330000  1
  H  H33  1  0.23630000  0.34280000  0.27020000  1
  H  H34  1  0.25320000  0.96310000  0.97890000  1
  H  H35  1  0.25610000  0.26500000  0.62170000  1
  H  H36  1  0.25800000  0.93980000  0.84540000  1
  H  H37  1  0.25950000  0.71400000  0.63750000  1
  H  H38  1  0.26580000  0.70900000  0.39950000  1
  H  H39  1  0.26790000  0.13260000  0.77080000  1
  H  H40  1  0.27630000  0.39080000  0.40330000  1
  H  H41  1  0.29570000  0.54240000  0.35620000  1
  H  H42  1  0.30260000  0.86890000  0.49290000  1
  H  H43  1  0.31540000  0.22360000  0.32780000  1
  H  H44  1  0.33550000  0.91380000  0.74450000  1
  H  H45  1  0.33960000  0.93030000  0.08250000  1
  H  H46  1  0.34020000  0.05030000  0.24120000  1
  H  H47  1  0.35320000  0.05640000  0.71410000  1
  H  H48  1  0.37160000  0.03810000  0.08330000  1
  H  H49  1  0.37500000  0.93070000  0.24500000  1
  H  H50  1  0.38910000  0.67450000  0.47210000  1
  H  H51  1  0.40850000  0.01480000  0.46010000  1
  H  H52  1  0.42040000  0.07760000  0.99570000  1
  H  H53  1  0.42110000  0.96040000  0.00300000  1
  H  H54  1  0.42900000  0.21710000  0.59650000  1
  H  H55  1  0.45090000  0.34730000  0.37760000  1
  H  H56  1  0.45870000  0.84830000  0.19300000  1
  H  H57  1  0.46600000  0.84260000  0.68600000  1
  H  H58  1  0.47260000  0.17870000  0.41820000  1
  H  H59  1  0.48410000  0.04630000  0.60750000  1
  H  H60  1  0.51590000  0.95370000  0.39250000  1
  H  H61  1  0.52740000  0.82130000  0.58180000  1
  H  H62  1  0.53400000  0.15740000  0.31400000  1
  H  H63  1  0.54130000  0.15170000  0.80700000  1
  H  H64  1  0.54910000  0.65270000  0.62240000  1
  H  H65  1  0.57100000  0.78290000  0.40350000  1
  H  H66  1  0.57890000  0.03960000  0.99700000  1
  H  H67  1  0.57960000  0.92240000  0.00430000  1
  H  H68  1  0.59150000  0.98520000  0.53990000  1
  H  H69  1  0.61090000  0.32550000  0.52790000  1
  H  H70  1  0.62500000  0.06930000  0.75500000  1
  H  H71  1  0.62840000  0.96190000  0.91670000  1
  H  H72  1  0.64680000  0.94360000  0.28590000  1
  H  H73  1  0.65980000  0.94970000  0.75880000  1
  H  H74  1  0.66040000  0.06970000  0.91750000  1
  H  H75  1  0.66450000  0.08620000  0.25550000  1
  H  H76  1  0.68460000  0.77640000  0.67220000  1
  H  H77  1  0.69740000  0.13110000  0.50710000  1
  H  H78  1  0.70430000  0.45760000  0.64380000  1
  H  H79  1  0.72370000  0.60920000  0.59670000  1
  H  H80  1  0.73210000  0.86740000  0.22920000  1
  H  H81  1  0.73420000  0.29100000  0.60050000  1
  H  H82  1  0.74050000  0.28600000  0.36250000  1
  H  H83  1  0.74200000  0.06020000  0.15460000  1
  H  H84  1  0.74390000  0.73500000  0.37830000  1
  H  H85  1  0.74680000  0.03690000  0.02110000  1
  H  H86  1  0.76370000  0.65720000  0.72980000  1
  H  H87  1  0.76590000  0.87770000  0.96670000  1
  H  H88  1  0.77050000  0.89010000  0.68940000  1
  H  H89  1  0.78260000  0.29500000  0.13790000  1
  H  H90  1  0.79630000  0.89250000  0.43530000  1
  H  H91  1  0.79930000  0.06100000  0.72220000  1
  H  H92  1  0.80040000  0.26460000  0.25990000  1
  H  H93  1  0.81530000  0.09870000  0.58070000  1
  H  H94  1  0.82180000  0.47810000  0.23460000  1
  H  H95  1  0.85070000  0.54020000  0.71470000  1
  H  H96  1  0.85220000  0.03000000  0.50900000  1
  H  H97  1  0.85710000  0.27010000  0.03740000  1
  H  H98  1  0.86940000  0.63010000  0.37540000  1
  H  H99  1  0.87720000  0.03370000  0.81790000  1
  H  H100  1  0.88380000  0.97300000  0.31630000  1
  H  H101  1  0.90060000  0.36000000  0.29530000  1
  H  H102  1  0.90310000  0.62710000  0.56090000  1
  H  H103  1  0.90920000  0.73050000  0.84150000  1
  H  H104  1  0.92310000  0.41650000  0.46100000  1
  H  H105  1  0.93160000  0.42250000  0.77320000  1
  H  H106  1  0.93280000  0.11320000  0.38920000  1
  H  H107  1  0.94450000  0.25820000  0.60130000  1
  H  H108  1  0.95160000  0.88010000  0.90850000  1
  H  H109  1  0.95360000  0.41220000  0.64840000  1
  H  H110  1  0.95490000  0.26760000  0.41180000  1
  H  H111  1  0.96140000  0.04260000  0.21140000  1
  H  H112  1  0.96450000  0.85110000  0.52840000  1
  H  H113  1  0.97250000  0.77220000  0.30480000  1
  H  H114  1  0.99180000  0.81110000  0.72040000  1
  C  C115  1  0.00280000  0.88140000  0.16630000  1
  C  C116  1  0.01160000  0.91200000  0.79840000  1
  C  C117  1  0.01530000  0.17470000  0.24180000  1
  C  C118  1  0.01720000  0.59540000  0.39420000  1
  C  C119  1  0.02340000  0.80460000  0.29720000  1
  C  C120  1  0.02440000  0.89460000  0.74010000  1
  C  C121  1  0.02800000  0.25950000  0.39450000  1
  C  C122  1  0.03460000  0.53360000  0.23950000  1
  C  C123  1  0.03470000  0.39580000  0.29630000  1
  C  C124  1  0.03560000  0.59310000  0.50560000  1
  C  C125  1  0.03970000  0.13500000  0.12890000  1
  C  C126  1  0.04600000  0.86790000  0.23090000  1
  C  C127  1  0.06230000  0.45900000  0.77770000  1
  C  C128  1  0.06390000  0.59620000  0.71920000  1
  C  C129  1  0.06540000  0.22340000  0.16880000  1
  C  C130  1  0.06850000  0.38050000  0.48170000  1
  C  C131  1  0.07290000  0.78620000  0.35410000  1
  C  C132  1  0.07630000  0.18760000  0.43020000  1
  C  C133  1  0.07780000  0.20370000  0.11120000  1
  C  C134  1  0.07930000  0.58080000  0.44330000  1
  C  C135  1  0.08010000  0.94670000  0.66220000  1
  C  C136  1  0.08320000  0.46270000  0.27520000  1
  C  C137  1  0.08590000  0.31910000  0.33420000  1
  C  C138  1  0.08880000  0.37840000  0.59180000  1
  C  C139  1  0.09280000  0.93190000  0.60260000  1
  C  C140  1  0.11070000  0.38110000  0.82040000  1
  C  C141  1  0.11120000  0.91970000  0.22490000  1
  C  C142  1  0.11170000  0.52500000  0.75570000  1
  C  C143  1  0.12270000  0.01410000  0.64520000  1
  C  C144  1  0.12270000  0.85860000  0.97440000  1
  C  C145  1  0.13370000  0.36460000  0.52990000  1
  C  C146  1  0.13510000  0.25400000  0.03200000  1
  C  C147  1  0.14280000  0.98190000  0.53010000  1
  C  C148  1  0.14680000  0.83260000  0.34540000  1
  C  C149  1  0.15910000  0.90270000  0.28190000  1
  C  C150  1  0.17500000  0.06330000  0.57310000  1
  C  C151  1  0.18010000  0.76780000  0.91810000  1
  C  C152  1  0.18380000  0.17300000  0.40500000  1
  C  C153  1  0.18450000  0.04770000  0.51490000  1
  C  C154  1  0.18880000  0.83830000  0.91360000  1
  C  C155  1  0.19460000  0.30390000  0.31040000  1
  C  C156  1  0.19650000  0.55560000  0.42830000  1
  C  C157  1  0.21190000  0.05270000  0.99740000  1
  C  C158  1  0.21490000  0.80950000  0.39940000  1
  C  C159  1  0.22540000  0.75280000  0.85800000  1
  C  C160  1  0.22610000  0.85590000  0.42910000  1
  C  C161  1  0.24250000  0.23200000  0.34520000  1
  C  C162  1  0.24640000  0.33380000  0.51540000  1
  C  C163  1  0.24880000  0.89260000  0.84860000  1
  C  C164  1  0.26600000  0.75310000  0.70820000  1
  C  C165  1  0.27480000  0.74220000  0.41740000  1
  C  C166  1  0.28330000  0.80720000  0.79090000  1
  C  C167  1  0.28690000  0.07800000  0.32770000  1
  C  C168  1  0.29470000  0.28140000  0.57210000  1
  C  C169  1  0.29530000  0.87680000  0.78800000  1
  C  C170  1  0.29740000  0.83640000  0.47320000  1
  C  C171  1  0.30190000  0.74000000  0.64700000  1
  C  C172  1  0.30590000  0.06710000  0.39380000  1
  C  C173  1  0.30690000  0.35650000  0.44270000  1
  C  C174  1  0.32500000  0.79190000  0.72470000  1
  C  C175  1  0.34100000  0.12100000  0.76700000  1
  C  C176  1  0.34190000  0.20230000  0.82940000  1
  C  C177  1  0.34910000  0.72050000  0.46150000  1
  C  C178  1  0.35340000  0.04150000  0.28610000  1
  C  C179  1  0.35520000  0.97260000  0.03260000  1
  C  C180  1  0.36160000  0.76980000  0.48930000  1
  C  C181  1  0.36210000  0.04750000  0.03520000  1
  C  C182  1  0.39230000  0.07440000  0.73350000  1
  C  C183  1  0.39280000  0.02130000  0.41670000  1
  C  C184  1  0.39560000  0.15030000  0.79460000  1
  C  C185  1  0.39910000  0.25270000  0.55720000  1
  C  C186  1  0.39940000  0.76450000  0.59920000  1
  C  C187  1  0.41160000  0.32960000  0.42710000  1
  C  C188  1  0.42390000  0.81670000  0.67620000  1
  C  C189  1  0.43870000  0.99250000  0.31070000  1
  C  C190  1  0.44740000  0.91730000  0.24310000  1
  C  C191  1  0.45770000  0.98460000  0.37560000  1
  C  C192  1  0.45860000  0.27680000  0.48420000  1
  C  C193  1  0.46110000  0.80370000  0.61390000  1
  C  C194  1  0.49800000  0.86810000  0.21070000  1
  C  C195  1  0.49940000  0.05400000  0.72810000  1
  C  C196  1  0.50060000  0.94600000  0.27190000  1
  C  C197  1  0.50200000  0.13190000  0.78930000  1
  C  C198  1  0.53890000  0.19630000  0.38610000  1
  C  C199  1  0.54140000  0.72320000  0.51580000  1
  C  C200  1  0.54230000  0.01540000  0.62440000  1
  C  C201  1  0.55260000  0.08270000  0.75690000  1
  C  C202  1  0.56130000  0.00750000  0.68930000  1
  C  C203  1  0.57610000  0.18330000  0.32380000  1
  C  C204  1  0.58840000  0.67040000  0.57290000  1
  C  C205  1  0.60060000  0.23550000  0.40080000  1
  C  C206  1  0.60090000  0.74730000  0.44280000  1
  C  C207  1  0.60440000  0.84970000  0.20540000  1
  C  C208  1  0.60720000  0.97870000  0.58330000  1
  C  C209  1  0.60770000  0.92560000  0.26650000  1
  C  C210  1  0.63790000  0.95250000  0.96480000  1
  C  C211  1  0.63840000  0.23020000  0.51070000  1
  C  C212  1  0.64480000  0.02740000  0.96740000  1
  C  C213  1  0.64660000  0.95850000  0.71390000  1
  C  C214  1  0.65090000  0.27950000  0.53850000  1
  C  C215  1  0.65810000  0.79770000  0.17060000  1
  C  C216  1  0.65900000  0.87900000  0.23300000  1
  C  C217  1  0.67500000  0.20810000  0.27530000  1
  C  C218  1  0.69310000  0.64350000  0.55730000  1
  C  C219  1  0.69410000  0.93290000  0.60620000  1
  C  C220  1  0.69810000  0.26000000  0.35300000  1
  C  C221  1  0.70260000  0.16360000  0.52680000  1
  C  C222  1  0.70470000  0.12320000  0.21200000  1
  C  C223  1  0.70530000  0.71860000  0.42790000  1
  C  C224  1  0.71310000  0.92200000  0.67230000  1
  C  C225  1  0.71670000  0.19280000  0.20910000  1
  C  C226  1  0.72520000  0.25780000  0.58260000  1
  C  C227  1  0.73400000  0.24690000  0.29180000  1
  C  C228  1  0.75120000  0.10740000  0.15140000  1
  C  C229  1  0.75360000  0.66620000  0.48460000  1
  C  C230  1  0.75750000  0.76800000  0.65480000  1
  C  C231  1  0.77390000  0.14410000  0.57090000  1
  C  C232  1  0.77460000  0.24720000  0.14200000  1
  C  C233  1  0.78510000  0.19050000  0.60060000  1
  C  C234  1  0.78810000  0.94730000  0.00260000  1
  C  C235  1  0.80350000  0.44440000  0.57170000  1
  C  C236  1  0.80540000  0.69610000  0.68960000  1
  C  C237  1  0.81120000  0.16170000  0.08640000  1
  C  C238  1  0.81550000  0.95230000  0.48510000  1
  C  C239  1  0.81620000  0.82700000  0.59500000  1
  C  C240  1  0.81990000  0.23220000  0.08190000  1
  C  C241  1  0.82500000  0.93670000  0.42690000  1
  C  C242  1  0.84090000  0.09730000  0.71810000  1
  C  C243  1  0.85320000  0.16740000  0.65460000  1
  C  C244  1  0.85720000  0.01810000  0.46990000  1
  C  C245  1  0.86490000  0.74600000  0.96800000  1
  C  C246  1  0.86630000  0.63540000  0.47010000  1
  C  C247  1  0.87730000  0.14140000  0.02560000  1
  C  C248  1  0.87730000  0.98590000  0.35480000  1
  C  C249  1  0.88830000  0.47500000  0.24430000  1
  C  C250  1  0.88880000  0.08030000  0.77510000  1
  C  C251  1  0.88930000  0.61890000  0.17960000  1
  C  C252  1  0.90720000  0.06810000  0.39740000  1
  C  C253  1  0.91120000  0.62160000  0.40820000  1
  C  C254  1  0.91410000  0.68090000  0.66580000  1
  C  C255  1  0.91680000  0.53730000  0.72480000  1
  C  C256  1  0.91990000  0.05330000  0.33780000  1
  C  C257  1  0.92070000  0.41920000  0.55670000  1
  C  C258  1  0.92220000  0.79630000  0.88880000  1
  C  C259  1  0.92370000  0.81240000  0.56980000  1
  C  C260  1  0.92710000  0.21380000  0.64590000  1
  C  C261  1  0.93150000  0.61950000  0.51830000  1
  C  C262  1  0.93460000  0.77660000  0.83120000  1
  C  C263  1  0.93610000  0.40380000  0.28080000  1
  C  C264  1  0.93770000  0.54100000  0.22230000  1
  C  C265  1  0.95400000  0.13210000  0.76910000  1
  C  C266  1  0.96030000  0.86500000  0.87110000  1
  C  C267  1  0.96440000  0.40690000  0.49440000  1
  C  C268  1  0.96530000  0.60420000  0.70370000  1
  C  C269  1  0.96540000  0.46640000  0.76050000  1
  C  C270  1  0.97200000  0.74050000  0.60550000  1
  C  C271  1  0.97560000  0.10540000  0.25990000  1
  C  C272  1  0.97660000  0.19540000  0.70280000  1
  C  C273  1  0.98280000  0.40460000  0.60580000  1
  C  C274  1  0.98470000  0.82530000  0.75820000  1
  C  C275  1  0.98840000  0.08800000  0.20160000  1
  C  C276  1  0.99720000  0.11860000  0.83370000  1
  N  N277  1  0.23470000  0.09970000  0.43990000  1
  N  N278  1  0.26080000  0.08410000  0.02390000  1
  N  N279  1  0.26760000  0.99000000  0.99750000  1
  N  N280  1  0.43590000  0.75180000  0.53410000  1
  N  N281  1  0.56410000  0.24820000  0.46590000  1
  N  N282  1  0.73240000  0.01000000  0.00250000  1
  N  N283  1  0.73920000  0.91590000  0.97610000  1
  N  N284  1  0.76530000  0.90030000  0.56010000  1
  O  O285  1  0.02000000  0.94480000  0.11012000  1
  O  O286  1  0.04250000  0.17270000  0.82752000  1
  O  O287  1  0.05810000  0.32420000  0.84272000  1
  O  O288  1  0.07000000  0.80542000  0.03162000  1
  O  O289  1  0.12120000  0.92579000  0.96478000  1
  O  O290  1  0.12650000  0.07816000  0.97567000  1
  O  O291  1  0.15480000  0.22867000  0.98361000  1
  O  O292  1  0.16550000  0.31770000  0.01613000  1
  O  O293  1  0.20230000  0.37985000  0.83100000  1
  O  O294  1  0.23020000  0.54860000  0.36560000  1
  O  O295  1  0.24270000  0.21200000  0.83850000  1
  O  O296  1  0.25370000  0.54480000  0.46890000  1
  O  O297  1  0.39420000  0.23550000  0.84640000  1
  O  O298  1  0.60580000  0.76450000  0.15360000  1
  O  O299  1  0.74630000  0.45520000  0.53110000  1
  O  O300  1  0.75730000  0.78800000  0.16150000  1
  O  O301  1  0.76980000  0.45140000  0.63440000  1
  O  O302  1  0.79770000  0.62015000  0.16900000  1
  O  O303  1  0.83450000  0.68230000  0.98387000  1
  O  O304  1  0.84520000  0.77133000  0.01639000  1
  O  O305  1  0.87350000  0.92184000  0.02433000  1
  O  O306  1  0.87880000  0.07421000  0.03522000  1
  O  O307  1  0.93000000  0.19458000  0.96838000  1
  O  O308  1  0.94190000  0.67580000  0.15728000  1
  O  O309  1  0.95750000  0.82730000  0.17248000  1
  O  O310  1  0.98000000  0.05520000  0.88988000  1
