# generated using pymatgen
data_Zn3H30C53(NO4)4
_symmetry_space_group_name_H-M   'P 1'
_cell_length_a   15.16900000
_cell_length_b   15.45300000
_cell_length_c   16.45040000
_cell_angle_alpha   67.46900000
_cell_angle_beta   80.55900000
_cell_angle_gamma   61.98200000
_symmetry_Int_Tables_number   1
_chemical_formula_structural   Zn3H30C53(NO4)4
_chemical_formula_sum   'Zn6 H60 C106 N8 O32'
_cell_volume   3143.71542877
_cell_formula_units_Z   2
loop_
 _symmetry_equiv_pos_site_id
 _symmetry_equiv_pos_as_xyz
  1  'x, y, z'
loop_
 _atom_site_type_symbol
 _atom_site_label
 _atom_site_symmetry_multiplicity
 _atom_site_fract_x
 _atom_site_fract_y
 _atom_site_fract_z
 _atom_site_occupancy
  Zn  Zn0  1  0.01026000  0.49186000  0.33552000  1
  Zn  Zn1  1  0.18728000  0.13567000  0.91624000  1
  Zn  Zn2  1  0.42293000  0.86626000  0.71017000  1
  Zn  Zn3  1  0.57707000  0.13374000  0.28983000  1
  Zn  Zn4  1  0.81272000  0.86433000  0.08376000  1
  Zn  Zn5  1  0.98974000  0.50814000  0.66448000  1
  H  H6  1  0.03190000  0.23460000  0.42390000  1
  H  H7  1  0.04330000  0.02840000  0.69420000  1
  H  H8  1  0.08580000  0.33010000  0.09870000  1
  H  H9  1  0.08630000  0.56430000  0.49360000  1
  H  H10  1  0.08770000  0.94550000  0.39890000  1
  H  H11  1  0.12120000  0.65780000  0.64950000  1
  H  H12  1  0.14860000  0.28440000  0.58530000  1
  H  H13  1  0.16680000  0.66320000  0.89440000  1
  H  H14  1  0.17480000  0.75230000  0.74360000  1
  H  H15  1  0.17780000  0.07850000  0.46040000  1
  H  H16  1  0.19120000  0.59800000  0.03100000  1
  H  H17  1  0.19650000  0.93190000  0.76530000  1
  H  H18  1  0.19920000  0.50850000  0.18480000  1
  H  H19  1  0.21120000  0.38860000  0.72980000  1
  H  H20  1  0.23460000  0.84890000  0.48380000  1
  H  H21  1  0.24380000  0.52410000  0.42880000  1
  H  H22  1  0.28820000  0.33600000  0.23740000  1
  H  H23  1  0.33040000  0.97880000  0.53370000  1
  H  H24  1  0.34040000  0.65920000  0.46600000  1
  H  H25  1  0.35520000  0.31770000  0.00320000  1
  H  H26  1  0.36070000  0.23570000  0.15660000  1
  H  H27  1  0.36790000  0.34720000  0.67360000  1
  H  H28  1  0.38610000  0.40180000  0.38810000  1
  H  H29  1  0.38960000  0.39820000  0.87300000  1
  H  H30  1  0.39730000  0.48370000  0.72050000  1
  H  H31  1  0.45980000  0.64350000  0.67710000  1
  H  H32  1  0.46290000  0.46420000  0.14870000  1
  H  H33  1  0.48550000  0.06770000  0.56420000  1
  H  H34  1  0.49340000  0.91180000  0.80940000  1
  H  H35  1  0.49440000  0.62380000  0.39790000  1
  H  H36  1  0.50560000  0.37620000  0.60210000  1
  H  H37  1  0.50660000  0.08820000  0.19060000  1
  H  H38  1  0.51450000  0.93230000  0.43580000  1
  H  H39  1  0.53710000  0.53580000  0.85130000  1
  H  H40  1  0.54020000  0.35650000  0.32290000  1
  H  H41  1  0.60270000  0.51630000  0.27950000  1
  H  H42  1  0.61040000  0.60180000  0.12700000  1
  H  H43  1  0.61390000  0.59820000  0.61190000  1
  H  H44  1  0.63210000  0.65280000  0.32640000  1
  H  H45  1  0.63930000  0.76430000  0.84340000  1
  H  H46  1  0.64480000  0.68230000  0.99680000  1
  H  H47  1  0.65960000  0.34080000  0.53400000  1
  H  H48  1  0.66960000  0.02120000  0.46630000  1
  H  H49  1  0.71180000  0.66400000  0.76260000  1
  H  H50  1  0.75620000  0.47590000  0.57120000  1
  H  H51  1  0.76540000  0.15110000  0.51620000  1
  H  H52  1  0.78880000  0.61140000  0.27020000  1
  H  H53  1  0.80080000  0.49150000  0.81520000  1
  H  H54  1  0.80350000  0.06810000  0.23470000  1
  H  H55  1  0.80880000  0.40200000  0.96900000  1
  H  H56  1  0.82220000  0.92150000  0.53960000  1
  H  H57  1  0.82520000  0.24770000  0.25640000  1
  H  H58  1  0.83320000  0.33680000  0.10560000  1
  H  H59  1  0.85140000  0.71560000  0.41470000  1
  H  H60  1  0.87880000  0.34220000  0.35050000  1
  H  H61  1  0.91230000  0.05450000  0.60110000  1
  H  H62  1  0.91370000  0.43570000  0.50640000  1
  H  H63  1  0.91420000  0.66990000  0.90130000  1
  H  H64  1  0.95670000  0.97160000  0.30580000  1
  H  H65  1  0.96810000  0.76540000  0.57610000  1
  C  C66  1  0.00030000  0.48120000  0.09130000  1
  C  C67  1  0.00660000  0.87200000  0.48020000  1
  C  C68  1  0.00880000  0.45520000  0.18830000  1
  C  C69  1  0.02110000  0.78210000  0.55590000  1
  C  C70  1  0.05210000  0.39790000  0.05930000  1
  C  C71  1  0.05360000  0.41640000  0.96570000  1
  C  C72  1  0.09150000  0.06480000  0.56960000  1
  C  C73  1  0.09180000  0.89130000  0.45140000  1
  C  C74  1  0.10080000  0.01910000  0.66110000  1
  C  C75  1  0.11300000  0.71780000  0.60120000  1
  C  C76  1  0.11970000  0.32630000  0.93680000  1
  C  C77  1  0.14330000  0.51850000  0.52910000  1
  C  C78  1  0.18050000  0.04900000  0.52150000  1
  C  C79  1  0.18260000  0.83020000  0.50100000  1
  C  C80  1  0.19130000  0.33680000  0.42010000  1
  C  C81  1  0.19300000  0.96030000  0.70420000  1
  C  C82  1  0.19420000  0.74450000  0.57320000  1
  C  C83  1  0.21320000  0.62660000  0.86050000  1
  C  C84  1  0.21600000  0.24180000  0.58100000  1
  C  C85  1  0.21650000  0.68110000  0.76890000  1
  C  C86  1  0.21770000  0.41450000  0.66910000  1
  C  C87  1  0.22410000  0.17180000  0.74470000  1
  C  C88  1  0.22620000  0.52540000  0.05450000  1
  C  C89  1  0.23180000  0.47100000  0.14740000  1
  C  C90  1  0.23870000  0.49440000  0.48930000  1
  C  C91  1  0.25740000  0.24840000  0.49800000  1
  C  C92  1  0.27240000  0.98870000  0.56620000  1
  C  C93  1  0.27440000  0.17180000  0.65884000  1
  C  C94  1  0.27480000  0.46650000  0.99940000  1
  C  C95  1  0.27590000  0.52100000  0.90170000  1
  C  C96  1  0.28610000  0.62320000  0.71650000  1
  C  C97  1  0.31280000  0.38840000  0.63530000  1
  C  C98  1  0.32400000  0.35830000  0.03850000  1
  C  C99  1  0.32730000  0.42310000  0.54440000  1
  C  C100  1  0.32770000  0.30830000  0.13120000  1
  C  C101  1  0.34560000  0.46860000  0.84750000  1
  C  C102  1  0.35070000  0.52020000  0.75440000  1
  C  C103  1  0.36010000  0.18170000  0.48890000  1
  C  C104  1  0.37880000  0.10960000  0.65150000  1
  C  C105  1  0.38050000  0.66540000  0.07180000  1
  C  C106  1  0.38240000  0.65610000  0.57920000  1
  C  C107  1  0.39420000  0.64880000  0.49490000  1
  C  C108  1  0.40630000  0.16970000  0.40380000  1
  C  C109  1  0.41710000  0.71140000  0.86940000  1
  C  C110  1  0.41870000  0.11240000  0.56830000  1
  C  C111  1  0.42670000  0.39550000  0.50230000  1
  C  C112  1  0.43530000  0.58490000  0.02910000  1
  C  C113  1  0.44060000  0.38840000  0.41810000  1
  C  C114  1  0.44450000  0.03590000  0.73280000  1
  C  C115  1  0.45660000  0.60430000  0.94100000  1
  C  C116  1  0.46650000  0.63790000  0.62190000  1
  C  C117  1  0.47810000  0.47870000  0.08930000  1
  C  C118  1  0.48810000  0.62550000  0.45460000  1
  C  C119  1  0.51190000  0.37450000  0.54540000  1
  C  C120  1  0.52190000  0.52130000  0.91070000  1
  C  C121  1  0.53350000  0.36210000  0.37810000  1
  C  C122  1  0.54340000  0.39570000  0.05900000  1
  C  C123  1  0.55550000  0.96410000  0.26720000  1
  C  C124  1  0.55940000  0.61160000  0.58190000  1
  C  C125  1  0.56470000  0.41510000  0.97090000  1
  C  C126  1  0.57330000  0.60450000  0.49770000  1
  C  C127  1  0.58130000  0.88760000  0.43170000  1
  C  C128  1  0.58290000  0.28860000  0.13060000  1
  C  C129  1  0.59370000  0.83030000  0.59620000  1
  C  C130  1  0.60580000  0.35120000  0.50510000  1
  C  C131  1  0.61760000  0.34390000  0.42080000  1
  C  C132  1  0.61950000  0.33460000  0.92820000  1
  C  C133  1  0.62120000  0.89040000  0.34850000  1
  C  C134  1  0.63990000  0.81830000  0.51110000  1
  C  C135  1  0.64930000  0.47980000  0.24560000  1
  C  C136  1  0.65440000  0.53140000  0.15250000  1
  C  C137  1  0.67230000  0.69170000  0.86880000  1
  C  C138  1  0.67270000  0.57690000  0.45560000  1
  C  C139  1  0.67600000  0.64170000  0.96150000  1
  C  C140  1  0.68720000  0.61160000  0.36470000  1
  C  C141  1  0.71390000  0.37680000  0.28350000  1
  C  C142  1  0.72410000  0.47900000  0.09830000  1
  C  C143  1  0.72520000  0.53350000  0.00060000  1
  C  C144  1  0.72560000  0.82820000  0.34116000  1
  C  C145  1  0.72760000  0.01130000  0.43380000  1
  C  C146  1  0.74260000  0.75160000  0.50200000  1
  C  C147  1  0.76130000  0.50560000  0.51070000  1
  C  C148  1  0.76820000  0.52900000  0.85260000  1
  C  C149  1  0.77380000  0.47460000  0.94550000  1
  C  C150  1  0.77590000  0.82820000  0.25530000  1
  C  C151  1  0.78230000  0.58550000  0.33090000  1
  C  C152  1  0.78350000  0.31890000  0.23110000  1
  C  C153  1  0.78400000  0.75820000  0.41900000  1
  C  C154  1  0.78680000  0.37340000  0.13950000  1
  C  C155  1  0.80580000  0.25550000  0.42680000  1
  C  C156  1  0.80700000  0.03970000  0.29580000  1
  C  C157  1  0.80870000  0.66320000  0.57990000  1
  C  C158  1  0.81740000  0.16980000  0.49900000  1
  C  C159  1  0.81950000  0.95100000  0.47850000  1
  C  C160  1  0.85670000  0.48150000  0.47090000  1
  C  C161  1  0.88030000  0.67370000  0.06320000  1
  C  C162  1  0.88700000  0.28220000  0.39880000  1
  C  C163  1  0.89920000  0.98090000  0.33890000  1
  C  C164  1  0.90820000  0.10870000  0.54860000  1
  C  C165  1  0.90850000  0.93520000  0.43040000  1
  C  C166  1  0.94640000  0.58360000  0.03430000  1
  C  C167  1  0.94790000  0.60210000  0.94070000  1
  C  C168  1  0.97890000  0.21790000  0.44410000  1
  C  C169  1  0.99120000  0.54480000  0.81170000  1
  C  C170  1  0.99340000  0.12800000  0.51980000  1
  C  C171  1  0.99970000  0.51880000  0.90870000  1
  N  N172  1  0.13290000  0.47660000  0.61763000  1
  N  N173  1  0.28070000  0.94370000  0.65594000  1
  N  N174  1  0.28360000  0.36640000  0.18115000  1
  N  N175  1  0.28750000  0.67810000  0.62361000  1
  N  N176  1  0.71250000  0.32190000  0.37639000  1
  N  N177  1  0.71640000  0.63360000  0.81885000  1
  N  N178  1  0.71930000  0.05630000  0.34406000  1
  N  N179  1  0.86710000  0.52340000  0.38237000  1
  O  O180  1  0.00020000  0.47035000  0.79179000  1
  O  O181  1  0.02634000  0.36799000  0.24381000  1
  O  O182  1  0.09574000  0.25282000  0.95842000  1
  O  O183  1  0.09851000  0.36601000  0.43118000  1
  O  O184  1  0.13073000  0.21654000  0.75086000  1
  O  O185  1  0.19733000  0.32187000  0.89454000  1
  O  O186  1  0.22613000  0.38173000  0.35236000  1
  O  O187  1  0.28048000  0.11874000  0.81298000  1
  O  O188  1  0.30260000  0.74335000  0.03462000  1
  O  O189  1  0.34070000  0.78769000  0.88358000  1
  O  O190  1  0.35647000  0.17696000  0.34654000  1
  O  O191  1  0.42083000  0.65436000  0.13895000  1
  O  O192  1  0.45515000  0.94473000  0.76422000  1
  O  O193  1  0.46531000  0.72204000  0.79844000  1
  O  O194  1  0.49595000  0.06574000  0.75795000  1
  O  O195  1  0.49681000  0.15338000  0.39806000  1
  O  O196  1  0.50319000  0.84662000  0.60194000  1
  O  O197  1  0.50405000  0.93426000  0.24205000  1
  O  O198  1  0.53469000  0.27796000  0.20156000  1
  O  O199  1  0.54485000  0.05527000  0.23578000  1
  O  O200  1  0.57917000  0.34564000  0.86105000  1
  O  O201  1  0.64353000  0.82304000  0.65346000  1
  O  O202  1  0.65930000  0.21231000  0.11642000  1
  O  O203  1  0.69740000  0.25665000  0.96538000  1
  O  O204  1  0.71952000  0.88126000  0.18702000  1
  O  O205  1  0.77387000  0.61827000  0.64764000  1
  O  O206  1  0.80267000  0.67813000  0.10546000  1
  O  O207  1  0.86927000  0.78346000  0.24914000  1
  O  O208  1  0.90149000  0.63399000  0.56882000  1
  O  O209  1  0.90426000  0.74718000  0.04158000  1
  O  O210  1  0.97366000  0.63201000  0.75619000  1
  O  O211  1  0.99980000  0.52965000  0.20821000  1
