# generated using pymatgen
data_In40H33C30(S4N)16
_symmetry_space_group_name_H-M   'P 1'
_cell_length_a   25.59070000
_cell_length_b   42.31400000
_cell_length_c   42.31400000
_cell_angle_alpha   107.58500000
_cell_angle_beta   90.68460000
_cell_angle_gamma   90.68460000
_symmetry_Int_Tables_number   1
_chemical_formula_structural   In40H33C30(S4N)16
_chemical_formula_sum   'In160 H132 C120 S256 N64'
_cell_volume   43669.40782348
_cell_formula_units_Z   4
loop_
 _symmetry_equiv_pos_site_id
 _symmetry_equiv_pos_as_xyz
  1  'x, y, z'
loop_
 _atom_site_type_symbol
 _atom_site_label
 _atom_site_symmetry_multiplicity
 _atom_site_fract_x
 _atom_site_fract_y
 _atom_site_fract_z
 _atom_site_occupancy
  In  In0  1  0.00379000  0.33519000  0.85871000  1
  In  In1  1  0.00406000  0.90101000  0.29267000  1
  In  In2  1  0.01027000  0.34846000  0.48788000  1
  In  In3  1  0.01360000  0.29132000  0.39132000  1
  In  In4  1  0.01703000  0.19472000  0.09452000  1
  In  In5  1  0.02284000  0.29304000  0.14946000  1
  In  In6  1  0.04433000  0.62429000  0.58249000  1
  In  In7  1  0.04518000  0.90894000  0.13946000  1
  In  In8  1  0.04900000  0.00918000  0.71220000  1
  In  In9  1  0.04980000  0.57633000  0.14803000  1
  In  In10  1  0.05022000  0.49067000  0.85567000  1
  In  In11  1  0.05024000  0.98630000  0.21168000  1
  In  In12  1  0.05029000  0.65770000  0.23024000  1
  In  In13  1  0.05046000  0.34234000  0.70586000  1
  In  In14  1  0.05059000  0.64912000  0.88604000  1
  In  In15  1  0.05147000  0.05678000  0.29036000  1
  In  In16  1  0.05293000  0.09033000  0.79515000  1
  In  In17  1  0.05356000  0.41961000  0.77787000  1
  In  In18  1  0.05573000  0.73684000  0.94042000  1
  In  In19  1  0.06240000  0.82857000  0.98459000  1
  In  In20  1  0.06467000  0.77317000  0.81909000  1
  In  In21  1  0.08004000  0.31338000  0.54858000  1
  In  In22  1  0.08155000  0.22558000  0.17878000  1
  In  In23  1  0.08276000  0.25818000  0.46186000  1
  In  In24  1  0.08722000  0.21166000  0.37138000  1
  In  In25  1  0.10297000  0.37727000  0.42279000  1
  In  In26  1  0.10316000  0.89724000  0.21712000  1
  In  In27  1  0.10514000  0.33064000  0.78400000  1
  In  In28  1  0.10695000  0.41249000  0.86609000  1
  In  In29  1  0.10695000  0.97828000  0.29976000  1
  In  In30  1  0.13597000  0.70513000  0.85449000  1
  In  In31  1  0.13740000  0.08297000  0.72179000  1
  In  In32  1  0.13768000  0.65058000  0.15802000  1
  In  In33  1  0.14249000  0.80337000  0.90829000  1
  In  In34  1  0.14822000  0.32822000  0.86810000  1
  In  In35  1  0.14881000  0.89386000  0.30076000  1
  In  In36  1  0.16969000  0.34453000  0.49525000  1
  In  In37  1  0.17422000  0.28691000  0.39795000  1
  In  In38  1  0.21035000  0.76843000  0.82695000  1
  In  In39  1  0.24548000  0.36946000  0.43114000  1
  In  In40  1  0.25452000  0.56886000  0.63054000  1
  In  In41  1  0.28965000  0.17305000  0.23157000  1
  In  In42  1  0.32578000  0.60205000  0.71309000  1
  In  In43  1  0.33031000  0.50475000  0.65547000  1
  In  In44  1  0.35119000  0.69924000  0.10614000  1
  In  In45  1  0.35178000  0.13190000  0.67178000  1
  In  In46  1  0.35751000  0.09171000  0.19663000  1
  In  In47  1  0.36232000  0.84198000  0.34942000  1
  In  In48  1  0.36260000  0.27821000  0.91703000  1
  In  In49  1  0.36403000  0.14551000  0.29487000  1
  In  In50  1  0.39305000  0.13391000  0.58751000  1
  In  In51  1  0.39305000  0.70024000  0.02172000  1
  In  In52  1  0.39486000  0.21600000  0.66936000  1
  In  In53  1  0.39684000  0.78288000  0.10276000  1
  In  In54  1  0.39703000  0.57721000  0.62273000  1
  In  In55  1  0.41278000  0.62862000  0.78834000  1
  In  In56  1  0.41724000  0.53814000  0.74182000  1
  In  In57  1  0.41845000  0.82122000  0.77442000  1
  In  In58  1  0.41996000  0.45142000  0.68662000  1
  In  In59  1  0.43533000  0.18091000  0.22683000  1
  In  In60  1  0.43760000  0.01541000  0.17143000  1
  In  In61  1  0.44427000  0.05958000  0.26316000  1
  In  In62  1  0.44644000  0.22213000  0.58039000  1
  In  In63  1  0.44707000  0.20485000  0.90967000  1
  In  In64  1  0.44853000  0.70964000  0.94322000  1
  In  In65  1  0.44941000  0.11396000  0.35088000  1
  In  In66  1  0.44954000  0.29414000  0.65766000  1
  In  In67  1  0.44971000  0.76976000  0.34230000  1
  In  In68  1  0.44976000  0.78832000  0.01370000  1
  In  In69  1  0.44978000  0.14433000  0.50933000  1
  In  In70  1  0.45020000  0.85197000  0.42367000  1
  In  In71  1  0.45100000  0.28780000  0.99082000  1
  In  In72  1  0.45482000  0.86054000  0.09106000  1
  In  In73  1  0.45567000  0.41751000  0.37571000  1
  In  In74  1  0.47716000  0.85054000  0.70696000  1
  In  In75  1  0.48297000  0.90548000  0.80528000  1
  In  In76  1  0.48640000  0.60868000  0.70868000  1
  In  In77  1  0.48973000  0.51212000  0.65154000  1
  In  In78  1  0.49594000  0.70733000  0.09899000  1
  In  In79  1  0.49621000  0.14129000  0.66481000  1
  In  In80  1  0.50379000  0.85871000  0.33519000  1
  In  In81  1  0.50406000  0.29267000  0.90101000  1
  In  In82  1  0.51027000  0.48788000  0.34846000  1
  In  In83  1  0.51360000  0.39132000  0.29132000  1
  In  In84  1  0.51703000  0.09452000  0.19472000  1
  In  In85  1  0.52284000  0.14946000  0.29304000  1
  In  In86  1  0.54433000  0.58249000  0.62429000  1
  In  In87  1  0.54518000  0.13946000  0.90894000  1
  In  In88  1  0.54900000  0.71220000  0.00918000  1
  In  In89  1  0.54980000  0.14803000  0.57633000  1
  In  In90  1  0.55022000  0.85567000  0.49067000  1
  In  In91  1  0.55024000  0.21168000  0.98630000  1
  In  In92  1  0.55029000  0.23024000  0.65770000  1
  In  In93  1  0.55046000  0.70586000  0.34234000  1
  In  In94  1  0.55059000  0.88604000  0.64912000  1
  In  In95  1  0.55147000  0.29036000  0.05678000  1
  In  In96  1  0.55293000  0.79515000  0.09033000  1
  In  In97  1  0.55356000  0.77787000  0.41961000  1
  In  In98  1  0.55573000  0.94042000  0.73684000  1
  In  In99  1  0.56240000  0.98459000  0.82857000  1
  In  In100  1  0.56467000  0.81909000  0.77317000  1
  In  In101  1  0.58004000  0.54858000  0.31338000  1
  In  In102  1  0.58155000  0.17878000  0.22558000  1
  In  In103  1  0.58276000  0.46186000  0.25818000  1
  In  In104  1  0.58722000  0.37138000  0.21166000  1
  In  In105  1  0.60297000  0.42279000  0.37727000  1
  In  In106  1  0.60316000  0.21712000  0.89724000  1
  In  In107  1  0.60514000  0.78400000  0.33064000  1
  In  In108  1  0.60695000  0.29976000  0.97828000  1
  In  In109  1  0.60695000  0.86609000  0.41249000  1
  In  In110  1  0.63597000  0.85449000  0.70513000  1
  In  In111  1  0.63740000  0.72179000  0.08297000  1
  In  In112  1  0.63768000  0.15802000  0.65058000  1
  In  In113  1  0.64249000  0.90829000  0.80337000  1
  In  In114  1  0.64822000  0.86810000  0.32822000  1
  In  In115  1  0.64881000  0.30076000  0.89386000  1
  In  In116  1  0.66969000  0.49525000  0.34453000  1
  In  In117  1  0.67422000  0.39795000  0.28691000  1
  In  In118  1  0.71035000  0.82695000  0.76843000  1
  In  In119  1  0.74548000  0.43114000  0.36946000  1
  In  In120  1  0.75452000  0.63054000  0.56886000  1
  In  In121  1  0.78965000  0.23157000  0.17305000  1
  In  In122  1  0.82578000  0.71309000  0.60205000  1
  In  In123  1  0.83031000  0.65547000  0.50475000  1
  In  In124  1  0.85119000  0.10614000  0.69924000  1
  In  In125  1  0.85178000  0.67178000  0.13190000  1
  In  In126  1  0.85751000  0.19663000  0.09171000  1
  In  In127  1  0.86232000  0.34942000  0.84198000  1
  In  In128  1  0.86260000  0.91703000  0.27821000  1
  In  In129  1  0.86403000  0.29487000  0.14551000  1
  In  In130  1  0.89305000  0.02172000  0.70024000  1
  In  In131  1  0.89305000  0.58751000  0.13391000  1
  In  In132  1  0.89486000  0.66936000  0.21600000  1
  In  In133  1  0.89684000  0.10276000  0.78288000  1
  In  In134  1  0.89703000  0.62273000  0.57721000  1
  In  In135  1  0.91278000  0.78834000  0.62862000  1
  In  In136  1  0.91724000  0.74182000  0.53814000  1
  In  In137  1  0.91845000  0.77442000  0.82122000  1
  In  In138  1  0.91996000  0.68662000  0.45142000  1
  In  In139  1  0.93533000  0.22683000  0.18091000  1
  In  In140  1  0.93760000  0.17143000  0.01541000  1
  In  In141  1  0.94427000  0.26316000  0.05958000  1
  In  In142  1  0.94644000  0.58039000  0.22213000  1
  In  In143  1  0.94707000  0.90967000  0.20485000  1
  In  In144  1  0.94853000  0.94322000  0.70964000  1
  In  In145  1  0.94941000  0.35088000  0.11396000  1
  In  In146  1  0.94954000  0.65766000  0.29414000  1
  In  In147  1  0.94971000  0.34230000  0.76976000  1
  In  In148  1  0.94976000  0.01370000  0.78832000  1
  In  In149  1  0.94978000  0.50933000  0.14433000  1
  In  In150  1  0.95020000  0.42367000  0.85197000  1
  In  In151  1  0.95100000  0.99082000  0.28780000  1
  In  In152  1  0.95482000  0.09106000  0.86054000  1
  In  In153  1  0.95567000  0.37571000  0.41751000  1
  In  In154  1  0.97716000  0.70696000  0.85054000  1
  In  In155  1  0.98297000  0.80528000  0.90548000  1
  In  In156  1  0.98640000  0.70868000  0.60868000  1
  In  In157  1  0.98973000  0.65154000  0.51212000  1
  In  In158  1  0.99594000  0.09899000  0.70733000  1
  In  In159  1  0.99621000  0.66481000  0.14129000  1
  H  H160  1  0.00230000  0.87540000  0.64380000  1
  H  H161  1  0.01680000  0.44310000  0.16590000  1
  H  H162  1  0.02080000  0.58560000  0.82940000  1
  H  H163  1  0.02290000  0.37450000  0.63110000  1
  H  H164  1  0.03640000  0.15140000  0.38040000  1
  H  H165  1  0.03890000  0.54790000  0.81710000  1
  H  H166  1  0.04990000  0.11280000  0.37020000  1
  H  H167  1  0.06170000  0.55250000  0.59870000  1
  H  H168  1  0.06820000  0.27280000  0.65120000  1
  H  H169  1  0.07630000  0.37310000  0.61150000  1
  H  H170  1  0.07760000  0.38100000  0.65100000  1
  H  H171  1  0.08230000  0.25970000  0.59250000  1
  H  H172  1  0.08460000  0.60700000  0.93680000  1
  H  H173  1  0.09590000  0.54670000  0.92310000  1
  H  H174  1  0.09840000  0.11600000  0.26500000  1
  H  H175  1  0.10350000  0.93330000  0.08130000  1
  H  H176  1  0.11700000  0.89160000  0.02160000  1
  H  H177  1  0.12270000  0.17370000  0.29790000  1
  H  H178  1  0.13790000  0.53160000  0.61560000  1
  H  H179  1  0.16310000  0.28450000  0.91510000  1
  H  H180  1  0.16650000  0.64790000  0.61010000  1
  H  H181  1  0.16650000  0.83870000  0.34170000  1
  H  H182  1  0.17090000  0.19520000  0.26940000  1
  H  H183  1  0.17680000  0.68670000  0.11030000  1
  H  H184  1  0.17820000  0.13670000  0.68750000  1
  H  H185  1  0.19390000  0.62600000  0.57700000  1
  H  H186  1  0.21230000  0.12230000  0.65490000  1
  H  H187  1  0.21810000  0.66850000  0.08290000  1
  H  H188  1  0.21970000  0.62930000  0.61250000  1
  H  H189  1  0.22730000  0.70660000  0.10400000  1
  H  H190  1  0.23290000  0.15410000  0.68390000  1
  H  H191  1  0.24520000  0.26500000  0.93740000  1
  H  H192  1  0.24840000  0.81760000  0.35280000  1
  H  H193  1  0.25160000  0.64720000  0.18240000  1
  H  H194  1  0.25480000  0.06260000  0.73500000  1
  H  H195  1  0.26710000  0.31610000  0.84590000  1
  H  H196  1  0.27270000  0.89600000  0.29340000  1
  H  H197  1  0.28030000  0.38750000  0.37070000  1
  H  H198  1  0.28190000  0.91710000  0.33150000  1
  H  H199  1  0.28770000  0.34510000  0.87770000  1
  H  H200  1  0.30610000  0.42300000  0.37400000  1
  H  H201  1  0.32180000  0.31250000  0.86330000  1
  H  H202  1  0.32320000  0.88970000  0.31330000  1
  H  H203  1  0.32910000  0.73060000  0.80480000  1
  H  H204  1  0.33350000  0.38990000  0.35210000  1
  H  H205  1  0.33350000  0.65830000  0.16130000  1
  H  H206  1  0.33690000  0.08490000  0.71550000  1
  H  H207  1  0.36210000  0.38440000  0.46840000  1
  H  H208  1  0.37730000  0.70210000  0.82630000  1
  H  H209  1  0.38300000  0.97840000  0.10840000  1
  H  H210  1  0.39650000  0.91870000  0.06670000  1
  H  H211  1  0.40160000  0.73500000  0.88400000  1
  H  H212  1  0.40410000  0.07690000  0.45330000  1
  H  H213  1  0.41540000  0.06320000  0.39300000  1
  H  H214  1  0.41770000  0.40750000  0.74030000  1
  H  H215  1  0.42240000  0.34900000  0.61900000  1
  H  H216  1  0.42370000  0.38850000  0.62690000  1
  H  H217  1  0.43180000  0.34880000  0.72720000  1
  H  H218  1  0.43830000  0.40130000  0.44750000  1
  H  H219  1  0.45010000  0.62980000  0.88720000  1
  H  H220  1  0.46110000  0.18290000  0.45210000  1
  H  H221  1  0.46360000  0.61960000  0.84860000  1
  H  H222  1  0.47710000  0.36890000  0.62550000  1
  H  H223  1  0.47920000  0.17060000  0.41440000  1
  H  H224  1  0.48320000  0.83410000  0.55690000  1
  H  H225  1  0.49770000  0.35620000  0.12460000  1
  H  H226  1  0.50230000  0.64380000  0.87540000  1
  H  H227  1  0.51680000  0.16590000  0.44310000  1
  H  H228  1  0.52080000  0.82940000  0.58560000  1
  H  H229  1  0.52290000  0.63110000  0.37450000  1
  H  H230  1  0.53640000  0.38040000  0.15140000  1
  H  H231  1  0.53890000  0.81710000  0.54790000  1
  H  H232  1  0.54990000  0.37020000  0.11280000  1
  H  H233  1  0.56170000  0.59870000  0.55250000  1
  H  H234  1  0.56820000  0.65120000  0.27280000  1
  H  H235  1  0.57630000  0.61150000  0.37310000  1
  H  H236  1  0.57760000  0.65100000  0.38100000  1
  H  H237  1  0.58230000  0.59250000  0.25970000  1
  H  H238  1  0.58460000  0.93680000  0.60700000  1
  H  H239  1  0.59590000  0.92310000  0.54670000  1
  H  H240  1  0.59840000  0.26500000  0.11600000  1
  H  H241  1  0.60350000  0.08130000  0.93330000  1
  H  H242  1  0.61700000  0.02160000  0.89160000  1
  H  H243  1  0.62270000  0.29790000  0.17370000  1
  H  H244  1  0.63790000  0.61560000  0.53160000  1
  H  H245  1  0.66310000  0.91510000  0.28450000  1
  H  H246  1  0.66650000  0.34170000  0.83870000  1
  H  H247  1  0.66650000  0.61010000  0.64790000  1
  H  H248  1  0.67090000  0.26940000  0.19520000  1
  H  H249  1  0.67680000  0.11030000  0.68670000  1
  H  H250  1  0.67820000  0.68750000  0.13670000  1
  H  H251  1  0.69390000  0.57700000  0.62600000  1
  H  H252  1  0.71230000  0.65490000  0.12230000  1
  H  H253  1  0.71810000  0.08290000  0.66850000  1
  H  H254  1  0.71970000  0.61250000  0.62930000  1
  H  H255  1  0.72730000  0.10400000  0.70660000  1
  H  H256  1  0.73290000  0.68390000  0.15410000  1
  H  H257  1  0.74520000  0.93740000  0.26500000  1
  H  H258  1  0.74840000  0.35280000  0.81760000  1
  H  H259  1  0.75160000  0.18240000  0.64720000  1
  H  H260  1  0.75480000  0.73500000  0.06260000  1
  H  H261  1  0.76710000  0.84590000  0.31610000  1
  H  H262  1  0.77270000  0.29340000  0.89600000  1
  H  H263  1  0.78030000  0.37070000  0.38750000  1
  H  H264  1  0.78190000  0.33150000  0.91710000  1
  H  H265  1  0.78770000  0.87770000  0.34510000  1
  H  H266  1  0.80610000  0.37400000  0.42300000  1
  H  H267  1  0.82180000  0.86330000  0.31250000  1
  H  H268  1  0.82320000  0.31330000  0.88970000  1
  H  H269  1  0.82910000  0.80480000  0.73060000  1
  H  H270  1  0.83350000  0.16130000  0.65830000  1
  H  H271  1  0.83350000  0.35210000  0.38990000  1
  H  H272  1  0.83690000  0.71550000  0.08490000  1
  H  H273  1  0.86210000  0.46840000  0.38440000  1
  H  H274  1  0.87730000  0.82630000  0.70210000  1
  H  H275  1  0.88300000  0.10840000  0.97840000  1
  H  H276  1  0.89650000  0.06670000  0.91870000  1
  H  H277  1  0.90160000  0.88400000  0.73500000  1
  H  H278  1  0.90410000  0.45330000  0.07690000  1
  H  H279  1  0.91540000  0.39300000  0.06320000  1
  H  H280  1  0.91770000  0.74030000  0.40750000  1
  H  H281  1  0.92240000  0.61900000  0.34900000  1
  H  H282  1  0.92370000  0.62690000  0.38850000  1
  H  H283  1  0.93180000  0.72720000  0.34880000  1
  H  H284  1  0.93830000  0.44750000  0.40130000  1
  H  H285  1  0.95010000  0.88720000  0.62980000  1
  H  H286  1  0.96110000  0.45210000  0.18290000  1
  H  H287  1  0.96360000  0.84860000  0.61960000  1
  H  H288  1  0.97710000  0.62550000  0.36890000  1
  H  H289  1  0.97920000  0.41440000  0.17060000  1
  H  H290  1  0.98320000  0.55690000  0.83410000  1
  H  H291  1  0.99770000  0.12460000  0.35620000  1
  C  C292  1  0.01970000  0.56440000  0.83420000  1
  C  C293  1  0.03430000  0.13030000  0.36250000  1
  C  C294  1  0.03700000  0.86010000  0.06450000  1
  C  C295  1  0.04400000  0.56840000  0.86720000  1
  C  C296  1  0.05980000  0.36830000  0.63030000  1
  C  C297  1  0.06250000  0.13340000  0.33420000  1
  C  C298  1  0.06350000  0.33210000  0.62650000  1
  C  C299  1  0.06800000  0.28850000  0.63910000  1
  C  C300  1  0.07550000  0.59100000  0.91620000  1
  C  C301  1  0.07560000  0.28110000  0.60710000  1
  C  C302  1  0.08070000  0.55820000  0.90940000  1
  C  C303  1  0.08900000  0.91160000  0.07200000  1
  C  C304  1  0.09140000  0.12570000  0.28790000  1
  C  C305  1  0.09400000  0.88880000  0.03820000  1
  C  C306  1  0.09510000  0.56310000  0.60130000  1
  C  C307  1  0.10400000  0.15800000  0.30560000  1
  C  C308  1  0.13540000  0.55170000  0.61010000  1
  C  C309  1  0.14260000  0.21540000  0.21820000  1
  C  C310  1  0.15580000  0.59790000  0.60170000  1
  C  C311  1  0.17700000  0.19960000  0.24900000  1
  C  C312  1  0.18660000  0.62790000  0.60010000  1
  C  C313  1  0.19770000  0.28880000  0.90960000  1
  C  C314  1  0.19980000  0.84620000  0.33720000  1
  C  C315  1  0.21380000  0.13280000  0.67900000  1
  C  C316  1  0.21390000  0.68490000  0.10470000  1
  C  C317  1  0.21900000  0.20990000  0.17750000  1
  C  C318  1  0.24080000  0.11110000  0.69490000  1
  C  C319  1  0.24230000  0.67500000  0.12900000  1
  C  C320  1  0.24250000  0.27720000  0.92200000  1
  C  C321  1  0.24470000  0.83550000  0.34370000  1
  C  C322  1  0.25530000  0.65630000  0.16450000  1
  C  C323  1  0.25750000  0.07800000  0.72280000  1
  C  C324  1  0.25770000  0.87100000  0.32500000  1
  C  C325  1  0.25920000  0.30510000  0.88890000  1
  C  C326  1  0.28100000  0.82250000  0.79010000  1
  C  C327  1  0.28610000  0.89530000  0.31510000  1
  C  C328  1  0.28620000  0.32100000  0.86720000  1
  C  C329  1  0.30020000  0.66280000  0.15380000  1
  C  C330  1  0.30230000  0.09040000  0.71120000  1
  C  C331  1  0.31340000  0.39990000  0.37210000  1
  C  C332  1  0.32300000  0.75100000  0.80040000  1
  C  C333  1  0.34420000  0.39830000  0.40210000  1
  C  C334  1  0.35740000  0.78180000  0.78460000  1
  C  C335  1  0.36460000  0.38990000  0.44830000  1
  C  C336  1  0.39600000  0.69440000  0.84200000  1
  C  C337  1  0.40490000  0.39870000  0.43690000  1
  C  C338  1  0.40600000  0.96180000  0.11120000  1
  C  C339  1  0.40860000  0.71210000  0.87430000  1
  C  C340  1  0.41100000  0.92800000  0.08840000  1
  C  C341  1  0.41930000  0.09060000  0.44180000  1
  C  C342  1  0.42440000  0.39290000  0.71890000  1
  C  C343  1  0.42450000  0.08380000  0.40900000  1
  C  C344  1  0.43200000  0.36090000  0.71150000  1
  C  C345  1  0.43650000  0.37350000  0.66790000  1
  C  C346  1  0.43750000  0.66580000  0.86660000  1
  C  C347  1  0.44020000  0.36970000  0.63170000  1
  C  C348  1  0.45600000  0.13280000  0.43160000  1
  C  C349  1  0.46300000  0.93550000  0.13990000  1
  C  C350  1  0.46570000  0.63750000  0.86970000  1
  C  C351  1  0.48030000  0.16580000  0.43560000  1
  C  C352  1  0.51970000  0.83420000  0.56440000  1
  C  C353  1  0.53430000  0.36250000  0.13030000  1
  C  C354  1  0.53700000  0.06450000  0.86010000  1
  C  C355  1  0.54400000  0.86720000  0.56840000  1
  C  C356  1  0.55980000  0.63030000  0.36830000  1
  C  C357  1  0.56250000  0.33420000  0.13340000  1
  C  C358  1  0.56350000  0.62650000  0.33210000  1
  C  C359  1  0.56800000  0.63910000  0.28850000  1
  C  C360  1  0.57550000  0.91620000  0.59100000  1
  C  C361  1  0.57560000  0.60710000  0.28110000  1
  C  C362  1  0.58070000  0.90940000  0.55820000  1
  C  C363  1  0.58900000  0.07200000  0.91160000  1
  C  C364  1  0.59140000  0.28790000  0.12570000  1
  C  C365  1  0.59400000  0.03820000  0.88880000  1
  C  C366  1  0.59510000  0.60130000  0.56310000  1
  C  C367  1  0.60400000  0.30560000  0.15800000  1
  C  C368  1  0.63540000  0.61010000  0.55170000  1
  C  C369  1  0.64260000  0.21820000  0.21540000  1
  C  C370  1  0.65580000  0.60170000  0.59790000  1
  C  C371  1  0.67700000  0.24900000  0.19960000  1
  C  C372  1  0.68660000  0.60010000  0.62790000  1
  C  C373  1  0.69770000  0.90960000  0.28880000  1
  C  C374  1  0.69980000  0.33720000  0.84620000  1
  C  C375  1  0.71380000  0.67900000  0.13280000  1
  C  C376  1  0.71390000  0.10470000  0.68490000  1
  C  C377  1  0.71900000  0.17750000  0.20990000  1
  C  C378  1  0.74080000  0.69490000  0.11110000  1
  C  C379  1  0.74230000  0.12900000  0.67500000  1
  C  C380  1  0.74250000  0.92200000  0.27720000  1
  C  C381  1  0.74470000  0.34370000  0.83550000  1
  C  C382  1  0.75530000  0.16450000  0.65630000  1
  C  C383  1  0.75750000  0.72280000  0.07800000  1
  C  C384  1  0.75770000  0.32500000  0.87100000  1
  C  C385  1  0.75920000  0.88890000  0.30510000  1
  C  C386  1  0.78100000  0.79010000  0.82250000  1
  C  C387  1  0.78610000  0.31510000  0.89530000  1
  C  C388  1  0.78620000  0.86720000  0.32100000  1
  C  C389  1  0.80020000  0.15380000  0.66280000  1
  C  C390  1  0.80230000  0.71120000  0.09040000  1
  C  C391  1  0.81340000  0.37210000  0.39990000  1
  C  C392  1  0.82300000  0.80040000  0.75100000  1
  C  C393  1  0.84420000  0.40210000  0.39830000  1
  C  C394  1  0.85740000  0.78460000  0.78180000  1
  C  C395  1  0.86460000  0.44830000  0.38990000  1
  C  C396  1  0.89600000  0.84200000  0.69440000  1
  C  C397  1  0.90490000  0.43690000  0.39870000  1
  C  C398  1  0.90600000  0.11120000  0.96180000  1
  C  C399  1  0.90860000  0.87430000  0.71210000  1
  C  C400  1  0.91100000  0.08840000  0.92800000  1
  C  C401  1  0.91930000  0.44180000  0.09060000  1
  C  C402  1  0.92440000  0.71890000  0.39290000  1
  C  C403  1  0.92450000  0.40900000  0.08380000  1
  C  C404  1  0.93200000  0.71150000  0.36090000  1
  C  C405  1  0.93650000  0.66790000  0.37350000  1
  C  C406  1  0.93750000  0.86660000  0.66580000  1
  C  C407  1  0.94020000  0.63170000  0.36970000  1
  C  C408  1  0.95600000  0.43160000  0.13280000  1
  C  C409  1  0.96300000  0.13990000  0.93550000  1
  C  C410  1  0.96570000  0.86970000  0.63750000  1
  C  C411  1  0.98030000  0.43560000  0.16580000  1
  S  S412  1  0.00450000  0.34512000  0.54356000  1
  S  S413  1  0.00760000  0.29005000  0.44977000  1
  S  S414  1  0.00890000  0.21488000  0.21054000  1
  S  S415  1  0.01210000  0.23601000  0.35385000  1
  S  S416  1  0.01330000  0.88209000  0.23131000  1
  S  S417  1  0.01520000  0.31554000  0.79742000  1
  S  S418  1  0.01640000  0.15647000  0.03955000  1
  S  S419  1  0.01640000  0.39688000  0.87904000  1
  S  S420  1  0.01700000  0.96270000  0.31378000  1
  S  S421  1  0.02130000  0.25279000  0.09191000  1
  S  S422  1  0.02720000  0.34851000  0.14591000  1
  S  S423  1  0.03140000  0.40656000  0.40822000  1
  S  S424  1  0.03620000  0.59601000  0.20935000  1
  S  S425  1  0.03660000  0.94987000  0.69195000  1
  S  S426  1  0.03860000  0.67604000  0.28958000  1
  S  S427  1  0.03900000  0.51677000  0.12885000  1
  S  S428  1  0.03910000  0.02869000  0.77365000  1
  S  S429  1  0.04360000  0.10843000  0.85443000  1
  S  S430  1  0.04970000  0.68127000  0.94411000  1
  S  S431  1  0.05820000  0.67869000  0.62197000  1
  S  S432  1  0.05880000  0.77557000  0.99555000  1
  S  S433  1  0.05940000  0.71485000  0.82169000  1
  S  S434  1  0.06070000  0.96807000  0.15239000  1
  S  S435  1  0.06100000  0.62080000  0.52520000  1
  S  S436  1  0.06200000  0.04561000  0.23121000  1
  S  S437  1  0.06440000  0.81315000  0.87667000  1
  S  S438  1  0.06470000  0.47917000  0.79679000  1
  S  S439  1  0.06710000  0.40122000  0.71858000  1
  S  S440  1  0.06740000  0.31003000  0.88603000  1
  S  S441  1  0.06780000  0.87474000  0.31818000  1
  S  S442  1  0.07830000  0.25490000  0.51770000  1
  S  S443  1  0.08180000  0.20239000  0.42479000  1
  S  S444  1  0.08280000  0.11334000  0.69408000  1
  S  S445  1  0.08290000  0.67947000  0.12897000  1
  S  S446  1  0.09320000  0.18529000  0.12487000  1
  S  S447  1  0.09471000  0.37626000  0.48162000  1
  S  S448  1  0.09760000  0.28272000  0.18048000  1
  S  S449  1  0.09890000  0.31901000  0.38581000  1
  S  S450  1  0.11280000  0.87818000  0.15788000  1
  S  S451  1  0.11660000  0.95876000  0.23810000  1
  S  S452  1  0.11820000  0.31272000  0.72514000  1
  S  S453  1  0.11820000  0.47185000  0.88573000  1
  S  S454  1  0.11890000  0.39233000  0.80463000  1
  S  S455  1  0.11920000  0.03725000  0.32017000  1
  S  S456  1  0.13280000  0.65006000  0.85890000  1
  S  S457  1  0.13560000  0.02356000  0.69834000  1
  S  S458  1  0.13690000  0.59073000  0.13539000  1
  S  S459  1  0.13690000  0.74533000  0.91169000  1
  S  S460  1  0.13770000  0.67147000  0.21821000  1
  S  S461  1  0.13950000  0.10423000  0.78153000  1
  S  S462  1  0.14350000  0.84227000  0.96317000  1
  S  S463  1  0.14390000  0.78071000  0.79173000  1
  S  S464  1  0.16480000  0.34073000  0.55075000  1
  S  S465  1  0.16690000  0.30373000  0.80975000  1
  S  S466  1  0.16720000  0.28640000  0.45666000  1
  S  S467  1  0.16770000  0.87141000  0.24253000  1
  S  S468  1  0.17070000  0.95200000  0.32552000  1
  S  S469  1  0.17080000  0.38651000  0.89177000  1
  S  S470  1  0.17160000  0.23178000  0.35932000  1
  S  S471  1  0.18290000  0.40431000  0.41481000  1
  S  S472  1  0.21540000  0.71120000  0.82642000  1
  S  S473  1  0.22170000  0.80975000  0.88057000  1
  S  S474  1  0.24580000  0.60783000  0.68533000  1
  S  S475  1  0.24710000  0.37464000  0.48974000  1
  S  S476  1  0.25290000  0.51026000  0.62536000  1
  S  S477  1  0.25420000  0.31467000  0.39217000  1
  S  S478  1  0.27830000  0.11943000  0.19025000  1
  S  S479  1  0.28460000  0.17358000  0.28880000  1
  S  S480  1  0.31710000  0.58519000  0.59569000  1
  S  S481  1  0.32840000  0.64068000  0.76822000  1
  S  S482  1  0.32920000  0.10823000  0.61349000  1
  S  S483  1  0.32930000  0.67448000  0.04800000  1
  S  S484  1  0.33230000  0.75747000  0.12859000  1
  S  S485  1  0.33280000  0.54334000  0.71360000  1
  S  S486  1  0.33310000  0.19025000  0.69627000  1
  S  S487  1  0.33520000  0.44925000  0.65927000  1
  S  S488  1  0.35610000  0.20827000  0.21929000  1
  S  S489  1  0.35650000  0.03683000  0.15773000  1
  S  S490  1  0.36050000  0.21847000  0.89577000  1
  S  S491  1  0.36230000  0.78179000  0.32853000  1
  S  S492  1  0.36310000  0.08831000  0.25467000  1
  S  S493  1  0.36310000  0.86461000  0.40927000  1
  S  S494  1  0.36440000  0.30166000  0.97644000  1
  S  S495  1  0.36720000  0.14110000  0.34994000  1
  S  S496  1  0.38080000  0.67983000  0.96275000  1
  S  S497  1  0.38110000  0.19537000  0.60767000  1
  S  S498  1  0.38180000  0.11427000  0.52815000  1
  S  S499  1  0.38180000  0.27486000  0.68728000  1
  S  S500  1  0.38340000  0.76190000  0.04124000  1
  S  S501  1  0.38720000  0.84212000  0.12182000  1
  S  S502  1  0.40110000  0.61419000  0.68099000  1
  S  S503  1  0.40240000  0.81952000  0.71728000  1
  S  S504  1  0.40529000  0.51838000  0.62374000  1
  S  S505  1  0.40680000  0.87513000  0.81471000  1
  S  S506  1  0.41710000  0.87103000  0.32053000  1
  S  S507  1  0.41720000  0.30592000  0.88666000  1
  S  S508  1  0.41820000  0.57521000  0.79761000  1
  S  S509  1  0.42170000  0.48230000  0.74510000  1
  S  S510  1  0.43220000  0.68182000  0.12526000  1
  S  S511  1  0.43260000  0.11397000  0.68997000  1
  S  S512  1  0.43290000  0.28142000  0.59878000  1
  S  S513  1  0.43530000  0.20321000  0.52083000  1
  S  S514  1  0.43560000  0.12333000  0.18685000  1
  S  S515  1  0.43800000  0.76879000  0.95439000  1
  S  S516  1  0.43900000  0.47480000  0.37920000  1
  S  S517  1  0.43930000  0.84761000  0.03193000  1
  S  S518  1  0.44060000  0.17831000  0.28515000  1
  S  S519  1  0.44120000  0.00445000  0.22443000  1
  S  S520  1  0.44180000  0.37803000  0.32131000  1
  S  S521  1  0.45030000  0.05589000  0.31873000  1
  S  S522  1  0.45640000  0.14557000  0.89157000  1
  S  S523  1  0.46090000  0.22635000  0.97131000  1
  S  S524  1  0.46100000  0.87115000  0.48323000  1
  S  S525  1  0.46140000  0.71042000  0.32396000  1
  S  S526  1  0.46340000  0.30805000  0.05013000  1
  S  S527  1  0.46380000  0.79065000  0.40399000  1
  S  S528  1  0.46860000  0.59178000  0.59344000  1
  S  S529  1  0.47280000  0.85409000  0.65149000  1
  S  S530  1  0.47870000  0.90809000  0.74721000  1
  S  S531  1  0.48300000  0.68622000  0.03730000  1
  S  S532  1  0.48360000  0.12096000  0.60312000  1
  S  S533  1  0.48360000  0.96045000  0.84353000  1
  S  S534  1  0.48480000  0.20258000  0.68446000  1
  S  S535  1  0.48670000  0.76869000  0.11791000  1
  S  S536  1  0.48790000  0.64615000  0.76399000  1
  S  S537  1  0.49110000  0.78946000  0.78512000  1
  S  S538  1  0.49240000  0.55023000  0.70995000  1
  S  S539  1  0.49550000  0.45644000  0.65488000  1
  S  S540  1  0.50450000  0.54356000  0.34512000  1
  S  S541  1  0.50760000  0.44977000  0.29005000  1
  S  S542  1  0.50890000  0.21054000  0.21488000  1
  S  S543  1  0.51210000  0.35385000  0.23601000  1
  S  S544  1  0.51330000  0.23131000  0.88209000  1
  S  S545  1  0.51520000  0.79742000  0.31554000  1
  S  S546  1  0.51640000  0.03955000  0.15647000  1
  S  S547  1  0.51640000  0.87904000  0.39688000  1
  S  S548  1  0.51700000  0.31378000  0.96270000  1
  S  S549  1  0.52130000  0.09191000  0.25279000  1
  S  S550  1  0.52720000  0.14591000  0.34851000  1
  S  S551  1  0.53140000  0.40822000  0.40656000  1
  S  S552  1  0.53620000  0.20935000  0.59601000  1
  S  S553  1  0.53660000  0.69195000  0.94987000  1
  S  S554  1  0.53860000  0.28958000  0.67604000  1
  S  S555  1  0.53900000  0.12885000  0.51677000  1
  S  S556  1  0.53910000  0.77365000  0.02869000  1
  S  S557  1  0.54360000  0.85443000  0.10843000  1
  S  S558  1  0.54970000  0.94411000  0.68127000  1
  S  S559  1  0.55820000  0.62197000  0.67869000  1
  S  S560  1  0.55880000  0.99555000  0.77557000  1
  S  S561  1  0.55940000  0.82169000  0.71485000  1
  S  S562  1  0.56070000  0.15239000  0.96807000  1
  S  S563  1  0.56100000  0.52520000  0.62080000  1
  S  S564  1  0.56200000  0.23121000  0.04561000  1
  S  S565  1  0.56440000  0.87667000  0.81315000  1
  S  S566  1  0.56470000  0.79679000  0.47917000  1
  S  S567  1  0.56710000  0.71858000  0.40122000  1
  S  S568  1  0.56740000  0.88603000  0.31003000  1
  S  S569  1  0.56780000  0.31818000  0.87474000  1
  S  S570  1  0.57830000  0.51770000  0.25490000  1
  S  S571  1  0.58180000  0.42479000  0.20239000  1
  S  S572  1  0.58280000  0.69408000  0.11334000  1
  S  S573  1  0.58290000  0.12897000  0.67947000  1
  S  S574  1  0.59320000  0.12487000  0.18529000  1
  S  S575  1  0.59471000  0.48162000  0.37626000  1
  S  S576  1  0.59760000  0.18048000  0.28272000  1
  S  S577  1  0.59890000  0.38581000  0.31901000  1
  S  S578  1  0.61280000  0.15788000  0.87818000  1
  S  S579  1  0.61660000  0.23810000  0.95876000  1
  S  S580  1  0.61820000  0.72514000  0.31272000  1
  S  S581  1  0.61820000  0.88573000  0.47185000  1
  S  S582  1  0.61890000  0.80463000  0.39233000  1
  S  S583  1  0.61920000  0.32017000  0.03725000  1
  S  S584  1  0.63280000  0.85890000  0.65006000  1
  S  S585  1  0.63560000  0.69834000  0.02356000  1
  S  S586  1  0.63690000  0.13539000  0.59073000  1
  S  S587  1  0.63690000  0.91169000  0.74533000  1
  S  S588  1  0.63770000  0.21821000  0.67147000  1
  S  S589  1  0.63950000  0.78153000  0.10423000  1
  S  S590  1  0.64350000  0.96317000  0.84227000  1
  S  S591  1  0.64390000  0.79173000  0.78071000  1
  S  S592  1  0.66480000  0.55075000  0.34073000  1
  S  S593  1  0.66690000  0.80975000  0.30373000  1
  S  S594  1  0.66720000  0.45666000  0.28640000  1
  S  S595  1  0.66770000  0.24253000  0.87141000  1
  S  S596  1  0.67070000  0.32552000  0.95200000  1
  S  S597  1  0.67080000  0.89177000  0.38651000  1
  S  S598  1  0.67160000  0.35932000  0.23178000  1
  S  S599  1  0.68290000  0.41481000  0.40431000  1
  S  S600  1  0.71540000  0.82642000  0.71120000  1
  S  S601  1  0.72170000  0.88057000  0.80975000  1
  S  S602  1  0.74580000  0.68533000  0.60783000  1
  S  S603  1  0.74710000  0.48974000  0.37464000  1
  S  S604  1  0.75290000  0.62536000  0.51026000  1
  S  S605  1  0.75420000  0.39217000  0.31467000  1
  S  S606  1  0.77830000  0.19025000  0.11943000  1
  S  S607  1  0.78460000  0.28880000  0.17358000  1
  S  S608  1  0.81710000  0.59569000  0.58519000  1
  S  S609  1  0.82840000  0.76822000  0.64068000  1
  S  S610  1  0.82920000  0.61349000  0.10823000  1
  S  S611  1  0.82930000  0.04800000  0.67448000  1
  S  S612  1  0.83230000  0.12859000  0.75747000  1
  S  S613  1  0.83280000  0.71360000  0.54334000  1
  S  S614  1  0.83310000  0.69627000  0.19025000  1
  S  S615  1  0.83520000  0.65927000  0.44925000  1
  S  S616  1  0.85610000  0.21929000  0.20827000  1
  S  S617  1  0.85650000  0.15773000  0.03683000  1
  S  S618  1  0.86050000  0.89577000  0.21847000  1
  S  S619  1  0.86230000  0.32853000  0.78179000  1
  S  S620  1  0.86310000  0.25467000  0.08831000  1
  S  S621  1  0.86310000  0.40927000  0.86461000  1
  S  S622  1  0.86440000  0.97644000  0.30166000  1
  S  S623  1  0.86720000  0.34994000  0.14110000  1
  S  S624  1  0.88080000  0.96275000  0.67983000  1
  S  S625  1  0.88110000  0.60767000  0.19537000  1
  S  S626  1  0.88180000  0.52815000  0.11427000  1
  S  S627  1  0.88180000  0.68728000  0.27486000  1
  S  S628  1  0.88340000  0.04124000  0.76190000  1
  S  S629  1  0.88720000  0.12182000  0.84212000  1
  S  S630  1  0.90110000  0.68099000  0.61419000  1
  S  S631  1  0.90240000  0.71728000  0.81952000  1
  S  S632  1  0.90529000  0.62374000  0.51838000  1
  S  S633  1  0.90680000  0.81471000  0.87513000  1
  S  S634  1  0.91710000  0.32053000  0.87103000  1
  S  S635  1  0.91720000  0.88666000  0.30592000  1
  S  S636  1  0.91820000  0.79761000  0.57521000  1
  S  S637  1  0.92170000  0.74510000  0.48230000  1
  S  S638  1  0.93220000  0.12526000  0.68182000  1
  S  S639  1  0.93260000  0.68997000  0.11397000  1
  S  S640  1  0.93290000  0.59878000  0.28142000  1
  S  S641  1  0.93530000  0.52083000  0.20321000  1
  S  S642  1  0.93560000  0.18685000  0.12333000  1
  S  S643  1  0.93800000  0.95439000  0.76879000  1
  S  S644  1  0.93900000  0.37920000  0.47480000  1
  S  S645  1  0.93930000  0.03193000  0.84761000  1
  S  S646  1  0.94060000  0.28515000  0.17831000  1
  S  S647  1  0.94120000  0.22443000  0.00445000  1
  S  S648  1  0.94180000  0.32131000  0.37803000  1
  S  S649  1  0.95030000  0.31873000  0.05589000  1
  S  S650  1  0.95640000  0.89157000  0.14557000  1
  S  S651  1  0.96090000  0.97131000  0.22635000  1
  S  S652  1  0.96100000  0.48323000  0.87115000  1
  S  S653  1  0.96140000  0.32396000  0.71042000  1
  S  S654  1  0.96340000  0.05013000  0.30805000  1
  S  S655  1  0.96380000  0.40399000  0.79065000  1
  S  S656  1  0.96860000  0.59344000  0.59178000  1
  S  S657  1  0.97280000  0.65149000  0.85409000  1
  S  S658  1  0.97870000  0.74721000  0.90809000  1
  S  S659  1  0.98300000  0.03730000  0.68622000  1
  S  S660  1  0.98360000  0.60312000  0.12096000  1
  S  S661  1  0.98360000  0.84353000  0.96045000  1
  S  S662  1  0.98480000  0.68446000  0.20258000  1
  S  S663  1  0.98670000  0.11791000  0.76869000  1
  S  S664  1  0.98790000  0.76399000  0.64615000  1
  S  S665  1  0.99110000  0.78512000  0.78946000  1
  S  S666  1  0.99240000  0.70995000  0.55023000  1
  S  S667  1  0.99550000  0.65488000  0.45644000  1
  N  N668  1  0.05480000  0.59800000  0.88900000  1
  N  N669  1  0.05900000  0.54440000  0.87740000  1
  N  N670  1  0.05930000  0.89360000  0.08560000  1
  N  N671  1  0.06140000  0.32110000  0.65230000  1
  N  N672  1  0.06290000  0.86460000  0.03500000  1
  N  N673  1  0.06820000  0.11000000  0.30660000  1
  N  N674  1  0.07200000  0.30890000  0.59830000  1
  N  N675  1  0.08530000  0.16240000  0.33460000  1
  N  N676  1  0.10490000  0.59290000  0.59590000  1
  N  N677  1  0.17540000  0.57330000  0.61050000  1
  N  N678  1  0.18100000  0.20590000  0.20470000  1
  N  N679  1  0.20800000  0.30530000  0.89090000  1
  N  N680  1  0.20870000  0.86890000  0.32330000  1
  N  N681  1  0.21560000  0.19800000  0.22740000  1
  N  N682  1  0.21880000  0.66280000  0.14940000  1
  N  N683  1  0.22070000  0.09380000  0.71220000  1
  N  N684  1  0.27930000  0.28780000  0.90620000  1
  N  N685  1  0.28120000  0.85060000  0.33720000  1
  N  N686  1  0.28440000  0.77260000  0.80200000  1
  N  N687  1  0.29130000  0.67670000  0.13110000  1
  N  N688  1  0.29200000  0.10910000  0.69470000  1
  N  N689  1  0.31900000  0.79530000  0.79410000  1
  N  N690  1  0.32460000  0.38950000  0.42670000  1
  N  N691  1  0.39510000  0.40410000  0.40710000  1
  N  N692  1  0.41470000  0.66540000  0.83760000  1
  N  N693  1  0.42800000  0.40170000  0.69110000  1
  N  N694  1  0.43180000  0.69340000  0.89000000  1
  N  N695  1  0.43710000  0.96500000  0.13540000  1
  N  N696  1  0.43860000  0.34770000  0.67890000  1
  N  N697  1  0.44070000  0.91440000  0.10640000  1
  N  N698  1  0.44100000  0.12260000  0.45560000  1
  N  N699  1  0.44520000  0.11100000  0.40200000  1
  N  N700  1  0.55480000  0.88900000  0.59800000  1
  N  N701  1  0.55900000  0.87740000  0.54440000  1
  N  N702  1  0.55930000  0.08560000  0.89360000  1
  N  N703  1  0.56140000  0.65230000  0.32110000  1
  N  N704  1  0.56290000  0.03500000  0.86460000  1
  N  N705  1  0.56820000  0.30660000  0.11000000  1
  N  N706  1  0.57200000  0.59830000  0.30890000  1
  N  N707  1  0.58530000  0.33460000  0.16240000  1
  N  N708  1  0.60490000  0.59590000  0.59290000  1
  N  N709  1  0.67540000  0.61050000  0.57330000  1
  N  N710  1  0.68100000  0.20470000  0.20590000  1
  N  N711  1  0.70800000  0.89090000  0.30530000  1
  N  N712  1  0.70870000  0.32330000  0.86890000  1
  N  N713  1  0.71560000  0.22740000  0.19800000  1
  N  N714  1  0.71880000  0.14940000  0.66280000  1
  N  N715  1  0.72070000  0.71220000  0.09380000  1
  N  N716  1  0.77930000  0.90620000  0.28780000  1
  N  N717  1  0.78120000  0.33720000  0.85060000  1
  N  N718  1  0.78440000  0.80200000  0.77260000  1
  N  N719  1  0.79130000  0.13110000  0.67670000  1
  N  N720  1  0.79200000  0.69470000  0.10910000  1
  N  N721  1  0.81900000  0.79410000  0.79530000  1
  N  N722  1  0.82460000  0.42670000  0.38950000  1
  N  N723  1  0.89510000  0.40710000  0.40410000  1
  N  N724  1  0.91470000  0.83760000  0.66540000  1
  N  N725  1  0.92800000  0.69110000  0.40170000  1
  N  N726  1  0.93180000  0.89000000  0.69340000  1
  N  N727  1  0.93710000  0.13540000  0.96500000  1
  N  N728  1  0.93860000  0.67890000  0.34770000  1
  N  N729  1  0.94070000  0.10640000  0.91440000  1
  N  N730  1  0.94100000  0.45560000  0.12260000  1
  N  N731  1  0.94520000  0.40200000  0.11100000  1
