# generated using pymatgen
data_Cu3H21(C5N2)4
_symmetry_space_group_name_H-M   'P 1'
_cell_length_a   11.42870000
_cell_length_b   11.70310000
_cell_length_c   12.91800000
_cell_angle_alpha   64.00500000
_cell_angle_beta   89.78300000
_cell_angle_gamma   71.12900000
_symmetry_Int_Tables_number   1
_chemical_formula_structural   Cu3H21(C5N2)4
_chemical_formula_sum   'Cu6 H42 C40 N16'
_cell_volume   1450.06076601
_cell_formula_units_Z   2
loop_
 _symmetry_equiv_pos_site_id
 _symmetry_equiv_pos_as_xyz
  1  'x, y, z'
loop_
 _atom_site_type_symbol
 _atom_site_label
 _atom_site_symmetry_multiplicity
 _atom_site_fract_x
 _atom_site_fract_y
 _atom_site_fract_z
 _atom_site_occupancy
  Cu  Cu0  1  0.31549000  0.63807000  0.79610000  1
  Cu  Cu1  1  0.37501000  0.16842000  0.08005000  1
  Cu  Cu2  1  0.45441000  0.13139000  0.50200000  1
  Cu  Cu3  1  0.54559000  0.86861000  0.49800000  1
  Cu  Cu4  1  0.62499000  0.83158000  0.91995000  1
  Cu  Cu5  1  0.68451000  0.36193000  0.20390000  1
  H  H6  1  0.03270000  0.56750000  0.13080000  1
  H  H7  1  0.06900000  0.74610000  0.65040000  1
  H  H8  1  0.07890000  0.09170000  0.52080000  1
  H  H9  1  0.09040000  0.93090000  0.97030000  1
  H  H10  1  0.09050000  0.47920000  0.06780000  1
  H  H11  1  0.09210000  0.60960000  0.76380000  1
  H  H12  1  0.10760000  0.06150000  0.07550000  1
  H  H13  1  0.13890000  0.15530000  0.19290000  1
  H  H14  1  0.17160000  0.54200000  0.10860000  1
  H  H15  1  0.19950000  0.99580000  0.50180000  1
  H  H16  1  0.21110000  0.06100000  0.58270000  1
  H  H17  1  0.21450000  0.12820000  0.79900000  1
  H  H18  1  0.25970000  0.20990000  0.84880000  1
  H  H19  1  0.31410000  0.64960000  0.22240000  1
  H  H20  1  0.31850000  0.37360000  0.27800000  1
  H  H21  1  0.33640000  0.85710000  0.83980000  1
  H  H22  1  0.35300000  0.12410000  0.79800000  1
  H  H23  1  0.36180000  0.71740000  0.95040000  1
  H  H24  1  0.40240000  0.87520000  0.21270000  1
  H  H25  1  0.42230000  0.60150000  0.15920000  1
  H  H26  1  0.45130000  0.63180000  0.26120000  1
  H  H27  1  0.54870000  0.36820000  0.73880000  1
  H  H28  1  0.57770000  0.39850000  0.84080000  1
  H  H29  1  0.59760000  0.12480000  0.78730000  1
  H  H30  1  0.63820000  0.28260000  0.04960000  1
  H  H31  1  0.64700000  0.87590000  0.20200000  1
  H  H32  1  0.66360000  0.14290000  0.16020000  1
  H  H33  1  0.68150000  0.62640000  0.72200000  1
  H  H34  1  0.68590000  0.35040000  0.77760000  1
  H  H35  1  0.74030000  0.79010000  0.15120000  1
  H  H36  1  0.78550000  0.87180000  0.20100000  1
  H  H37  1  0.78890000  0.93900000  0.41730000  1
  H  H38  1  0.80050000  0.00420000  0.49820000  1
  H  H39  1  0.82840000  0.45800000  0.89140000  1
  H  H40  1  0.86110000  0.84470000  0.80710000  1
  H  H41  1  0.89240000  0.93850000  0.92450000  1
  H  H42  1  0.90790000  0.39040000  0.23620000  1
  H  H43  1  0.90950000  0.52080000  0.93220000  1
  H  H44  1  0.90960000  0.06910000  0.02970000  1
  H  H45  1  0.92110000  0.90830000  0.47920000  1
  H  H46  1  0.93100000  0.25390000  0.34960000  1
  H  H47  1  0.96730000  0.43250000  0.86920000  1
  C  C48  1  0.03720000  0.70430000  0.72190000  1
  C  C49  1  0.04030000  0.10410000  0.10260000  1
  C  C50  1  0.04470000  0.77200000  0.79370000  1
  C  C51  1  0.05900000  0.16120000  0.17080000  1
  C  C52  1  0.07780000  0.89010000  0.92580000  1
  C  C53  1  0.09220000  0.29110000  0.31030000  1
  C  C54  1  0.10770000  0.50280000  0.12710000  1
  C  C55  1  0.15080000  0.37950000  0.24070000  1
  C  C56  1  0.16560000  0.07520000  0.51310000  1
  C  C57  1  0.17620000  0.82460000  0.88850000  1
  C  C58  1  0.17730000  0.19670000  0.40940000  1
  C  C59  1  0.28400000  0.12820000  0.84050000  1
  C  C60  1  0.30910000  0.81300000  0.91340000  1
  C  C61  1  0.32240000  0.00810000  0.95780000  1
  C  C62  1  0.33020000  0.87440000  0.99100000  1
  C  C63  1  0.34290000  0.34770000  0.97640000  1
  C  C64  1  0.36640000  0.80360000  0.10990000  1
  C  C65  1  0.39070000  0.65870000  0.19590000  1
  C  C66  1  0.41000000  0.70590000  0.68400000  1
  C  C67  1  0.47930000  0.98980000  0.34150000  1
  C  C68  1  0.52070000  0.01020000  0.65850000  1
  C  C69  1  0.59000000  0.29410000  0.31600000  1
  C  C70  1  0.60930000  0.34130000  0.80410000  1
  C  C71  1  0.63360000  0.19640000  0.89010000  1
  C  C72  1  0.65710000  0.65230000  0.02360000  1
  C  C73  1  0.66980000  0.12560000  0.00900000  1
  C  C74  1  0.67760000  0.99190000  0.04220000  1
  C  C75  1  0.69090000  0.18700000  0.08660000  1
  C  C76  1  0.71600000  0.87180000  0.15950000  1
  C  C77  1  0.82270000  0.80330000  0.59060000  1
  C  C78  1  0.82380000  0.17540000  0.11150000  1
  C  C79  1  0.83440000  0.92480000  0.48690000  1
  C  C80  1  0.84920000  0.62050000  0.75930000  1
  C  C81  1  0.89230000  0.49720000  0.87290000  1
  C  C82  1  0.90780000  0.70890000  0.68970000  1
  C  C83  1  0.92220000  0.10990000  0.07420000  1
  C  C84  1  0.94100000  0.83880000  0.82920000  1
  C  C85  1  0.95530000  0.22800000  0.20630000  1
  C  C86  1  0.95970000  0.89590000  0.89740000  1
  C  C87  1  0.96280000  0.29570000  0.27810000  1
  N  N88  1  0.15980000  0.76500000  0.82460000  1
  N  N89  1  0.26420000  0.33490000  0.30130000  1
  N  N90  1  0.28430000  0.21930000  0.40590000  1
  N  N91  1  0.32810000  0.46030000  0.90740000  1
  N  N92  1  0.35150000  0.02130000  0.05030000  1
  N  N93  1  0.37920000  0.89480000  0.14180000  1
  N  N94  1  0.43720000  0.05950000  0.24550000  1
  N  N95  1  0.46410000  0.75510000  0.61390000  1
  N  N96  1  0.53590000  0.24490000  0.38610000  1
  N  N97  1  0.56280000  0.94050000  0.75450000  1
  N  N98  1  0.62080000  0.10520000  0.85820000  1
  N  N99  1  0.64850000  0.97870000  0.94970000  1
  N  N100  1  0.67190000  0.53970000  0.09260000  1
  N  N101  1  0.71570000  0.78070000  0.59410000  1
  N  N102  1  0.73580000  0.66510000  0.69870000  1
  N  N103  1  0.84020000  0.23500000  0.17540000  1
