# generated using pymatgen
data_CuH32(C5N3)4
_symmetry_space_group_name_H-M   'P 1'
_cell_length_a   12.55990000
_cell_length_b   12.74810000
_cell_length_c   13.36700000
_cell_angle_alpha   99.74900000
_cell_angle_beta   105.53700000
_cell_angle_gamma   111.87800000
_symmetry_Int_Tables_number   1
_chemical_formula_structural   CuH32(C5N3)4
_chemical_formula_sum   'Cu2 H64 C40 N24'
_cell_volume   1824.77298513
_cell_formula_units_Z   2
loop_
 _symmetry_equiv_pos_site_id
 _symmetry_equiv_pos_as_xyz
  1  'x, y, z'
loop_
 _atom_site_type_symbol
 _atom_site_label
 _atom_site_symmetry_multiplicity
 _atom_site_fract_x
 _atom_site_fract_y
 _atom_site_fract_z
 _atom_site_occupancy
  Cu  Cu0  1  0.00000000  0.00000000  0.00000000  1
  Cu  Cu1  1  0.50000000  0.50000000  0.50000000  1
  H  H2  1  0.00450000  0.75670000  0.88750000  1
  H  H3  1  0.00710000  0.47210000  0.59830000  1
  H  H4  1  0.02570000  0.61780000  0.05150000  1
  H  H5  1  0.03160000  0.69130000  0.56220000  1
  H  H6  1  0.04130000  0.84890000  0.16670000  1
  H  H7  1  0.05310000  0.51930000  0.18250000  1
  H  H8  1  0.06760000  0.05390000  0.46820000  1
  H  H9  1  0.07030000  0.63870000  0.76110000  1
  H  H10  1  0.07510000  0.39100000  0.40680000  1
  H  H11  1  0.08000000  0.03850000  0.79550000  1
  H  H12  1  0.11520000  0.58410000  0.00580000  1
  H  H13  1  0.12080000  0.55620000  0.57690000  1
  H  H14  1  0.13780000  0.47920000  0.13500000  1
  H  H15  1  0.14990000  0.93820000  0.54650000  1
  H  H16  1  0.15780000  0.12840000  0.58800000  1
  H  H17  1  0.17430000  0.72460000  0.73020000  1
  H  H18  1  0.19480000  0.96120000  0.45020000  1
  H  H19  1  0.19960000  0.71560000  0.24380000  1
  H  H20  1  0.28240000  0.68170000  0.18820000  1
  H  H21  1  0.29020000  0.09520000  0.10870000  1
  H  H22  1  0.30360000  0.27060000  0.30340000  1
  H  H23  1  0.32900000  0.62230000  0.55150000  1
  H  H24  1  0.33010000  0.90680000  0.64700000  1
  H  H25  1  0.33040000  0.32820000  0.60450000  1
  H  H26  1  0.34030000  0.09400000  0.66870000  1
  H  H27  1  0.36800000  0.91240000  0.54440000  1
  H  H28  1  0.38460000  0.10480000  0.57040000  1
  H  H29  1  0.39770000  0.56840000  0.28710000  1
  H  H30  1  0.43760000  0.92870000  0.34530000  1
  H  H31  1  0.44650000  0.11410000  0.35900000  1
  H  H32  1  0.47540000  0.93030000  0.24260000  1
  H  H33  1  0.48480000  0.11620000  0.25670000  1
  H  H34  1  0.51520000  0.88380000  0.74330000  1
  H  H35  1  0.52460000  0.06970000  0.75740000  1
  H  H36  1  0.55350000  0.88590000  0.64100000  1
  H  H37  1  0.56240000  0.07130000  0.65470000  1
  H  H38  1  0.60230000  0.43160000  0.71290000  1
  H  H39  1  0.61540000  0.89520000  0.42960000  1
  H  H40  1  0.63200000  0.08760000  0.45560000  1
  H  H41  1  0.65970000  0.90600000  0.33130000  1
  H  H42  1  0.66960000  0.67180000  0.39550000  1
  H  H43  1  0.66990000  0.09320000  0.35300000  1
  H  H44  1  0.67100000  0.37770000  0.44850000  1
  H  H45  1  0.69640000  0.72940000  0.69660000  1
  H  H46  1  0.70980000  0.90480000  0.89130000  1
  H  H47  1  0.71760000  0.31830000  0.81180000  1
  H  H48  1  0.80040000  0.28440000  0.75620000  1
  H  H49  1  0.80520000  0.03880000  0.54980000  1
  H  H50  1  0.82570000  0.27540000  0.26980000  1
  H  H51  1  0.84220000  0.87160000  0.41200000  1
  H  H52  1  0.85010000  0.06180000  0.45350000  1
  H  H53  1  0.86220000  0.52080000  0.86500000  1
  H  H54  1  0.87920000  0.44380000  0.42310000  1
  H  H55  1  0.88480000  0.41590000  0.99420000  1
  H  H56  1  0.92000000  0.96150000  0.20450000  1
  H  H57  1  0.92490000  0.60900000  0.59320000  1
  H  H58  1  0.92970000  0.36130000  0.23890000  1
  H  H59  1  0.93240000  0.94610000  0.53180000  1
  H  H60  1  0.94690000  0.48070000  0.81750000  1
  H  H61  1  0.95870000  0.15110000  0.83330000  1
  H  H62  1  0.96840000  0.30870000  0.43780000  1
  H  H63  1  0.97430000  0.38220000  0.94850000  1
  H  H64  1  0.99290000  0.52790000  0.40170000  1
  H  H65  1  0.99550000  0.24330000  0.11250000  1
  C  C66  1  0.01130000  0.63570000  0.60320000  1
  C  C67  1  0.02990000  0.81230000  0.85140000  1
  C  C68  1  0.03320000  0.52980000  0.56030000  1
  C  C69  1  0.05400000  0.55740000  0.03900000  1
  C  C70  1  0.07140000  0.96410000  0.80040000  1
  C  C71  1  0.08820000  0.69630000  0.72150000  1
  C  C72  1  0.11350000  0.54250000  0.14800000  1
  C  C73  1  0.11740000  0.90420000  0.17150000  1
  C  C74  1  0.15340000  0.09200000  0.51620000  1
  C  C75  1  0.20120000  0.99880000  0.52240000  1
  C  C76  1  0.22490000  0.65420000  0.22470000  1
  C  C77  1  0.25050000  0.03800000  0.13800000  1
  C  C78  1  0.29150000  0.25930000  0.36710000  1
  C  C79  1  0.30720000  0.29290000  0.53040000  1
  C  C80  1  0.32640000  0.61760000  0.48060000  1
  C  C81  1  0.33260000  0.04960000  0.59850000  1
  C  C82  1  0.36500000  0.58780000  0.33820000  1
  C  C83  1  0.37800000  0.95940000  0.61440000  1
  C  C84  1  0.43720000  0.06500000  0.29040000  1
  C  C85  1  0.48510000  0.97970000  0.31130000  1
  C  C86  1  0.51490000  0.02030000  0.68870000  1
  C  C87  1  0.56280000  0.93500000  0.70960000  1
  C  C88  1  0.62200000  0.04060000  0.38560000  1
  C  C89  1  0.63500000  0.41220000  0.66180000  1
  C  C90  1  0.66740000  0.95040000  0.40150000  1
  C  C91  1  0.67360000  0.38240000  0.51940000  1
  C  C92  1  0.69280000  0.70710000  0.46960000  1
  C  C93  1  0.70850000  0.74070000  0.63290000  1
  C  C94  1  0.74950000  0.96200000  0.86200000  1
  C  C95  1  0.77510000  0.34580000  0.77530000  1
  C  C96  1  0.79880000  0.00120000  0.47760000  1
  C  C97  1  0.84660000  0.90800000  0.48380000  1
  C  C98  1  0.88260000  0.09580000  0.82850000  1
  C  C99  1  0.88650000  0.45750000  0.85200000  1
  C  C100  1  0.91180000  0.30370000  0.27850000  1
  C  C101  1  0.92860000  0.03590000  0.19960000  1
  C  C102  1  0.94600000  0.44260000  0.96100000  1
  C  C103  1  0.96680000  0.47020000  0.43970000  1
  C  C104  1  0.97010000  0.18770000  0.14860000  1
  C  C105  1  0.98870000  0.36430000  0.39680000  1
  N  N106  1  0.03230000  0.91840000  0.87450000  1
  N  N107  1  0.06840000  0.79660000  0.77020000  1
  N  N108  1  0.09660000  0.89430000  0.73510000  1
  N  N109  1  0.13010000  0.97580000  0.10650000  1
  N  N110  1  0.21380000  0.15950000  0.37060000  1
  N  N111  1  0.22160000  0.91980000  0.24130000  1
  N  N112  1  0.22370000  0.18360000  0.47610000  1
  N  N113  1  0.25920000  0.65340000  0.41450000  1
  N  N114  1  0.28600000  0.63390000  0.32350000  1
  N  N115  1  0.30580000  0.00600000  0.21850000  1
  N  N116  1  0.35330000  0.34510000  0.46430000  1
  N  N117  1  0.39120000  0.57330000  0.43620000  1
  N  N118  1  0.60880000  0.42670000  0.56380000  1
  N  N119  1  0.64670000  0.65490000  0.53570000  1
  N  N120  1  0.69420000  0.99400000  0.78150000  1
  N  N121  1  0.71400000  0.36610000  0.67650000  1
  N  N122  1  0.74080000  0.34660000  0.58550000  1
  N  N123  1  0.77630000  0.81640000  0.52390000  1
  N  N124  1  0.77840000  0.08020000  0.75870000  1
  N  N125  1  0.78620000  0.84050000  0.62940000  1
  N  N126  1  0.86990000  0.02420000  0.89350000  1
  N  N127  1  0.90340000  0.10570000  0.26490000  1
  N  N128  1  0.93160000  0.20340000  0.22980000  1
  N  N129  1  0.96770000  0.08160000  0.12550000  1
