# generated using pymatgen
data_Cd3H40C36(N4Cl)6
_symmetry_space_group_name_H-M   'P 1'
_cell_length_a   8.78090000
_cell_length_b   11.38330000
_cell_length_c   28.23330000
_cell_angle_alpha   90.00000000
_cell_angle_beta   90.00000000
_cell_angle_gamma   90.00000000
_symmetry_Int_Tables_number   1
_chemical_formula_structural   Cd3H40C36(N4Cl)6
_chemical_formula_sum   'Cd6 H80 C72 N48 Cl12'
_cell_volume   2822.07697707
_cell_formula_units_Z   2
loop_
 _symmetry_equiv_pos_site_id
 _symmetry_equiv_pos_as_xyz
  1  'x, y, z'
loop_
 _atom_site_type_symbol
 _atom_site_label
 _atom_site_symmetry_multiplicity
 _atom_site_fract_x
 _atom_site_fract_y
 _atom_site_fract_z
 _atom_site_occupancy
  Cd  Cd0  1  0.99961000  0.00067000  0.99996000  1
  Cd  Cd1  1  0.81655000  0.00063000  0.88325000  1
  Cd  Cd2  1  0.68344000  0.50042000  0.38327000  1
  Cd  Cd3  1  0.49996000  0.50005000  0.50000000  1
  Cd  Cd4  1  0.31664000  0.49972000  0.61672000  1
  Cd  Cd5  1  0.18336000  0.00063000  0.11672000  1
  H  H6  1  0.98425000  0.50031000  0.11818000  1
  H  H7  1  0.98257000  0.24614000  0.84423000  1
  H  H8  1  0.98125000  0.75422000  0.84450000  1
  H  H9  1  0.93343000  0.19073000  0.59132000  1
  H  H10  1  0.93253000  0.80880000  0.59134000  1
  H  H11  1  0.93229000  0.07968000  0.34248000  1
  H  H12  1  0.93199000  0.92144000  0.34245000  1
  H  H13  1  0.90093000  0.50013000  0.06010000  1
  H  H14  1  0.86382000  0.00033000  0.26904000  1
  H  H15  1  0.85270000  0.61288000  0.18586000  1
  H  H16  1  0.85247000  0.38875000  0.18599000  1
  H  H17  1  0.85048000  0.10733000  0.54432000  1
  H  H18  1  0.85006000  0.89239000  0.54432000  1
  H  H19  1  0.83388000  0.18432000  0.43973000  1
  H  H20  1  0.83360000  0.81653000  0.43976000  1
  H  H21  1  0.82655000  0.50099000  0.26787000  1
  H  H22  1  0.81972000  0.19209000  0.67458000  1
  H  H23  1  0.81878000  0.80776000  0.67455000  1
  H  H24  1  0.78927000  0.75905000  0.02491000  1
  H  H25  1  0.78907000  0.24222000  0.02504000  1
  H  H26  1  0.71171000  0.25881000  0.52502000  1
  H  H27  1  0.70979000  0.74206000  0.52487000  1
  H  H28  1  0.68111000  0.69303000  0.17442000  1
  H  H29  1  0.68066000  0.30871000  0.17473000  1
  H  H30  1  0.67363000  0.00023000  0.76785000  1
  H  H31  1  0.66629000  0.68429000  0.93986000  1
  H  H32  1  0.66612000  0.31650000  0.93964000  1
  H  H33  1  0.65004000  0.60779000  0.04425000  1
  H  H34  1  0.64965000  0.39290000  0.04442000  1
  H  H35  1  0.64785000  0.11221000  0.68591000  1
  H  H36  1  0.64727000  0.88807000  0.68592000  1
  H  H37  1  0.63613000  0.50024000  0.76903000  1
  H  H38  1  0.59921000  0.00035000  0.56009000  1
  H  H39  1  0.56790000  0.42168000  0.84243000  1
  H  H40  1  0.56774000  0.57992000  0.84247000  1
  H  H41  1  0.56737000  0.69155000  0.09118000  1
  H  H42  1  0.56690000  0.30964000  0.09150000  1
  H  H43  1  0.51869000  0.25392000  0.34441000  1
  H  H44  1  0.51787000  0.74608000  0.34441000  1
  H  H45  1  0.51587000  0.00046000  0.61817000  1
  H  H46  1  0.48416000  0.99955000  0.38185000  1
  H  H47  1  0.48213000  0.25395000  0.65557000  1
  H  H48  1  0.48139000  0.74610000  0.65562000  1
  H  H49  1  0.43311000  0.30959000  0.90854000  1
  H  H50  1  0.43274000  0.69153000  0.90877000  1
  H  H51  1  0.43230000  0.58008000  0.15750000  1
  H  H52  1  0.43215000  0.42184000  0.15759000  1
  H  H53  1  0.40081000  0.99959000  0.43991000  1
  H  H54  1  0.36388000  0.50080000  0.23096000  1
  H  H55  1  0.35281000  0.11210000  0.31412000  1
  H  H56  1  0.35218000  0.88795000  0.31406000  1
  H  H57  1  0.35041000  0.39291000  0.95561000  1
  H  H58  1  0.35009000  0.60788000  0.95572000  1
  H  H59  1  0.33400000  0.31650000  0.06036000  1
  H  H60  1  0.33377000  0.68428000  0.06012000  1
  H  H61  1  0.32650000  0.00065000  0.23215000  1
  H  H62  1  0.31931000  0.30854000  0.82534000  1
  H  H63  1  0.31899000  0.69286000  0.82552000  1
  H  H64  1  0.29028000  0.25800000  0.47516000  1
  H  H65  1  0.28822000  0.74122000  0.47495000  1
  H  H66  1  0.21052000  0.24239000  0.97506000  1
  H  H67  1  0.21037000  0.75883000  0.97513000  1
  H  H68  1  0.18133000  0.19243000  0.32552000  1
  H  H69  1  0.18026000  0.80811000  0.32536000  1
  H  H70  1  0.17343000  0.50048000  0.73215000  1
  H  H71  1  0.16647000  0.18348000  0.56024000  1
  H  H72  1  0.16607000  0.81569000  0.56026000  1
  H  H73  1  0.14997000  0.10760000  0.45571000  1
  H  H74  1  0.14950000  0.89265000  0.45565000  1
  H  H75  1  0.14755000  0.38860000  0.81405000  1
  H  H76  1  0.14736000  0.61273000  0.81412000  1
  H  H77  1  0.13630000  0.00001000  0.73095000  1
  H  H78  1  0.09915000  0.50022000  0.93991000  1
  H  H79  1  0.06808000  0.07871000  0.65752000  1
  H  H80  1  0.06774000  0.92048000  0.65754000  1
  H  H81  1  0.06753000  0.19126000  0.40871000  1
  H  H82  1  0.06655000  0.80933000  0.40863000  1
  H  H83  1  0.01903000  0.75412000  0.15543000  1
  H  H84  1  0.01757000  0.24615000  0.15578000  1
  H  H85  1  0.01582000  0.50032000  0.88184000  1
  C  C86  1  0.99879000  0.99968000  0.64887000  1
  C  C87  1  0.98081000  0.77589000  0.12009000  1
  C  C88  1  0.97954000  0.22454000  0.12040000  1
  C  C89  1  0.97020000  0.00037000  0.24981000  1
  C  C90  1  0.96568000  0.99973000  0.59558000  1
  C  C91  1  0.87444000  0.50034000  0.09846000  1
  C  C92  1  0.87053000  0.10917000  0.58304000  1
  C  C93  1  0.86999000  0.89053000  0.58304000  1
  C  C94  1  0.86384000  0.77866000  0.05421000  1
  C  C95  1  0.86316000  0.22226000  0.05441000  1
  C  C96  1  0.84953000  0.99989000  0.67876000  1
  C  C97  1  0.80447000  0.09325000  0.44495000  1
  C  C98  1  0.80434000  0.90764000  0.44497000  1
  C  C99  1  0.79678000  0.00004000  0.76913000  1
  C  C100  1  0.78274000  0.61267000  0.11047000  1
  C  C101  1  0.78236000  0.38832000  0.11063000  1
  C  C102  1  0.75510000  0.11147000  0.66501000  1
  C  C103  1  0.75449000  0.88856000  0.66500000  1
  C  C104  1  0.74547000  0.61222000  0.16494000  1
  C  C105  1  0.74520000  0.38932000  0.16509000  1
  C  C106  1  0.71789000  0.11228000  0.61054000  1
  C  C107  1  0.71721000  0.88792000  0.61052000  1
  C  C108  1  0.70340000  0.50078000  0.26915000  1
  C  C109  1  0.69560000  0.59318000  0.94501000  1
  C  C110  1  0.69550000  0.40757000  0.94491000  1
  C  C111  1  0.65062000  0.50089000  0.17877000  1
  C  C112  1  0.63733000  0.27855000  0.55435000  1
  C  C113  1  0.63551000  0.72227000  0.55421000  1
  C  C114  1  0.63001000  0.60982000  0.08296000  1
  C  C115  1  0.62969000  0.39121000  0.08314000  1
  C  C116  1  0.62569000  0.00028000  0.59845000  1
  C  C117  1  0.53443000  0.50062000  0.09560000  1
  C  C118  1  0.52975000  0.50039000  0.74980000  1
  C  C119  1  0.52046000  0.27582000  0.62026000  1
  C  C120  1  0.51922000  0.72457000  0.62022000  1
  C  C121  1  0.50134000  0.50089000  0.14889000  1
  C  C122  1  0.49870000  0.50074000  0.85111000  1
  C  C123  1  0.48086000  0.27546000  0.37981000  1
  C  C124  1  0.47953000  0.72422000  0.37972000  1
  C  C125  1  0.47025000  0.50077000  0.25019000  1
  C  C126  1  0.46563000  0.50058000  0.90441000  1
  C  C127  1  0.37434000  0.99973000  0.40156000  1
  C  C128  1  0.37034000  0.39118000  0.91689000  1
  C  C129  1  0.37008000  0.60983000  0.91701000  1
  C  C130  1  0.36458000  0.27778000  0.44582000  1
  C  C131  1  0.36262000  0.72149000  0.44562000  1
  C  C132  1  0.34941000  0.50070000  0.82124000  1
  C  C133  1  0.30459000  0.40756000  0.05509000  1
  C  C134  1  0.30446000  0.59317000  0.05498000  1
  C  C135  1  0.29658000  0.50055000  0.73086000  1
  C  C136  1  0.28285000  0.11213000  0.38951000  1
  C  C137  1  0.28210000  0.88777000  0.38943000  1
  C  C138  1  0.25481000  0.38919000  0.83495000  1
  C  C139  1  0.25459000  0.61209000  0.83504000  1
  C  C140  1  0.24559000  0.11159000  0.33504000  1
  C  C141  1  0.24493000  0.88869000  0.33496000  1
  C  C142  1  0.21765000  0.38831000  0.88942000  1
  C  C143  1  0.21733000  0.61266000  0.88952000  1
  C  C144  1  0.20335000  0.00048000  0.23086000  1
  C  C145  1  0.19571000  0.09237000  0.55503000  1
  C  C146  1  0.19551000  0.90675000  0.55504000  1
  C  C147  1  0.15054000  0.00032000  0.32124000  1
  C  C148  1  0.13644000  0.22245000  0.94568000  1
  C  C149  1  0.13592000  0.77851000  0.94581000  1
  C  C150  1  0.13006000  0.10951000  0.41699000  1
  C  C151  1  0.12947000  0.89087000  0.41693000  1
  C  C152  1  0.12563000  0.50037000  0.90156000  1
  C  C153  1  0.03434000  0.00034000  0.40442000  1
  C  C154  1  0.02993000  0.99998000  0.75018000  1
  C  C155  1  0.02037000  0.22462000  0.87963000  1
  C  C156  1  0.01929000  0.77592000  0.87987000  1
  C  C157  1  0.00126000  0.00048000  0.35112000  1
  N  N158  1  0.97557000  0.00031000  0.20228000  1
  N  N159  1  0.96677000  0.13316000  0.90489000  1
  N  N160  1  0.96588000  0.86755000  0.90507000  1
  N  N161  1  0.96141000  0.86968000  0.05372000  1
  N  N162  1  0.96057000  0.13117000  0.05391000  1
  N  N163  1  0.88911000  0.00041000  0.43106000  1
  N  N164  1  0.88891000  0.99990000  0.73043000  1
  N  N165  1  0.87941000  0.00009000  0.80984000  1
  N  N166  1  0.87122000  0.71820000  0.09582000  1
  N  N167  1  0.87030000  0.28247000  0.09608000  1
  N  N168  1  0.82357000  0.55835000  0.96697000  1
  N  N169  1  0.82351000  0.44214000  0.96690000  1
  N  N170  1  0.67643000  0.05861000  0.46692000  1
  N  N171  1  0.67636000  0.94240000  0.46693000  1
  N  N172  1  0.63000000  0.21813000  0.59597000  1
  N  N173  1  0.62858000  0.78244000  0.59590000  1
  N  N174  1  0.62075000  0.50033000  0.30986000  1
  N  N175  1  0.61126000  0.50100000  0.23044000  1
  N  N176  1  0.61086000  0.50046000  0.93105000  1
  N  N177  1  0.53965000  0.36950000  0.55385000  1
  N  N178  1  0.53801000  0.63122000  0.55372000  1
  N  N179  1  0.53429000  0.36708000  0.40503000  1
  N  N180  1  0.53291000  0.63263000  0.40494000  1
  N  N181  1  0.52435000  0.50013000  0.70227000  1
  N  N182  1  0.47561000  0.50038000  0.29773000  1
  N  N183  1  0.46712000  0.36745000  0.59505000  1
  N  N184  1  0.46575000  0.63300000  0.59498000  1
  N  N185  1  0.46203000  0.36886000  0.44629000  1
  N  N186  1  0.46033000  0.63057000  0.44614000  1
  N  N187  1  0.38922000  0.50047000  0.06895000  1
  N  N188  1  0.38875000  0.50070000  0.76956000  1
  N  N189  1  0.37920000  0.50029000  0.69015000  1
  N  N190  1  0.37154000  0.21758000  0.40414000  1
  N  N191  1  0.36995000  0.78189000  0.40399000  1
  N  N192  1  0.32368000  0.05758000  0.53307000  1
  N  N193  1  0.32357000  0.94138000  0.53308000  1
  N  N194  1  0.17657000  0.44211000  0.03311000  1
  N  N195  1  0.17648000  0.55832000  0.03303000  1
  N  N196  1  0.12957000  0.28255000  0.90398000  1
  N  N197  1  0.12883000  0.71820000  0.90416000  1
  N  N198  1  0.12072000  0.00034000  0.19015000  1
  N  N199  1  0.11120000  0.00045000  0.26957000  1
  N  N200  1  0.11090000  0.99961000  0.56893000  1
  N  N201  1  0.03889000  0.13143000  0.94617000  1
  N  N202  1  0.03828000  0.86949000  0.94630000  1
  N  N203  1  0.03403000  0.86763000  0.09491000  1
  N  N204  1  0.03293000  0.13299000  0.09515000  1
  N  N205  1  0.02456000  0.00010000  0.79772000  1
  Cl  Cl206  1  0.88887000  0.36595000  0.37122000  1
  Cl  Cl207  1  0.88744000  0.63592000  0.37088000  1
  Cl  Cl208  1  0.75499000  0.50099000  0.46750000  1
  Cl  Cl209  1  0.74462000  0.00146000  0.96744000  1
  Cl  Cl210  1  0.61192000  0.13559000  0.87072000  1
  Cl  Cl211  1  0.61181000  0.86558000  0.87124000  1
  Cl  Cl212  1  0.38815000  0.13548000  0.12909000  1
  Cl  Cl213  1  0.38796000  0.86542000  0.12866000  1
  Cl  Cl214  1  0.25464000  0.00171000  0.03246000  1
  Cl  Cl215  1  0.24487000  0.49903000  0.53251000  1
  Cl  Cl216  1  0.11284000  0.36403000  0.62921000  1
  Cl  Cl217  1  0.11096000  0.63401000  0.62869000  1
