# generated using pymatgen
data_ZnH10(C11O2)2
_symmetry_space_group_name_H-M   'P 1'
_cell_length_a   20.26900000
_cell_length_b   20.26900000
_cell_length_c   39.64500000
_cell_angle_alpha   90.00000000
_cell_angle_beta   90.00000000
_cell_angle_gamma   90.00000000
_symmetry_Int_Tables_number   1
_chemical_formula_structural   ZnH10(C11O2)2
_chemical_formula_sum   'Zn12 H120 C264 O48'
_cell_volume   16287.44895184
_cell_formula_units_Z   12
loop_
 _symmetry_equiv_pos_site_id
 _symmetry_equiv_pos_as_xyz
  1  'x, y, z'
loop_
 _atom_site_type_symbol
 _atom_site_label
 _atom_site_symmetry_multiplicity
 _atom_site_fract_x
 _atom_site_fract_y
 _atom_site_fract_z
 _atom_site_occupancy
  Zn  Zn0  1  0.00000000  0.16811000  0.50000000  1
  Zn  Zn1  1  0.00000000  0.83189000  0.00000000  1
  Zn  Zn2  1  0.14543000  0.16808000  0.45088000  1
  Zn  Zn3  1  0.14543000  0.83192000  0.04912000  1
  Zn  Zn4  1  0.16808000  0.14543000  0.29912000  1
  Zn  Zn5  1  0.16808000  0.85457000  0.20088000  1
  Zn  Zn6  1  0.16811000  0.00000000  0.25000000  1
  Zn  Zn7  1  0.83189000  0.00000000  0.75000000  1
  Zn  Zn8  1  0.83192000  0.14543000  0.70088000  1
  Zn  Zn9  1  0.83192000  0.85457000  0.79912000  1
  Zn  Zn10  1  0.85457000  0.16808000  0.54912000  1
  Zn  Zn11  1  0.85457000  0.83192000  0.95088000  1
  H  H12  1  0.00820000  0.10240000  0.68820000  1
  H  H13  1  0.00820000  0.89760000  0.81180000  1
  H  H14  1  0.01520000  0.04840000  0.20710000  1
  H  H15  1  0.01520000  0.95160000  0.29290000  1
  H  H16  1  0.01750000  0.25920000  0.16260000  1
  H  H17  1  0.01750000  0.74080000  0.33740000  1
  H  H18  1  0.03270000  0.06760000  0.84470000  1
  H  H19  1  0.03270000  0.93240000  0.65530000  1
  H  H20  1  0.03920000  0.44860000  0.54710000  1
  H  H21  1  0.03920000  0.55140000  0.95290000  1
  H  H22  1  0.04840000  0.01520000  0.54290000  1
  H  H23  1  0.04840000  0.98480000  0.95710000  1
  H  H24  1  0.05160000  0.34020000  0.53600000  1
  H  H25  1  0.05160000  0.65980000  0.96400000  1
  H  H26  1  0.05390000  0.12170000  0.36070000  1
  H  H27  1  0.05390000  0.87830000  0.13930000  1
  H  H28  1  0.06460000  0.23960000  0.21430000  1
  H  H29  1  0.06460000  0.76040000  0.28570000  1
  H  H30  1  0.06590000  0.31950000  0.92370000  1
  H  H31  1  0.06590000  0.68050000  0.57630000  1
  H  H32  1  0.06760000  0.03270000  0.90530000  1
  H  H33  1  0.06760000  0.96730000  0.59470000  1
  H  H34  1  0.07580000  0.13540000  0.96480000  1
  H  H35  1  0.07580000  0.86460000  0.53520000  1
  H  H36  1  0.10240000  0.00820000  0.06180000  1
  H  H37  1  0.10240000  0.99180000  0.43820000  1
  H  H38  1  0.10430000  0.29630000  0.02370000  1
  H  H39  1  0.10430000  0.70370000  0.47630000  1
  H  H40  1  0.11340000  0.16190000  0.58860000  1
  H  H41  1  0.11340000  0.83810000  0.91140000  1
  H  H42  1  0.12170000  0.05390000  0.38930000  1
  H  H43  1  0.12170000  0.94610000  0.11070000  1
  H  H44  1  0.13540000  0.07580000  0.78520000  1
  H  H45  1  0.13540000  0.92420000  0.71480000  1
  H  H46  1  0.14220000  0.17630000  0.11330000  1
  H  H47  1  0.14220000  0.82370000  0.38670000  1
  H  H48  1  0.15980000  0.49320000  0.46850000  1
  H  H49  1  0.15980000  0.50680000  0.03150000  1
  H  H50  1  0.16190000  0.11340000  0.16140000  1
  H  H51  1  0.16190000  0.88660000  0.33860000  1
  H  H52  1  0.16560000  0.38310000  0.45610000  1
  H  H53  1  0.16560000  0.61690000  0.04390000  1
  H  H54  1  0.17630000  0.14220000  0.63670000  1
  H  H55  1  0.17630000  0.85780000  0.86330000  1
  H  H56  1  0.23960000  0.06460000  0.53570000  1
  H  H57  1  0.23960000  0.93540000  0.96430000  1
  H  H58  1  0.25920000  0.01750000  0.58740000  1
  H  H59  1  0.25920000  0.98250000  0.91260000  1
  H  H60  1  0.29630000  0.10430000  0.72630000  1
  H  H61  1  0.29630000  0.89570000  0.77370000  1
  H  H62  1  0.31950000  0.06590000  0.82630000  1
  H  H63  1  0.31950000  0.93410000  0.67370000  1
  H  H64  1  0.34020000  0.05160000  0.21400000  1
  H  H65  1  0.34020000  0.94840000  0.28600000  1
  H  H66  1  0.38310000  0.16560000  0.29390000  1
  H  H67  1  0.38310000  0.83440000  0.20610000  1
  H  H68  1  0.44860000  0.03920000  0.20290000  1
  H  H69  1  0.44860000  0.96080000  0.29710000  1
  H  H70  1  0.49320000  0.15980000  0.28150000  1
  H  H71  1  0.49320000  0.84020000  0.21850000  1
  H  H72  1  0.50680000  0.15980000  0.71850000  1
  H  H73  1  0.50680000  0.84020000  0.78150000  1
  H  H74  1  0.55140000  0.03920000  0.79710000  1
  H  H75  1  0.55140000  0.96080000  0.70290000  1
  H  H76  1  0.61690000  0.16560000  0.70610000  1
  H  H77  1  0.61690000  0.83440000  0.79390000  1
  H  H78  1  0.65980000  0.05160000  0.78600000  1
  H  H79  1  0.65980000  0.94840000  0.71400000  1
  H  H80  1  0.68050000  0.06590000  0.17370000  1
  H  H81  1  0.68050000  0.93410000  0.32630000  1
  H  H82  1  0.70370000  0.10430000  0.27370000  1
  H  H83  1  0.70370000  0.89570000  0.22630000  1
  H  H84  1  0.74080000  0.01750000  0.41260000  1
  H  H85  1  0.74080000  0.98250000  0.08740000  1
  H  H86  1  0.76040000  0.06460000  0.46430000  1
  H  H87  1  0.76040000  0.93540000  0.03570000  1
  H  H88  1  0.82370000  0.14220000  0.36330000  1
  H  H89  1  0.82370000  0.85780000  0.13670000  1
  H  H90  1  0.83440000  0.38310000  0.54390000  1
  H  H91  1  0.83440000  0.61690000  0.95610000  1
  H  H92  1  0.83810000  0.11340000  0.83860000  1
  H  H93  1  0.83810000  0.88660000  0.66140000  1
  H  H94  1  0.84020000  0.49320000  0.53150000  1
  H  H95  1  0.84020000  0.50680000  0.96850000  1
  H  H96  1  0.85780000  0.17630000  0.88670000  1
  H  H97  1  0.85780000  0.82370000  0.61330000  1
  H  H98  1  0.86460000  0.07580000  0.21480000  1
  H  H99  1  0.86460000  0.92420000  0.28520000  1
  H  H100  1  0.87830000  0.05390000  0.61070000  1
  H  H101  1  0.87830000  0.94610000  0.88930000  1
  H  H102  1  0.88660000  0.16190000  0.41140000  1
  H  H103  1  0.88660000  0.83810000  0.08860000  1
  H  H104  1  0.89570000  0.29630000  0.97630000  1
  H  H105  1  0.89570000  0.70370000  0.52370000  1
  H  H106  1  0.89760000  0.00820000  0.93820000  1
  H  H107  1  0.89760000  0.99180000  0.56180000  1
  H  H108  1  0.92420000  0.13540000  0.03520000  1
  H  H109  1  0.92420000  0.86460000  0.46480000  1
  H  H110  1  0.93240000  0.03270000  0.09470000  1
  H  H111  1  0.93240000  0.96730000  0.40530000  1
  H  H112  1  0.93410000  0.31950000  0.07630000  1
  H  H113  1  0.93410000  0.68050000  0.42370000  1
  H  H114  1  0.93540000  0.23960000  0.78570000  1
  H  H115  1  0.93540000  0.76040000  0.71430000  1
  H  H116  1  0.94610000  0.12170000  0.63930000  1
  H  H117  1  0.94610000  0.87830000  0.86070000  1
  H  H118  1  0.94840000  0.34020000  0.46400000  1
  H  H119  1  0.94840000  0.65980000  0.03600000  1
  H  H120  1  0.95160000  0.01520000  0.45710000  1
  H  H121  1  0.95160000  0.98480000  0.04290000  1
  H  H122  1  0.96080000  0.44860000  0.45290000  1
  H  H123  1  0.96080000  0.55140000  0.04710000  1
  H  H124  1  0.96730000  0.06760000  0.15530000  1
  H  H125  1  0.96730000  0.93240000  0.34470000  1
  H  H126  1  0.98250000  0.25920000  0.83740000  1
  H  H127  1  0.98250000  0.74080000  0.66260000  1
  H  H128  1  0.98480000  0.04840000  0.79290000  1
  H  H129  1  0.98480000  0.95160000  0.70710000  1
  H  H130  1  0.99180000  0.10240000  0.31180000  1
  H  H131  1  0.99180000  0.89760000  0.18820000  1
  C  C132  1  0.00774000  0.12591000  0.36093000  1
  C  C133  1  0.00774000  0.87409000  0.13907000  1
  C  C134  1  0.01127000  0.16540000  0.84572000  1
  C  C135  1  0.01127000  0.83460000  0.65428000  1
  C  C136  1  0.01224000  0.10210000  0.83275000  1
  C  C137  1  0.01224000  0.89790000  0.66725000  1
  C  C138  1  0.01444000  0.15612000  0.42218000  1
  C  C139  1  0.01444000  0.84388000  0.07782000  1
  C  C140  1  0.01694000  0.09076000  0.19755000  1
  C  C141  1  0.01694000  0.90924000  0.30245000  1
  C  C142  1  0.01760000  0.21630000  0.17163000  1
  C  C143  1  0.01760000  0.78370000  0.32837000  1
  C  C144  1  0.02579000  0.14420000  0.60960000  1
  C  C145  1  0.02579000  0.85580000  0.89040000  1
  C  C146  1  0.02960000  0.11407000  0.66808000  1
  C  C147  1  0.02960000  0.88593000  0.83192000  1
  C  C148  1  0.03613000  0.18147000  0.87946000  1
  C  C149  1  0.03613000  0.81853000  0.62054000  1
  C  C150  1  0.04664000  0.20420000  0.20201000  1
  C  C151  1  0.04664000  0.79580000  0.29799000  1
  C  C152  1  0.05026000  0.14260000  0.21496000  1
  C  C153  1  0.05026000  0.85740000  0.28504000  1
  C  C154  1  0.05180000  0.19707000  0.90655000  1
  C  C155  1  0.05180000  0.80293000  0.59345000  1
  C  C156  1  0.06590000  0.43480000  0.52902000  1
  C  C157  1  0.06590000  0.56520000  0.97098000  1
  C  C158  1  0.06817000  0.22430000  0.93967000  1
  C  C159  1  0.06817000  0.77570000  0.56033000  1
  C  C160  1  0.07166000  0.29220000  0.94270000  1
  C  C161  1  0.07166000  0.70780000  0.55730000  1
  C  C162  1  0.07170000  0.37170000  0.52198000  1
  C  C163  1  0.07170000  0.62830000  0.97802000  1
  C  C164  1  0.07736000  0.18149000  0.96737000  1
  C  C165  1  0.07736000  0.81851000  0.53263000  1
  C  C166  1  0.08430000  0.32040000  0.97555000  1
  C  C167  1  0.08430000  0.67960000  0.52445000  1
  C  C168  1  0.08670000  0.12620000  0.24735000  1
  C  C169  1  0.08670000  0.87380000  0.25265000  1
  C  C170  1  0.08904000  0.21070000  0.99908000  1
  C  C171  1  0.08904000  0.78930000  0.50092000  1
  C  C172  1  0.09060000  0.38480000  0.97893000  1
  C  C173  1  0.09060000  0.61520000  0.52107000  1
  C  C174  1  0.09076000  0.01694000  0.55245000  1
  C  C175  1  0.09076000  0.98306000  0.94755000  1
  C  C176  1  0.09240000  0.14981000  0.60882000  1
  C  C177  1  0.09240000  0.85019000  0.89118000  1
  C  C178  1  0.09250000  0.44400000  0.98310000  1
  C  C179  1  0.09250000  0.55600000  0.51690000  1
  C  C180  1  0.09400000  0.27840000  0.00244000  1
  C  C181  1  0.09400000  0.72160000  0.49756000  1
  C  C182  1  0.09740000  0.11923000  0.66751000  1
  C  C183  1  0.09740000  0.88077000  0.83249000  1
  C  C184  1  0.09925000  0.16850000  0.02792000  1
  C  C185  1  0.09925000  0.83150000  0.47208000  1
  C  C186  1  0.10100000  0.48330000  0.50869000  1
  C  C187  1  0.10100000  0.51670000  0.99131000  1
  C  C188  1  0.10210000  0.01224000  0.91725000  1
  C  C189  1  0.10210000  0.98776000  0.58275000  1
  C  C190  1  0.10723000  0.13635000  0.05212000  1
  C  C191  1  0.10723000  0.86365000  0.44788000  1
  C  C192  1  0.10756000  0.35100000  0.49374000  1
  C  C193  1  0.10756000  0.64900000  0.00626000  1
  C  C194  1  0.11050000  0.27770000  0.48359000  1
  C  C195  1  0.11050000  0.72230000  0.01641000  1
  C  C196  1  0.11407000  0.02960000  0.08192000  1
  C  C197  1  0.11407000  0.97040000  0.41808000  1
  C  C198  1  0.11923000  0.09740000  0.08249000  1
  C  C199  1  0.11923000  0.90260000  0.41751000  1
  C  C200  1  0.12591000  0.00774000  0.38907000  1
  C  C201  1  0.12591000  0.99226000  0.11093000  1
  C  C202  1  0.12620000  0.08670000  0.50265000  1
  C  C203  1  0.12620000  0.91330000  0.99735000  1
  C  C204  1  0.13015000  0.13795000  0.63735000  1
  C  C205  1  0.13015000  0.86205000  0.86265000  1
  C  C206  1  0.13635000  0.10723000  0.69788000  1
  C  C207  1  0.13635000  0.89277000  0.80212000  1
  C  C208  1  0.13710000  0.46250000  0.48198000  1
  C  C209  1  0.13710000  0.53750000  0.01802000  1
  C  C210  1  0.13795000  0.13015000  0.11265000  1
  C  C211  1  0.13795000  0.86985000  0.38735000  1
  C  C212  1  0.14030000  0.39710000  0.47463000  1
  C  C213  1  0.14030000  0.60290000  0.02537000  1
  C  C214  1  0.14260000  0.05026000  0.53504000  1
  C  C215  1  0.14260000  0.94974000  0.96496000  1
  C  C216  1  0.14420000  0.02579000  0.14040000  1
  C  C217  1  0.14420000  0.97421000  0.35960000  1
  C  C218  1  0.14981000  0.09240000  0.14118000  1
  C  C219  1  0.14981000  0.90760000  0.35882000  1
  C  C220  1  0.15612000  0.01444000  0.32782000  1
  C  C221  1  0.15612000  0.98556000  0.17218000  1
  C  C222  1  0.16540000  0.01127000  0.90428000  1
  C  C223  1  0.16540000  0.98873000  0.59572000  1
  C  C224  1  0.16850000  0.09925000  0.72208000  1
  C  C225  1  0.16850000  0.90075000  0.77792000  1
  C  C226  1  0.18147000  0.03613000  0.87054000  1
  C  C227  1  0.18147000  0.96387000  0.62946000  1
  C  C228  1  0.18149000  0.07736000  0.78263000  1
  C  C229  1  0.18149000  0.92264000  0.71737000  1
  C  C230  1  0.19707000  0.05180000  0.84345000  1
  C  C231  1  0.19707000  0.94820000  0.65655000  1
  C  C232  1  0.20420000  0.04664000  0.54799000  1
  C  C233  1  0.20420000  0.95336000  0.95201000  1
  C  C234  1  0.21070000  0.08904000  0.75092000  1
  C  C235  1  0.21070000  0.91096000  0.74908000  1
  C  C236  1  0.21630000  0.01760000  0.57837000  1
  C  C237  1  0.21630000  0.98240000  0.92163000  1
  C  C238  1  0.22430000  0.06817000  0.81033000  1
  C  C239  1  0.22430000  0.93183000  0.68967000  1
  C  C240  1  0.27770000  0.11050000  0.26641000  1
  C  C241  1  0.27770000  0.88950000  0.23359000  1
  C  C242  1  0.27840000  0.09400000  0.74756000  1
  C  C243  1  0.27840000  0.90600000  0.75244000  1
  C  C244  1  0.29220000  0.07166000  0.80730000  1
  C  C245  1  0.29220000  0.92834000  0.69270000  1
  C  C246  1  0.32040000  0.08430000  0.77445000  1
  C  C247  1  0.32040000  0.91570000  0.72555000  1
  C  C248  1  0.35100000  0.10756000  0.25626000  1
  C  C249  1  0.35100000  0.89244000  0.24374000  1
  C  C250  1  0.37170000  0.07170000  0.22802000  1
  C  C251  1  0.37170000  0.92830000  0.27198000  1
  C  C252  1  0.38480000  0.09060000  0.77107000  1
  C  C253  1  0.38480000  0.90940000  0.72893000  1
  C  C254  1  0.39710000  0.14030000  0.27537000  1
  C  C255  1  0.39710000  0.85970000  0.22463000  1
  C  C256  1  0.43480000  0.06590000  0.22098000  1
  C  C257  1  0.43480000  0.93410000  0.27902000  1
  C  C258  1  0.44400000  0.09250000  0.76690000  1
  C  C259  1  0.44400000  0.90750000  0.73310000  1
  C  C260  1  0.46250000  0.13710000  0.26802000  1
  C  C261  1  0.46250000  0.86290000  0.23198000  1
  C  C262  1  0.48330000  0.10100000  0.24131000  1
  C  C263  1  0.48330000  0.89900000  0.25869000  1
  C  C264  1  0.51670000  0.10100000  0.75869000  1
  C  C265  1  0.51670000  0.89900000  0.74131000  1
  C  C266  1  0.53750000  0.13710000  0.73198000  1
  C  C267  1  0.53750000  0.86290000  0.76802000  1
  C  C268  1  0.55600000  0.09250000  0.23310000  1
  C  C269  1  0.55600000  0.90750000  0.26690000  1
  C  C270  1  0.56520000  0.06590000  0.77902000  1
  C  C271  1  0.56520000  0.93410000  0.72098000  1
  C  C272  1  0.60290000  0.14030000  0.72463000  1
  C  C273  1  0.60290000  0.85970000  0.77537000  1
  C  C274  1  0.61520000  0.09060000  0.22893000  1
  C  C275  1  0.61520000  0.90940000  0.27107000  1
  C  C276  1  0.62830000  0.07170000  0.77198000  1
  C  C277  1  0.62830000  0.92830000  0.72802000  1
  C  C278  1  0.64900000  0.10756000  0.74374000  1
  C  C279  1  0.64900000  0.89244000  0.75626000  1
  C  C280  1  0.67960000  0.08430000  0.22555000  1
  C  C281  1  0.67960000  0.91570000  0.27445000  1
  C  C282  1  0.70780000  0.07166000  0.19270000  1
  C  C283  1  0.70780000  0.92834000  0.30730000  1
  C  C284  1  0.72160000  0.09400000  0.25244000  1
  C  C285  1  0.72160000  0.90600000  0.24756000  1
  C  C286  1  0.72230000  0.11050000  0.73359000  1
  C  C287  1  0.72230000  0.88950000  0.76641000  1
  C  C288  1  0.77570000  0.06817000  0.18967000  1
  C  C289  1  0.77570000  0.93183000  0.31033000  1
  C  C290  1  0.78370000  0.01760000  0.42163000  1
  C  C291  1  0.78370000  0.98240000  0.07837000  1
  C  C292  1  0.78930000  0.08904000  0.24908000  1
  C  C293  1  0.78930000  0.91096000  0.25092000  1
  C  C294  1  0.79580000  0.04664000  0.45201000  1
  C  C295  1  0.79580000  0.95336000  0.04799000  1
  C  C296  1  0.80293000  0.05180000  0.15655000  1
  C  C297  1  0.80293000  0.94820000  0.34345000  1
  C  C298  1  0.81851000  0.07736000  0.21737000  1
  C  C299  1  0.81851000  0.92264000  0.28263000  1
  C  C300  1  0.81853000  0.03613000  0.12946000  1
  C  C301  1  0.81853000  0.96387000  0.37054000  1
  C  C302  1  0.83150000  0.09925000  0.27792000  1
  C  C303  1  0.83150000  0.90075000  0.22208000  1
  C  C304  1  0.83460000  0.01127000  0.09572000  1
  C  C305  1  0.83460000  0.98873000  0.40428000  1
  C  C306  1  0.84388000  0.01444000  0.67218000  1
  C  C307  1  0.84388000  0.98556000  0.82782000  1
  C  C308  1  0.85019000  0.09240000  0.85882000  1
  C  C309  1  0.85019000  0.90760000  0.64118000  1
  C  C310  1  0.85580000  0.02579000  0.85960000  1
  C  C311  1  0.85580000  0.97421000  0.64040000  1
  C  C312  1  0.85740000  0.05026000  0.46496000  1
  C  C313  1  0.85740000  0.94974000  0.03504000  1
  C  C314  1  0.85970000  0.39710000  0.52537000  1
  C  C315  1  0.85970000  0.60290000  0.97463000  1
  C  C316  1  0.86205000  0.13015000  0.88735000  1
  C  C317  1  0.86205000  0.86985000  0.61265000  1
  C  C318  1  0.86290000  0.46250000  0.51802000  1
  C  C319  1  0.86290000  0.53750000  0.98198000  1
  C  C320  1  0.86365000  0.10723000  0.30212000  1
  C  C321  1  0.86365000  0.89277000  0.19788000  1
  C  C322  1  0.86985000  0.13795000  0.36265000  1
  C  C323  1  0.86985000  0.86205000  0.13735000  1
  C  C324  1  0.87380000  0.08670000  0.49735000  1
  C  C325  1  0.87380000  0.91330000  0.00265000  1
  C  C326  1  0.87409000  0.00774000  0.61093000  1
  C  C327  1  0.87409000  0.99226000  0.88907000  1
  C  C328  1  0.88077000  0.09740000  0.91751000  1
  C  C329  1  0.88077000  0.90260000  0.58249000  1
  C  C330  1  0.88593000  0.02960000  0.91808000  1
  C  C331  1  0.88593000  0.97040000  0.58192000  1
  C  C332  1  0.88950000  0.27770000  0.51641000  1
  C  C333  1  0.88950000  0.72230000  0.98359000  1
  C  C334  1  0.89244000  0.35100000  0.50626000  1
  C  C335  1  0.89244000  0.64900000  0.99374000  1
  C  C336  1  0.89277000  0.13635000  0.94788000  1
  C  C337  1  0.89277000  0.86365000  0.55212000  1
  C  C338  1  0.89790000  0.01224000  0.08275000  1
  C  C339  1  0.89790000  0.98776000  0.41725000  1
  C  C340  1  0.89900000  0.48330000  0.49131000  1
  C  C341  1  0.89900000  0.51670000  0.00869000  1
  C  C342  1  0.90075000  0.16850000  0.97208000  1
  C  C343  1  0.90075000  0.83150000  0.52792000  1
  C  C344  1  0.90260000  0.11923000  0.33249000  1
  C  C345  1  0.90260000  0.88077000  0.16751000  1
  C  C346  1  0.90600000  0.27840000  0.99756000  1
  C  C347  1  0.90600000  0.72160000  0.50244000  1
  C  C348  1  0.90750000  0.44400000  0.01690000  1
  C  C349  1  0.90750000  0.55600000  0.48310000  1
  C  C350  1  0.90760000  0.14981000  0.39118000  1
  C  C351  1  0.90760000  0.85019000  0.10882000  1
  C  C352  1  0.90924000  0.01694000  0.44755000  1
  C  C353  1  0.90924000  0.98306000  0.05245000  1
  C  C354  1  0.90940000  0.38480000  0.02107000  1
  C  C355  1  0.90940000  0.61520000  0.47893000  1
  C  C356  1  0.91096000  0.21070000  0.00092000  1
  C  C357  1  0.91096000  0.78930000  0.49908000  1
  C  C358  1  0.91330000  0.12620000  0.75265000  1
  C  C359  1  0.91330000  0.87380000  0.74735000  1
  C  C360  1  0.91570000  0.32040000  0.02445000  1
  C  C361  1  0.91570000  0.67960000  0.47555000  1
  C  C362  1  0.92264000  0.18149000  0.03263000  1
  C  C363  1  0.92264000  0.81851000  0.46737000  1
  C  C364  1  0.92830000  0.37170000  0.47802000  1
  C  C365  1  0.92830000  0.62830000  0.02198000  1
  C  C366  1  0.92834000  0.29220000  0.05730000  1
  C  C367  1  0.92834000  0.70780000  0.44270000  1
  C  C368  1  0.93183000  0.22430000  0.06033000  1
  C  C369  1  0.93183000  0.77570000  0.43967000  1
  C  C370  1  0.93410000  0.43480000  0.47098000  1
  C  C371  1  0.93410000  0.56520000  0.02902000  1
  C  C372  1  0.94820000  0.19707000  0.09345000  1
  C  C373  1  0.94820000  0.80293000  0.40655000  1
  C  C374  1  0.94974000  0.14260000  0.78504000  1
  C  C375  1  0.94974000  0.85740000  0.71496000  1
  C  C376  1  0.95336000  0.20420000  0.79799000  1
  C  C377  1  0.95336000  0.79580000  0.70201000  1
  C  C378  1  0.96387000  0.18147000  0.12054000  1
  C  C379  1  0.96387000  0.81853000  0.37946000  1
  C  C380  1  0.97040000  0.11407000  0.33192000  1
  C  C381  1  0.97040000  0.88593000  0.16808000  1
  C  C382  1  0.97421000  0.14420000  0.39040000  1
  C  C383  1  0.97421000  0.85580000  0.10960000  1
  C  C384  1  0.98240000  0.21630000  0.82837000  1
  C  C385  1  0.98240000  0.78370000  0.67163000  1
  C  C386  1  0.98306000  0.09076000  0.80245000  1
  C  C387  1  0.98306000  0.90924000  0.69755000  1
  C  C388  1  0.98556000  0.15612000  0.57782000  1
  C  C389  1  0.98556000  0.84388000  0.92218000  1
  C  C390  1  0.98776000  0.10210000  0.16725000  1
  C  C391  1  0.98776000  0.89790000  0.33275000  1
  C  C392  1  0.98873000  0.16540000  0.15428000  1
  C  C393  1  0.98873000  0.83460000  0.34572000  1
  C  C394  1  0.99226000  0.12591000  0.63907000  1
  C  C395  1  0.99226000  0.87409000  0.86093000  1
  O  O396  1  0.01580000  0.16968000  0.55166000  1
  O  O397  1  0.01580000  0.83032000  0.94834000  1
  O  O398  1  0.06920000  0.09326000  0.49296000  1
  O  O399  1  0.06920000  0.90674000  0.00704000  1
  O  O400  1  0.07150000  0.23936000  0.50008000  1
  O  O401  1  0.07150000  0.76064000  0.99992000  1
  O  O402  1  0.07614000  0.15036000  0.41866000  1
  O  O403  1  0.07614000  0.84964000  0.08134000  1
  O  O404  1  0.09326000  0.06920000  0.25704000  1
  O  O405  1  0.09326000  0.93080000  0.24296000  1
  O  O406  1  0.10922000  0.17329000  0.26274000  1
  O  O407  1  0.10922000  0.82671000  0.23726000  1
  O  O408  1  0.14902000  0.26315000  0.46111000  1
  O  O409  1  0.14902000  0.73685000  0.03889000  1
  O  O410  1  0.15036000  0.07614000  0.33134000  1
  O  O411  1  0.15036000  0.92386000  0.16866000  1
  O  O412  1  0.16968000  0.01580000  0.19834000  1
  O  O413  1  0.16968000  0.98420000  0.30166000  1
  O  O414  1  0.17329000  0.10922000  0.48726000  1
  O  O415  1  0.17329000  0.89078000  0.01274000  1
  O  O416  1  0.23936000  0.07150000  0.24992000  1
  O  O417  1  0.23936000  0.92850000  0.25008000  1
  O  O418  1  0.26315000  0.14902000  0.28889000  1
  O  O419  1  0.26315000  0.85098000  0.21111000  1
  O  O420  1  0.73685000  0.14902000  0.71111000  1
  O  O421  1  0.73685000  0.85098000  0.78889000  1
  O  O422  1  0.76064000  0.07150000  0.75008000  1
  O  O423  1  0.76064000  0.92850000  0.74992000  1
  O  O424  1  0.82671000  0.10922000  0.51274000  1
  O  O425  1  0.82671000  0.89078000  0.98726000  1
  O  O426  1  0.83032000  0.01580000  0.80166000  1
  O  O427  1  0.83032000  0.98420000  0.69834000  1
  O  O428  1  0.84964000  0.07614000  0.66866000  1
  O  O429  1  0.84964000  0.92386000  0.83134000  1
  O  O430  1  0.85098000  0.26315000  0.53889000  1
  O  O431  1  0.85098000  0.73685000  0.96111000  1
  O  O432  1  0.89078000  0.17329000  0.73726000  1
  O  O433  1  0.89078000  0.82671000  0.76274000  1
  O  O434  1  0.90674000  0.06920000  0.74296000  1
  O  O435  1  0.90674000  0.93080000  0.75704000  1
  O  O436  1  0.92386000  0.15036000  0.58134000  1
  O  O437  1  0.92386000  0.84964000  0.91866000  1
  O  O438  1  0.92850000  0.23936000  0.49992000  1
  O  O439  1  0.92850000  0.76064000  0.00008000  1
  O  O440  1  0.93080000  0.09326000  0.50704000  1
  O  O441  1  0.93080000  0.90674000  0.99296000  1
  O  O442  1  0.98420000  0.16968000  0.44834000  1
  O  O443  1  0.98420000  0.83032000  0.05166000  1
