# generated using pymatgen
data_CoPO4
_symmetry_space_group_name_H-M   'P 1'
_cell_length_a   13.36100000
_cell_length_b   13.78900000
_cell_length_c   14.01700000
_cell_angle_alpha   90.00000000
_cell_angle_beta   90.00000000
_cell_angle_gamma   90.00000000
_symmetry_Int_Tables_number   1
_chemical_formula_structural   CoPO4
_chemical_formula_sum   'Co20 P20 O80'
_cell_volume   2582.41959809
_cell_formula_units_Z   20
loop_
 _symmetry_equiv_pos_site_id
 _symmetry_equiv_pos_as_xyz
  1  'x, y, z'
loop_
 _atom_site_type_symbol
 _atom_site_label
 _atom_site_symmetry_multiplicity
 _atom_site_fract_x
 _atom_site_fract_y
 _atom_site_fract_z
 _atom_site_occupancy
  Co  Co0  1  0.06481000  0.24069000  0.85827000  1
  Co  Co1  1  0.12686000  0.74059000  0.48491000  1
  Co  Co2  1  0.12796000  0.77507000  0.23757000  1
  Co  Co3  1  0.22359000  0.63222000  0.87807000  1
  Co  Co4  1  0.24194000  0.87372000  0.84276000  1
  Co  Co5  1  0.25806000  0.37372000  0.34276000  1
  Co  Co6  1  0.27641000  0.13222000  0.37807000  1
  Co  Co7  1  0.37204000  0.27507000  0.73757000  1
  Co  Co8  1  0.37314000  0.24059000  0.98491000  1
  Co  Co9  1  0.43519000  0.74069000  0.35827000  1
  Co  Co10  1  0.56481000  0.25931000  0.35827000  1
  Co  Co11  1  0.62686000  0.75941000  0.98491000  1
  Co  Co12  1  0.62796000  0.72493000  0.73757000  1
  Co  Co13  1  0.72359000  0.86778000  0.37807000  1
  Co  Co14  1  0.74194000  0.62628000  0.34276000  1
  Co  Co15  1  0.75806000  0.12628000  0.84276000  1
  Co  Co16  1  0.77641000  0.36778000  0.87807000  1
  Co  Co17  1  0.87204000  0.22493000  0.23757000  1
  Co  Co18  1  0.87314000  0.25941000  0.48491000  1
  Co  Co19  1  0.93519000  0.75931000  0.85827000  1
  P  P20  1  0.06951000  0.24160000  0.36200000  1
  P  P21  1  0.10720000  0.73900000  0.71630000  1
  P  P22  1  0.11270000  0.78210000  0.00650000  1
  P  P23  1  0.24011000  0.39223000  0.88420000  1
  P  P24  1  0.24337000  0.61120000  0.33250000  1
  P  P25  1  0.25663000  0.11120000  0.83250000  1
  P  P26  1  0.25989000  0.89223000  0.38420000  1
  P  P27  1  0.38730000  0.28210000  0.50650000  1
  P  P28  1  0.39280000  0.23900000  0.21630000  1
  P  P29  1  0.43049000  0.74160000  0.86200000  1
  P  P30  1  0.56951000  0.25840000  0.86200000  1
  P  P31  1  0.60720000  0.76100000  0.21630000  1
  P  P32  1  0.61270000  0.71790000  0.50650000  1
  P  P33  1  0.74011000  0.10777000  0.38420000  1
  P  P34  1  0.74337000  0.88880000  0.83250000  1
  P  P35  1  0.75663000  0.38880000  0.33250000  1
  P  P36  1  0.75989000  0.60777000  0.88420000  1
  P  P37  1  0.88730000  0.21790000  0.00650000  1
  P  P38  1  0.89280000  0.26100000  0.71630000  1
  P  P39  1  0.93049000  0.75840000  0.36200000  1
  O  O40  1  0.00490000  0.20850000  0.44430000  1
  O  O41  1  0.00680000  0.26360000  0.27340000  1
  O  O42  1  0.00700000  0.74640000  0.97980000  1
  O  O43  1  0.00960000  0.79250000  0.74110000  1
  O  O44  1  0.10200000  0.70140000  0.61330000  1
  O  O45  1  0.11260000  0.81940000  0.10780000  1
  O  O46  1  0.11920000  0.65270000  0.78520000  1
  O  O47  1  0.12760000  0.33340000  0.39060000  1
  O  O48  1  0.14070000  0.86740000  0.94180000  1
  O  O49  1  0.14100000  0.15830000  0.33670000  1
  O  O50  1  0.14290000  0.35710000  0.83590000  1
  O  O51  1  0.15550000  0.13100000  0.87820000  1
  O  O52  1  0.15840000  0.62940000  0.40240000  1
  O  O53  1  0.17270000  0.88580000  0.31410000  1
  O  O54  1  0.19100000  0.70080000  0.99730000  1
  O  O55  1  0.19670000  0.80810000  0.72600000  1
  O  O56  1  0.22580000  0.49730000  0.91650000  1
  O  O57  1  0.23070000  0.67430000  0.24350000  1
  O  O58  1  0.23810000  0.50600000  0.29810000  1
  O  O59  1  0.23850000  0.83210000  0.47490000  1
  O  O60  1  0.26150000  0.33210000  0.97490000  1
  O  O61  1  0.26190000  0.00600000  0.79810000  1
  O  O62  1  0.26930000  0.17430000  0.74350000  1
  O  O63  1  0.27420000  0.99730000  0.41650000  1
  O  O64  1  0.30330000  0.30810000  0.22600000  1
  O  O65  1  0.30900000  0.20080000  0.49730000  1
  O  O66  1  0.32730000  0.38580000  0.81410000  1
  O  O67  1  0.34160000  0.12940000  0.90240000  1
  O  O68  1  0.34450000  0.63100000  0.37820000  1
  O  O69  1  0.35710000  0.85710000  0.33590000  1
  O  O70  1  0.35900000  0.65830000  0.83670000  1
  O  O71  1  0.35930000  0.36740000  0.44180000  1
  O  O72  1  0.37240000  0.83340000  0.89060000  1
  O  O73  1  0.38080000  0.15270000  0.28520000  1
  O  O74  1  0.38740000  0.31940000  0.60780000  1
  O  O75  1  0.39800000  0.20140000  0.11330000  1
  O  O76  1  0.49040000  0.29250000  0.24110000  1
  O  O77  1  0.49300000  0.24640000  0.47980000  1
  O  O78  1  0.49320000  0.76360000  0.77340000  1
  O  O79  1  0.49510000  0.70850000  0.94430000  1
  O  O80  1  0.50490000  0.29150000  0.94430000  1
  O  O81  1  0.50680000  0.23640000  0.77340000  1
  O  O82  1  0.50700000  0.75360000  0.47980000  1
  O  O83  1  0.50960000  0.70750000  0.24110000  1
  O  O84  1  0.60200000  0.79860000  0.11330000  1
  O  O85  1  0.61260000  0.68060000  0.60780000  1
  O  O86  1  0.61920000  0.84730000  0.28520000  1
  O  O87  1  0.62760000  0.16660000  0.89060000  1
  O  O88  1  0.64070000  0.63260000  0.44180000  1
  O  O89  1  0.64100000  0.34170000  0.83670000  1
  O  O90  1  0.64290000  0.14290000  0.33590000  1
  O  O91  1  0.65550000  0.36900000  0.37820000  1
  O  O92  1  0.65840000  0.87060000  0.90240000  1
  O  O93  1  0.67270000  0.61420000  0.81410000  1
  O  O94  1  0.69100000  0.79920000  0.49730000  1
  O  O95  1  0.69670000  0.69190000  0.22600000  1
  O  O96  1  0.72580000  0.00270000  0.41650000  1
  O  O97  1  0.73070000  0.82570000  0.74350000  1
  O  O98  1  0.73810000  0.99400000  0.79810000  1
  O  O99  1  0.73850000  0.66790000  0.97490000  1
  O  O100  1  0.76150000  0.16790000  0.47490000  1
  O  O101  1  0.76190000  0.49400000  0.29810000  1
  O  O102  1  0.76930000  0.32570000  0.24350000  1
  O  O103  1  0.77420000  0.50270000  0.91650000  1
  O  O104  1  0.80330000  0.19190000  0.72600000  1
  O  O105  1  0.80900000  0.29920000  0.99730000  1
  O  O106  1  0.82730000  0.11420000  0.31410000  1
  O  O107  1  0.84160000  0.37060000  0.40240000  1
  O  O108  1  0.84450000  0.86900000  0.87820000  1
  O  O109  1  0.85710000  0.64290000  0.83590000  1
  O  O110  1  0.85900000  0.84170000  0.33670000  1
  O  O111  1  0.85930000  0.13260000  0.94180000  1
  O  O112  1  0.87240000  0.66666667  0.39060000  1
  O  O113  1  0.88080000  0.34730000  0.78520000  1
  O  O114  1  0.88740000  0.18060000  0.10780000  1
  O  O115  1  0.89800000  0.29860000  0.61330000  1
  O  O116  1  0.99040000  0.20750000  0.74110000  1
  O  O117  1  0.99300000  0.25360000  0.97980000  1
  O  O118  1  0.99320000  0.73640000  0.27340000  1
  O  O119  1  0.99510000  0.79150000  0.44430000  1
