# generated using pymatgen
data_ZnSiH48C44N4(O4F3)2
_symmetry_space_group_name_H-M   'P 1'
_cell_length_a   15.15130000
_cell_length_b   22.04400000
_cell_length_c   22.04400000
_cell_angle_alpha   90.00000000
_cell_angle_beta   90.00000000
_cell_angle_gamma   90.00000000
_symmetry_Int_Tables_number   1
_chemical_formula_structural   ZnSiH48C44N4(O4F3)2
_chemical_formula_sum   'Zn4 Si4 H192 C176 N16 O32 F24'
_cell_volume   7362.59144972
_cell_formula_units_Z   4
loop_
 _symmetry_equiv_pos_site_id
 _symmetry_equiv_pos_as_xyz
  1  'x, y, z'
loop_
 _atom_site_type_symbol
 _atom_site_label
 _atom_site_symmetry_multiplicity
 _atom_site_fract_x
 _atom_site_fract_y
 _atom_site_fract_z
 _atom_site_occupancy
  Zn  Zn0  1  0.00054000  0.00000000  0.00000000  1
  Zn  Zn1  1  0.48711000  0.50000000  0.50000000  1
  Zn  Zn2  1  0.50239000  0.00000000  0.00000000  1
  Zn  Zn3  1  0.98571000  0.50000000  0.50000000  1
  Si  Si4  1  0.23700000  0.50000000  0.50000000  1
  Si  Si5  1  0.24880000  0.00000000  0.00000000  1
  Si  Si6  1  0.73710000  0.50000000  0.50000000  1
  Si  Si7  1  0.75200000  0.00000000  0.00000000  1
  H  H8  1  0.00480000  0.00170000  0.41920000  1
  H  H9  1  0.00480000  0.41920000  0.99830000  1
  H  H10  1  0.00480000  0.58080000  0.00170000  1
  H  H11  1  0.00480000  0.99830000  0.58080000  1
  H  H12  1  0.01660000  0.13640000  0.62620000  1
  H  H13  1  0.01660000  0.37380000  0.13640000  1
  H  H14  1  0.01660000  0.62620000  0.86360000  1
  H  H15  1  0.01660000  0.86360000  0.37380000  1
  H  H16  1  0.02750000  0.03020000  0.31730000  1
  H  H17  1  0.02750000  0.31730000  0.96980000  1
  H  H18  1  0.02750000  0.68270000  0.03020000  1
  H  H19  1  0.02750000  0.96980000  0.68270000  1
  H  H20  1  0.04030000  0.14310000  0.53520000  1
  H  H21  1  0.04030000  0.46480000  0.14310000  1
  H  H22  1  0.04030000  0.53520000  0.85690000  1
  H  H23  1  0.04030000  0.85690000  0.46480000  1
  H  H24  1  0.05550000  0.13090000  0.37530000  1
  H  H25  1  0.05550000  0.37530000  0.86910000  1
  H  H26  1  0.05550000  0.62470000  0.13090000  1
  H  H27  1  0.05550000  0.86910000  0.62470000  1
  H  H28  1  0.06830000  0.03020000  0.71160000  1
  H  H29  1  0.06830000  0.28840000  0.03020000  1
  H  H30  1  0.06830000  0.71160000  0.96980000  1
  H  H31  1  0.06830000  0.96980000  0.28840000  1
  H  H32  1  0.07600000  0.19600000  0.49200000  1
  H  H33  1  0.07600000  0.49200000  0.80400000  1
  H  H34  1  0.07600000  0.50800000  0.19600000  1
  H  H35  1  0.07600000  0.80400000  0.50800000  1
  H  H36  1  0.08450000  0.10310000  0.67180000  1
  H  H37  1  0.08450000  0.32820000  0.10310000  1
  H  H38  1  0.08450000  0.67180000  0.89690000  1
  H  H39  1  0.08450000  0.89690000  0.32820000  1
  H  H40  1  0.08830000  0.30600000  0.39570000  1
  H  H41  1  0.08830000  0.39570000  0.69400000  1
  H  H42  1  0.08830000  0.60430000  0.30600000  1
  H  H43  1  0.08830000  0.69400000  0.60430000  1
  H  H44  1  0.09050000  0.38220000  0.46960000  1
  H  H45  1  0.09050000  0.46960000  0.61780000  1
  H  H46  1  0.09050000  0.53040000  0.38220000  1
  H  H47  1  0.09050000  0.61780000  0.53040000  1
  H  H48  1  0.09440000  0.01050000  0.64400000  1
  H  H49  1  0.09440000  0.35600000  0.01050000  1
  H  H50  1  0.09440000  0.64400000  0.98950000  1
  H  H51  1  0.09440000  0.98950000  0.35600000  1
  H  H52  1  0.09570000  0.11500000  0.18890000  1
  H  H53  1  0.09570000  0.18890000  0.88500000  1
  H  H54  1  0.09570000  0.81110000  0.11500000  1
  H  H55  1  0.09570000  0.88500000  0.81110000  1
  H  H56  1  0.09930000  0.04030000  0.11300000  1
  H  H57  1  0.09930000  0.11300000  0.95970000  1
  H  H58  1  0.09930000  0.88700000  0.04030000  1
  H  H59  1  0.09930000  0.95970000  0.88700000  1
  H  H60  1  0.38290000  0.18570000  0.50990000  1
  H  H61  1  0.38290000  0.49010000  0.18570000  1
  H  H62  1  0.38290000  0.50990000  0.81430000  1
  H  H63  1  0.38290000  0.81430000  0.49010000  1
  H  H64  1  0.38470000  0.39080000  0.45700000  1
  H  H65  1  0.38470000  0.45700000  0.60920000  1
  H  H66  1  0.38470000  0.54300000  0.39080000  1
  H  H67  1  0.38470000  0.60920000  0.54300000  1
  H  H68  1  0.38760000  0.31170000  0.38870000  1
  H  H69  1  0.38760000  0.38870000  0.68830000  1
  H  H70  1  0.38760000  0.61130000  0.31170000  1
  H  H71  1  0.38760000  0.68830000  0.61130000  1
  H  H72  1  0.39010000  0.01170000  0.33470000  1
  H  H73  1  0.39010000  0.33470000  0.98830000  1
  H  H74  1  0.39010000  0.66530000  0.01170000  1
  H  H75  1  0.39010000  0.98830000  0.66530000  1
  H  H76  1  0.39730000  0.10270000  0.19440000  1
  H  H77  1  0.39730000  0.19440000  0.89730000  1
  H  H78  1  0.39730000  0.80560000  0.10270000  1
  H  H79  1  0.39730000  0.89730000  0.80560000  1
  H  H80  1  0.39810000  0.03050000  0.11660000  1
  H  H81  1  0.39810000  0.11660000  0.96950000  1
  H  H82  1  0.39810000  0.88340000  0.03050000  1
  H  H83  1  0.39810000  0.96950000  0.88340000  1
  H  H84  1  0.40450000  0.16520000  0.61210000  1
  H  H85  1  0.40450000  0.38790000  0.16520000  1
  H  H86  1  0.40450000  0.61210000  0.83480000  1
  H  H87  1  0.40450000  0.83480000  0.38790000  1
  H  H88  1  0.44420000  0.12650000  0.36810000  1
  H  H89  1  0.44420000  0.36810000  0.87350000  1
  H  H90  1  0.44420000  0.63190000  0.12650000  1
  H  H91  1  0.44420000  0.87350000  0.63190000  1
  H  H92  1  0.44880000  0.01370000  0.27440000  1
  H  H93  1  0.44880000  0.27440000  0.98630000  1
  H  H94  1  0.44880000  0.72560000  0.01370000  1
  H  H95  1  0.44880000  0.98630000  0.72560000  1
  H  H96  1  0.45670000  0.17210000  0.45980000  1
  H  H97  1  0.45670000  0.45980000  0.82790000  1
  H  H98  1  0.45670000  0.54020000  0.17210000  1
  H  H99  1  0.45670000  0.82790000  0.54020000  1
  H  H100  1  0.46620000  0.03760000  0.67560000  1
  H  H101  1  0.46620000  0.32440000  0.03760000  1
  H  H102  1  0.46620000  0.67560000  0.96240000  1
  H  H103  1  0.46620000  0.96240000  0.32440000  1
  H  H104  1  0.46760000  0.22880000  0.50450000  1
  H  H105  1  0.46760000  0.49550000  0.22880000  1
  H  H106  1  0.46760000  0.50450000  0.77120000  1
  H  H107  1  0.46760000  0.77120000  0.49550000  1
  H  H108  1  0.48340000  0.12310000  0.63660000  1
  H  H109  1  0.48340000  0.36340000  0.12310000  1
  H  H110  1  0.48340000  0.63660000  0.87690000  1
  H  H111  1  0.48340000  0.87690000  0.36340000  1
  H  H112  1  0.48430000  0.22640000  0.35460000  1
  H  H113  1  0.48430000  0.35460000  0.77360000  1
  H  H114  1  0.48430000  0.64540000  0.22640000  1
  H  H115  1  0.48430000  0.77360000  0.64540000  1
  H  H116  1  0.50410000  0.14710000  0.73050000  1
  H  H117  1  0.50410000  0.26950000  0.14710000  1
  H  H118  1  0.50410000  0.73050000  0.85290000  1
  H  H119  1  0.50410000  0.85290000  0.26950000  1
  H  H120  1  0.52070000  0.05850000  0.55470000  1
  H  H121  1  0.52070000  0.44530000  0.05850000  1
  H  H122  1  0.52070000  0.55470000  0.94150000  1
  H  H123  1  0.52070000  0.94150000  0.44530000  1
  H  H124  1  0.53110000  0.06310000  0.43320000  1
  H  H125  1  0.53110000  0.43320000  0.93690000  1
  H  H126  1  0.53110000  0.56680000  0.06310000  1
  H  H127  1  0.53110000  0.93690000  0.56680000  1
  H  H128  1  0.54980000  0.13550000  0.36980000  1
  H  H129  1  0.54980000  0.36980000  0.86450000  1
  H  H130  1  0.54980000  0.63020000  0.13550000  1
  H  H131  1  0.54980000  0.86450000  0.63020000  1
  H  H132  1  0.56050000  0.15730000  0.54440000  1
  H  H133  1  0.56050000  0.45560000  0.15730000  1
  H  H134  1  0.56050000  0.54440000  0.84270000  1
  H  H135  1  0.56050000  0.84270000  0.45560000  1
  H  H136  1  0.57390000  0.03530000  0.33400000  1
  H  H137  1  0.57390000  0.33400000  0.96470000  1
  H  H138  1  0.57390000  0.66600000  0.03530000  1
  H  H139  1  0.57390000  0.96470000  0.66600000  1
  H  H140  1  0.59470000  0.38730000  0.53620000  1
  H  H141  1  0.59470000  0.46380000  0.38730000  1
  H  H142  1  0.59470000  0.53620000  0.61270000  1
  H  H143  1  0.59470000  0.61270000  0.46380000  1
  H  H144  1  0.60050000  0.31260000  0.60430000  1
  H  H145  1  0.60050000  0.39570000  0.31260000  1
  H  H146  1  0.60050000  0.60430000  0.68740000  1
  H  H147  1  0.60050000  0.68740000  0.39570000  1
  H  H148  1  0.60920000  0.11860000  0.81450000  1
  H  H149  1  0.60920000  0.18550000  0.11860000  1
  H  H150  1  0.60920000  0.81450000  0.88140000  1
  H  H151  1  0.60920000  0.88140000  0.18550000  1
  H  H152  1  0.61010000  0.04080000  0.88680000  1
  H  H153  1  0.61010000  0.11320000  0.04080000  1
  H  H154  1  0.61010000  0.88680000  0.95920000  1
  H  H155  1  0.61010000  0.95920000  0.11320000  1
  H  H156  1  0.87850000  0.31530000  0.61310000  1
  H  H157  1  0.87850000  0.38690000  0.31530000  1
  H  H158  1  0.87850000  0.61310000  0.68470000  1
  H  H159  1  0.87850000  0.68470000  0.38690000  1
  H  H160  1  0.88070000  0.38920000  0.53690000  1
  H  H161  1  0.88070000  0.46310000  0.38920000  1
  H  H162  1  0.88070000  0.53690000  0.61080000  1
  H  H163  1  0.88070000  0.61080000  0.46310000  1
  H  H164  1  0.88530000  0.10660000  0.81440000  1
  H  H165  1  0.88530000  0.18560000  0.10660000  1
  H  H166  1  0.88530000  0.81440000  0.89340000  1
  H  H167  1  0.88530000  0.89340000  0.18560000  1
  H  H168  1  0.89460000  0.03620000  0.88950000  1
  H  H169  1  0.89460000  0.11050000  0.03620000  1
  H  H170  1  0.89460000  0.88950000  0.96380000  1
  H  H171  1  0.89460000  0.96380000  0.11050000  1
  H  H172  1  0.91070000  0.03920000  0.66450000  1
  H  H173  1  0.91070000  0.33550000  0.03920000  1
  H  H174  1  0.91070000  0.66450000  0.96080000  1
  H  H175  1  0.91070000  0.96080000  0.33550000  1
  H  H176  1  0.91860000  0.15800000  0.45470000  1
  H  H177  1  0.91860000  0.45470000  0.84200000  1
  H  H178  1  0.91860000  0.54530000  0.15800000  1
  H  H179  1  0.91860000  0.84200000  0.54530000  1
  H  H180  1  0.93040000  0.06490000  0.45460000  1
  H  H181  1  0.93040000  0.45460000  0.93510000  1
  H  H182  1  0.93040000  0.54540000  0.06490000  1
  H  H183  1  0.93040000  0.93510000  0.54540000  1
  H  H184  1  0.95120000  0.12810000  0.36250000  1
  H  H185  1  0.95120000  0.36250000  0.87190000  1
  H  H186  1  0.95120000  0.63750000  0.12810000  1
  H  H187  1  0.95120000  0.87190000  0.63750000  1
  H  H188  1  0.96910000  0.22960000  0.64740000  1
  H  H189  1  0.96910000  0.35260000  0.22960000  1
  H  H190  1  0.96910000  0.64740000  0.77040000  1
  H  H191  1  0.96910000  0.77040000  0.35260000  1
  H  H192  1  0.98140000  0.20220000  0.52370000  1
  H  H193  1  0.98140000  0.47630000  0.20220000  1
  H  H194  1  0.98140000  0.52370000  0.79780000  1
  H  H195  1  0.98140000  0.79780000  0.47630000  1
  H  H196  1  0.99430000  0.14550000  0.27250000  1
  H  H197  1  0.99430000  0.27250000  0.85450000  1
  H  H198  1  0.99430000  0.72750000  0.14550000  1
  H  H199  1  0.99430000  0.85450000  0.72750000  1
  C  C200  1  0.02150000  0.10920000  0.66180000  1
  C  C201  1  0.02150000  0.33820000  0.10920000  1
  C  C202  1  0.02150000  0.66180000  0.89080000  1
  C  C203  1  0.02150000  0.89080000  0.33820000  1
  C  C204  1  0.02330000  0.17390000  0.50530000  1
  C  C205  1  0.02330000  0.49470000  0.17390000  1
  C  C206  1  0.02330000  0.50530000  0.82610000  1
  C  C207  1  0.02330000  0.82610000  0.49470000  1
  C  C208  1  0.04620000  0.33790000  0.39440000  1
  C  C209  1  0.04620000  0.39440000  0.66210000  1
  C  C210  1  0.04620000  0.60560000  0.33790000  1
  C  C211  1  0.04620000  0.66210000  0.60560000  1
  C  C212  1  0.04680000  0.01130000  0.67410000  1
  C  C213  1  0.04680000  0.32590000  0.01130000  1
  C  C214  1  0.04680000  0.67410000  0.98870000  1
  C  C215  1  0.04680000  0.98870000  0.32590000  1
  C  C216  1  0.04750000  0.38310000  0.43830000  1
  C  C217  1  0.04750000  0.43830000  0.61690000  1
  C  C218  1  0.04750000  0.56170000  0.38310000  1
  C  C219  1  0.04750000  0.61690000  0.56170000  1
  C  C220  1  0.05410000  0.11610000  0.15670000  1
  C  C221  1  0.05410000  0.15670000  0.88390000  1
  C  C222  1  0.05410000  0.84330000  0.11610000  1
  C  C223  1  0.05410000  0.88390000  0.84330000  1
  C  C224  1  0.05510000  0.07090000  0.11130000  1
  C  C225  1  0.05510000  0.11130000  0.92910000  1
  C  C226  1  0.05510000  0.88870000  0.07090000  1
  C  C227  1  0.05510000  0.92910000  0.88870000  1
  C  C228  1  0.42970000  0.34360000  0.38620000  1
  C  C229  1  0.42970000  0.38620000  0.65640000  1
  C  C230  1  0.42970000  0.61380000  0.34360000  1
  C  C231  1  0.42970000  0.65640000  0.61380000  1
  C  C232  1  0.43110000  0.38980000  0.42800000  1
  C  C233  1  0.43110000  0.42800000  0.61020000  1
  C  C234  1  0.43110000  0.57200000  0.38980000  1
  C  C235  1  0.43110000  0.61020000  0.57200000  1
  C  C236  1  0.44050000  0.10490000  0.16320000  1
  C  C237  1  0.44050000  0.16320000  0.89510000  1
  C  C238  1  0.44050000  0.83680000  0.10490000  1
  C  C239  1  0.44050000  0.89510000  0.83680000  1
  C  C240  1  0.44100000  0.06190000  0.11700000  1
  C  C241  1  0.44100000  0.11700000  0.93810000  1
  C  C242  1  0.44100000  0.88300000  0.06190000  1
  C  C243  1  0.44100000  0.93810000  0.88300000  1
  C  C244  1  0.44630000  0.18700000  0.50110000  1
  C  C245  1  0.44630000  0.49890000  0.18700000  1
  C  C246  1  0.44630000  0.50110000  0.81300000  1
  C  C247  1  0.44630000  0.81300000  0.49890000  1
  C  C248  1  0.44920000  0.00480000  0.31790000  1
  C  C249  1  0.44920000  0.31790000  0.99520000  1
  C  C250  1  0.44920000  0.68210000  0.00480000  1
  C  C251  1  0.44920000  0.99520000  0.68210000  1
  C  C252  1  0.46900000  0.15820000  0.61030000  1
  C  C253  1  0.46900000  0.38970000  0.15820000  1
  C  C254  1  0.46900000  0.61030000  0.84180000  1
  C  C255  1  0.46900000  0.84180000  0.38970000  1
  C  C256  1  0.48830000  0.23510000  0.31240000  1
  C  C257  1  0.48830000  0.31240000  0.76490000  1
  C  C258  1  0.48830000  0.68760000  0.23510000  1
  C  C259  1  0.48830000  0.76490000  0.68760000  1
  C  C260  1  0.49020000  0.18810000  0.27050000  1
  C  C261  1  0.49020000  0.27050000  0.81190000  1
  C  C262  1  0.49020000  0.72950000  0.18810000  1
  C  C263  1  0.49020000  0.81190000  0.72950000  1
  C  C264  1  0.49230000  0.29280000  0.70500000  1
  C  C265  1  0.49230000  0.29500000  0.29280000  1
  C  C266  1  0.49230000  0.70500000  0.70720000  1
  C  C267  1  0.49230000  0.70720000  0.29500000  1
  C  C268  1  0.49310000  0.33960000  0.65470000  1
  C  C269  1  0.49310000  0.34530000  0.33960000  1
  C  C270  1  0.49310000  0.65470000  0.66040000  1
  C  C271  1  0.49310000  0.66040000  0.34530000  1
  C  C272  1  0.49610000  0.20090000  0.20890000  1
  C  C273  1  0.49610000  0.20890000  0.79910000  1
  C  C274  1  0.49610000  0.79110000  0.20090000  1
  C  C275  1  0.49610000  0.79910000  0.79110000  1
  C  C276  1  0.49670000  0.14590000  0.54720000  1
  C  C277  1  0.49670000  0.45280000  0.14590000  1
  C  C278  1  0.49670000  0.54720000  0.85410000  1
  C  C279  1  0.49670000  0.85410000  0.45280000  1
  C  C280  1  0.49820000  0.23120000  0.69220000  1
  C  C281  1  0.49820000  0.30780000  0.23120000  1
  C  C282  1  0.49820000  0.69220000  0.76880000  1
  C  C283  1  0.49820000  0.76880000  0.30780000  1
  C  C284  1  0.50010000  0.18920000  0.73920000  1
  C  C285  1  0.50010000  0.26080000  0.18920000  1
  C  C286  1  0.50010000  0.73920000  0.81080000  1
  C  C287  1  0.50010000  0.81080000  0.26080000  1
  C  C288  1  0.50060000  0.11500000  0.34860000  1
  C  C289  1  0.50060000  0.34860000  0.88500000  1
  C  C290  1  0.50060000  0.65140000  0.11500000  1
  C  C291  1  0.50060000  0.88500000  0.65140000  1
  C  C292  1  0.50320000  0.15090000  0.16380000  1
  C  C293  1  0.50320000  0.16380000  0.84910000  1
  C  C294  1  0.50320000  0.83620000  0.15090000  1
  C  C295  1  0.50320000  0.84910000  0.83620000  1
  C  C296  1  0.51310000  0.04510000  0.34870000  1
  C  C297  1  0.51310000  0.34870000  0.95490000  1
  C  C298  1  0.51310000  0.65130000  0.04510000  1
  C  C299  1  0.51310000  0.95490000  0.65130000  1
  C  C300  1  0.55150000  0.38680000  0.56740000  1
  C  C301  1  0.55150000  0.43260000  0.38680000  1
  C  C302  1  0.55150000  0.56740000  0.61320000  1
  C  C303  1  0.55150000  0.61320000  0.43260000  1
  C  C304  1  0.55560000  0.34250000  0.60730000  1
  C  C305  1  0.55560000  0.39270000  0.34250000  1
  C  C306  1  0.55560000  0.60730000  0.65750000  1
  C  C307  1  0.55560000  0.65750000  0.39270000  1
  C  C308  1  0.56640000  0.11820000  0.84600000  1
  C  C309  1  0.56640000  0.15400000  0.11820000  1
  C  C310  1  0.56640000  0.84600000  0.88180000  1
  C  C311  1  0.56640000  0.88180000  0.15400000  1
  C  C312  1  0.56690000  0.07200000  0.88890000  1
  C  C313  1  0.56690000  0.11110000  0.07200000  1
  C  C314  1  0.56690000  0.88890000  0.92800000  1
  C  C315  1  0.56690000  0.92800000  0.11110000  1
  C  C316  1  0.92150000  0.34660000  0.61410000  1
  C  C317  1  0.92150000  0.38590000  0.34660000  1
  C  C318  1  0.92150000  0.61410000  0.65340000  1
  C  C319  1  0.92150000  0.65340000  0.38590000  1
  C  C320  1  0.92290000  0.39050000  0.56880000  1
  C  C321  1  0.92290000  0.43120000  0.39050000  1
  C  C322  1  0.92290000  0.56880000  0.60950000  1
  C  C323  1  0.92290000  0.60950000  0.43120000  1
  C  C324  1  0.93200000  0.10900000  0.84310000  1
  C  C325  1  0.93200000  0.15690000  0.10900000  1
  C  C326  1  0.93200000  0.84310000  0.89100000  1
  C  C327  1  0.93200000  0.89100000  0.15690000  1
  C  C328  1  0.93750000  0.06760000  0.88820000  1
  C  C329  1  0.93750000  0.11180000  0.06760000  1
  C  C330  1  0.93750000  0.88820000  0.93240000  1
  C  C331  1  0.93750000  0.93240000  0.11180000  1
  C  C332  1  0.97250000  0.04630000  0.65030000  1
  C  C333  1  0.97250000  0.34970000  0.04630000  1
  C  C334  1  0.97250000  0.65030000  0.95370000  1
  C  C335  1  0.97250000  0.95370000  0.34970000  1
  C  C336  1  0.97770000  0.23790000  0.68930000  1
  C  C337  1  0.97770000  0.31070000  0.23790000  1
  C  C338  1  0.97770000  0.68930000  0.76210000  1
  C  C339  1  0.97770000  0.76210000  0.31070000  1
  C  C340  1  0.98100000  0.14350000  0.45150000  1
  C  C341  1  0.98100000  0.45150000  0.85650000  1
  C  C342  1  0.98100000  0.54850000  0.14350000  1
  C  C343  1  0.98100000  0.85650000  0.54850000  1
  C  C344  1  0.98110000  0.19190000  0.72890000  1
  C  C345  1  0.98110000  0.27110000  0.19190000  1
  C  C346  1  0.98110000  0.72890000  0.80810000  1
  C  C347  1  0.98110000  0.80810000  0.27110000  1
  C  C348  1  0.98320000  0.33930000  0.34850000  1
  C  C349  1  0.98320000  0.34850000  0.66070000  1
  C  C350  1  0.98320000  0.65150000  0.33930000  1
  C  C351  1  0.98320000  0.66070000  0.65150000  1
  C  C352  1  0.98640000  0.29160000  0.29740000  1
  C  C353  1  0.98640000  0.29740000  0.70840000  1
  C  C354  1  0.98640000  0.70260000  0.29160000  1
  C  C355  1  0.98640000  0.70840000  0.70260000  1
  C  C356  1  0.98700000  0.23180000  0.31120000  1
  C  C357  1  0.98700000  0.31120000  0.76820000  1
  C  C358  1  0.98700000  0.68880000  0.23180000  1
  C  C359  1  0.98700000  0.76820000  0.68880000  1
  C  C360  1  0.99110000  0.20080000  0.79200000  1
  C  C361  1  0.99110000  0.20800000  0.20080000  1
  C  C362  1  0.99110000  0.79200000  0.79920000  1
  C  C363  1  0.99110000  0.79920000  0.20800000  1
  C  C364  1  0.99130000  0.18750000  0.26330000  1
  C  C365  1  0.99130000  0.26330000  0.81250000  1
  C  C366  1  0.99130000  0.73670000  0.18750000  1
  C  C367  1  0.99130000  0.81250000  0.73670000  1
  C  C368  1  0.99270000  0.15400000  0.83840000  1
  C  C369  1  0.99270000  0.16160000  0.15400000  1
  C  C370  1  0.99270000  0.83840000  0.84600000  1
  C  C371  1  0.99270000  0.84600000  0.16160000  1
  C  C372  1  0.99790000  0.14930000  0.38570000  1
  C  C373  1  0.99790000  0.38570000  0.85070000  1
  C  C374  1  0.99790000  0.61430000  0.14930000  1
  C  C375  1  0.99790000  0.85070000  0.61430000  1
  N  N376  1  0.49080000  0.43150000  0.56730000  1
  N  N377  1  0.49080000  0.43270000  0.43150000  1
  N  N378  1  0.49080000  0.56730000  0.56850000  1
  N  N379  1  0.49080000  0.56850000  0.43270000  1
  N  N380  1  0.50420000  0.06510000  0.07140000  1
  N  N381  1  0.50420000  0.07140000  0.93490000  1
  N  N382  1  0.50420000  0.92860000  0.06510000  1
  N  N383  1  0.50420000  0.93490000  0.92860000  1
  N  N384  1  0.98580000  0.42979000  0.43633000  1
  N  N385  1  0.98580000  0.43633000  0.57021000  1
  N  N386  1  0.98580000  0.56367000  0.42979000  1
  N  N387  1  0.98580000  0.57021000  0.56367000  1
  N  N388  1  0.99920000  0.06820000  0.93040000  1
  N  N389  1  0.99920000  0.06960000  0.06820000  1
  N  N390  1  0.99920000  0.93040000  0.93180000  1
  N  N391  1  0.99920000  0.93180000  0.06960000  1
  O  O392  1  0.49060000  0.07910000  0.53020000  1
  O  O393  1  0.49060000  0.46980000  0.07910000  1
  O  O394  1  0.49060000  0.53020000  0.92090000  1
  O  O395  1  0.49060000  0.92090000  0.46980000  1
  O  O396  1  0.50000000  0.12990000  0.28550000  1
  O  O397  1  0.50000000  0.28550000  0.87010000  1
  O  O398  1  0.50000000  0.71450000  0.12990000  1
  O  O399  1  0.50000000  0.87010000  0.71450000  1
  O  O400  1  0.50860000  0.03370000  0.41450000  1
  O  O401  1  0.50860000  0.41450000  0.96630000  1
  O  O402  1  0.50860000  0.58550000  0.03370000  1
  O  O403  1  0.50860000  0.96630000  0.58550000  1
  O  O404  1  0.51720000  0.21310000  0.63150000  1
  O  O405  1  0.51720000  0.36850000  0.21310000  1
  O  O406  1  0.51720000  0.63150000  0.78690000  1
  O  O407  1  0.51720000  0.78690000  0.36850000  1
  O  O408  1  0.97250000  0.13210000  0.71300000  1
  O  O409  1  0.97250000  0.28700000  0.13210000  1
  O  O410  1  0.97250000  0.71300000  0.86790000  1
  O  O411  1  0.97250000  0.86790000  0.28700000  1
  O  O412  1  0.97350000  0.08150000  0.47190000  1
  O  O413  1  0.97350000  0.47190000  0.91850000  1
  O  O414  1  0.97350000  0.52810000  0.08150000  1
  O  O415  1  0.97350000  0.91850000  0.52810000  1
  O  O416  1  0.99820000  0.21550000  0.37060000  1
  O  O417  1  0.99820000  0.37060000  0.78450000  1
  O  O418  1  0.99820000  0.62940000  0.21550000  1
  O  O419  1  0.99820000  0.78450000  0.62940000  1
  O  O420  1  0.99900000  0.03580000  0.58680000  1
  O  O421  1  0.99900000  0.41320000  0.03580000  1
  O  O422  1  0.99900000  0.58680000  0.96420000  1
  O  O423  1  0.99900000  0.96420000  0.41320000  1
  F  F424  1  0.12260000  0.50000000  0.50000000  1
  F  F425  1  0.14210000  0.00000000  0.00000000  1
  F  F426  1  0.23200000  0.42730000  0.50260000  1
  F  F427  1  0.23200000  0.49740000  0.42730000  1
  F  F428  1  0.23200000  0.50260000  0.57270000  1
  F  F429  1  0.23200000  0.57270000  0.49740000  1
  F  F430  1  0.25150000  0.00950000  0.92770000  1
  F  F431  1  0.25150000  0.07230000  0.00950000  1
  F  F432  1  0.25150000  0.92770000  0.99050000  1
  F  F433  1  0.25150000  0.99050000  0.07230000  1
  F  F434  1  0.34720000  0.50000000  0.50000000  1
  F  F435  1  0.36690000  0.00000000  0.00000000  1
  F  F436  1  0.62400000  0.50000000  0.50000000  1
  F  F437  1  0.63360000  0.00000000  0.00000000  1
  F  F438  1  0.74050000  0.42654000  0.48310000  1
  F  F439  1  0.74050000  0.48310000  0.57346000  1
  F  F440  1  0.74050000  0.51690000  0.42654000  1
  F  F441  1  0.74050000  0.57346000  0.51690000  1
  F  F442  1  0.75330000  0.01903000  0.07321000  1
  F  F443  1  0.75330000  0.07321000  0.98097000  1
  F  F444  1  0.75330000  0.92679000  0.01903000  1
  F  F445  1  0.75330000  0.98097000  0.92679000  1
  F  F446  1  0.85090000  0.50000000  0.50000000  1
  F  F447  1  0.86110000  0.00000000  0.00000000  1
