# generated using pymatgen
data_ZnH17C18N5O4
_symmetry_space_group_name_H-M   'P 1'
_cell_length_a   9.26700000
_cell_length_b   13.25700000
_cell_length_c   16.32400000
_cell_angle_alpha   90.00000000
_cell_angle_beta   94.97500000
_cell_angle_gamma   90.00000000
_symmetry_Int_Tables_number   1
_chemical_formula_structural   ZnH17C18N5O4
_chemical_formula_sum   'Zn4 H68 C72 N20 O16'
_cell_volume   1997.89089915
_cell_formula_units_Z   4
loop_
 _symmetry_equiv_pos_site_id
 _symmetry_equiv_pos_as_xyz
  1  'x, y, z'
loop_
 _atom_site_type_symbol
 _atom_site_label
 _atom_site_symmetry_multiplicity
 _atom_site_fract_x
 _atom_site_fract_y
 _atom_site_fract_z
 _atom_site_occupancy
  Zn  Zn0  1  0.23090000  0.34477000  0.31676000  1
  Zn  Zn1  1  0.26910000  0.84477000  0.18324000  1
  Zn  Zn2  1  0.73090000  0.15523000  0.81676000  1
  Zn  Zn3  1  0.76910000  0.65523000  0.68324000  1
  H  H4  1  0.00160000  0.80260000  0.95590000  1
  H  H5  1  0.00440000  0.16690000  0.59150000  1
  H  H6  1  0.00700000  0.32990000  0.91400000  1
  H  H7  1  0.02230000  0.52410000  0.77480000  1
  H  H8  1  0.02870000  0.99230000  0.58540000  1
  H  H9  1  0.06890000  0.41600000  0.03630000  1
  H  H10  1  0.09810000  0.57650000  0.98710000  1
  H  H11  1  0.09920000  0.63460000  0.36020000  1
  H  H12  1  0.11120000  0.01010000  0.28100000  1
  H  H13  1  0.11220000  0.72270000  0.69260000  1
  H  H14  1  0.11260000  0.41900000  0.89820000  1
  H  H15  1  0.13630000  0.03920000  0.52690000  1
  H  H16  1  0.14020000  0.87610000  0.45200000  1
  H  H17  1  0.18130000  0.25280000  0.48750000  1
  H  H18  1  0.21580000  0.82400000  0.59590000  1
  H  H19  1  0.22200000  0.10880000  0.39250000  1
  H  H20  1  0.24600000  0.52550000  0.58150000  1
  H  H21  1  0.25400000  0.02550000  0.91850000  1
  H  H22  1  0.27800000  0.60880000  0.10750000  1
  H  H23  1  0.28420000  0.32400000  0.90410000  1
  H  H24  1  0.31870000  0.75280000  0.01250000  1
  H  H25  1  0.35980000  0.37610000  0.04800000  1
  H  H26  1  0.36370000  0.53920000  0.97310000  1
  H  H27  1  0.38740000  0.91900000  0.60180000  1
  H  H28  1  0.38780000  0.22270000  0.80740000  1
  H  H29  1  0.38880000  0.51010000  0.21900000  1
  H  H30  1  0.40080000  0.13460000  0.13980000  1
  H  H31  1  0.40190000  0.07650000  0.51290000  1
  H  H32  1  0.43110000  0.91600000  0.46370000  1
  H  H33  1  0.47130000  0.49230000  0.91460000  1
  H  H34  1  0.47770000  0.02410000  0.72520000  1
  H  H35  1  0.49300000  0.82990000  0.58600000  1
  H  H36  1  0.49560000  0.66690000  0.90850000  1
  H  H37  1  0.49840000  0.30260000  0.54410000  1
  H  H38  1  0.50160000  0.69740000  0.45590000  1
  H  H39  1  0.50440000  0.33310000  0.09150000  1
  H  H40  1  0.50700000  0.17010000  0.41400000  1
  H  H41  1  0.52230000  0.97590000  0.27480000  1
  H  H42  1  0.52870000  0.50770000  0.08540000  1
  H  H43  1  0.56890000  0.08400000  0.53630000  1
  H  H44  1  0.59810000  0.92350000  0.48710000  1
  H  H45  1  0.59920000  0.86540000  0.86020000  1
  H  H46  1  0.61120000  0.48990000  0.78100000  1
  H  H47  1  0.61220000  0.77730000  0.19260000  1
  H  H48  1  0.61260000  0.08100000  0.39820000  1
  H  H49  1  0.63630000  0.46080000  0.02690000  1
  H  H50  1  0.64020000  0.62390000  0.95200000  1
  H  H51  1  0.68130000  0.24720000  0.98750000  1
  H  H52  1  0.71580000  0.67600000  0.09590000  1
  H  H53  1  0.72200000  0.39120000  0.89250000  1
  H  H54  1  0.74600000  0.97450000  0.08150000  1
  H  H55  1  0.75400000  0.47450000  0.41850000  1
  H  H56  1  0.77800000  0.89120000  0.60750000  1
  H  H57  1  0.78420000  0.17600000  0.40410000  1
  H  H58  1  0.81870000  0.74720000  0.51250000  1
  H  H59  1  0.85980000  0.12390000  0.54800000  1
  H  H60  1  0.86370000  0.96080000  0.47310000  1
  H  H61  1  0.88740000  0.58100000  0.10180000  1
  H  H62  1  0.88780000  0.27730000  0.30740000  1
  H  H63  1  0.88880000  0.98990000  0.71900000  1
  H  H64  1  0.90080000  0.36540000  0.63980000  1
  H  H65  1  0.90190000  0.42350000  0.01290000  1
  H  H66  1  0.93110000  0.58400000  0.96370000  1
  H  H67  1  0.97130000  0.00770000  0.41460000  1
  H  H68  1  0.97770000  0.47590000  0.22520000  1
  H  H69  1  0.99300000  0.67010000  0.08600000  1
  H  H70  1  0.99560000  0.83310000  0.40850000  1
  H  H71  1  0.99840000  0.19740000  0.04410000  1
  C  C72  1  0.00240000  0.89290000  0.10100000  1
  C  C73  1  0.00430000  0.55520000  0.00290000  1
  C  C74  1  0.01610000  0.40270000  0.91290000  1
  C  C75  1  0.03470000  0.02960000  0.53470000  1
  C  C76  1  0.03770000  0.86680000  0.45760000  1
  C  C77  1  0.06440000  0.74100000  0.64240000  1
  C  C78  1  0.06810000  0.49660000  0.21080000  1
  C  C79  1  0.08750000  0.16640000  0.03990000  1
  C  C80  1  0.09580000  0.24730000  0.45350000  1
  C  C81  1  0.11060000  0.11120000  0.97030000  1
  C  C82  1  0.12350000  0.79590000  0.59140000  1
  C  C83  1  0.15080000  0.57150000  0.47140000  1
  C  C84  1  0.17270000  0.62840000  0.40240000  1
  C  C85  1  0.17390000  0.23730000  0.17730000  1
  C  C86  1  0.19600000  0.17580000  0.10350000  1
  C  C87  1  0.21070000  0.01600000  0.29330000  1
  C  C88  1  0.23140000  0.57010000  0.14480000  1
  C  C89  1  0.23920000  0.06360000  0.96490000  1
  C  C90  1  0.26080000  0.56360000  0.53510000  1
  C  C91  1  0.26860000  0.07010000  0.35520000  1
  C  C92  1  0.28930000  0.51600000  0.20670000  1
  C  C93  1  0.30400000  0.67580000  0.39650000  1
  C  C94  1  0.32610000  0.73730000  0.32270000  1
  C  C95  1  0.32730000  0.12840000  0.09760000  1
  C  C96  1  0.34920000  0.07150000  0.02860000  1
  C  C97  1  0.37650000  0.29590000  0.90860000  1
  C  C98  1  0.38940000  0.61120000  0.52970000  1
  C  C99  1  0.40420000  0.74730000  0.04650000  1
  C  C100  1  0.41250000  0.66640000  0.46010000  1
  C  C101  1  0.43190000  0.99660000  0.28920000  1
  C  C102  1  0.43560000  0.24100000  0.85760000  1
  C  C103  1  0.46230000  0.36680000  0.04240000  1
  C  C104  1  0.46530000  0.52960000  0.96530000  1
  C  C105  1  0.48390000  0.90270000  0.58710000  1
  C  C106  1  0.49570000  0.05520000  0.49710000  1
  C  C107  1  0.49760000  0.39290000  0.39900000  1
  C  C108  1  0.50240000  0.60710000  0.60100000  1
  C  C109  1  0.50430000  0.94480000  0.50290000  1
  C  C110  1  0.51610000  0.09730000  0.41290000  1
  C  C111  1  0.53470000  0.47040000  0.03470000  1
  C  C112  1  0.53770000  0.63320000  0.95760000  1
  C  C113  1  0.56440000  0.75900000  0.14240000  1
  C  C114  1  0.56810000  0.00340000  0.71080000  1
  C  C115  1  0.58750000  0.33360000  0.53990000  1
  C  C116  1  0.59580000  0.25270000  0.95350000  1
  C  C117  1  0.61060000  0.38880000  0.47030000  1
  C  C118  1  0.62350000  0.70410000  0.09140000  1
  C  C119  1  0.65080000  0.92850000  0.97140000  1
  C  C120  1  0.67270000  0.87160000  0.90240000  1
  C  C121  1  0.67390000  0.26270000  0.67730000  1
  C  C122  1  0.69600000  0.32420000  0.60350000  1
  C  C123  1  0.71070000  0.48400000  0.79330000  1
  C  C124  1  0.73140000  0.92990000  0.64480000  1
  C  C125  1  0.73920000  0.43640000  0.46490000  1
  C  C126  1  0.76080000  0.93640000  0.03510000  1
  C  C127  1  0.76860000  0.42990000  0.85520000  1
  C  C128  1  0.78930000  0.98400000  0.70670000  1
  C  C129  1  0.80400000  0.82420000  0.89650000  1
  C  C130  1  0.82610000  0.76270000  0.82270000  1
  C  C131  1  0.82730000  0.37160000  0.59760000  1
  C  C132  1  0.84920000  0.42850000  0.52860000  1
  C  C133  1  0.87650000  0.20410000  0.40860000  1
  C  C134  1  0.88940000  0.88880000  0.02970000  1
  C  C135  1  0.90420000  0.75270000  0.54650000  1
  C  C136  1  0.91250000  0.83360000  0.96010000  1
  C  C137  1  0.93190000  0.50340000  0.78920000  1
  C  C138  1  0.93560000  0.25900000  0.35760000  1
  C  C139  1  0.96230000  0.13320000  0.54240000  1
  C  C140  1  0.96530000  0.97040000  0.46530000  1
  C  C141  1  0.98390000  0.59730000  0.08710000  1
  C  C142  1  0.99570000  0.44480000  0.99710000  1
  C  C143  1  0.99760000  0.10710000  0.89900000  1
  N  N144  1  0.01160000  0.52550000  0.46950000  1
  N  N145  1  0.01950000  0.80340000  0.52910000  1
  N  N146  1  0.07140000  0.28920000  0.38030000  1
  N  N147  1  0.09050000  0.55610000  0.14840000  1
  N  N148  1  0.19370000  0.47060000  0.24990000  1
  N  N149  1  0.30630000  0.97060000  0.25010000  1
  N  N150  1  0.40950000  0.05610000  0.35160000  1
  N  N151  1  0.42860000  0.78920000  0.11970000  1
  N  N152  1  0.48050000  0.30340000  0.97090000  1
  N  N153  1  0.48840000  0.02550000  0.03050000  1
  N  N154  1  0.51160000  0.97450000  0.96950000  1
  N  N155  1  0.51950000  0.69660000  0.02910000  1
  N  N156  1  0.57140000  0.21080000  0.88030000  1
  N  N157  1  0.59050000  0.94390000  0.64840000  1
  N  N158  1  0.69370000  0.02940000  0.74990000  1
  N  N159  1  0.80630000  0.52940000  0.75010000  1
  N  N160  1  0.90950000  0.44390000  0.85160000  1
  N  N161  1  0.92860000  0.71080000  0.61970000  1
  N  N162  1  0.98050000  0.19660000  0.47090000  1
  N  N163  1  0.98840000  0.47450000  0.53050000  1
  O  O164  1  0.02200000  0.06470000  0.83620000  1
  O  O165  1  0.05190000  0.27280000  0.18630000  1
  O  O166  1  0.12140000  0.84750000  0.09110000  1
  O  O167  1  0.21750000  0.75230000  0.27160000  1
  O  O168  1  0.28250000  0.25230000  0.22840000  1
  O  O169  1  0.37860000  0.34750000  0.40890000  1
  O  O170  1  0.44810000  0.77280000  0.31370000  1
  O  O171  1  0.47800000  0.56470000  0.66380000  1
  O  O172  1  0.52200000  0.43530000  0.33620000  1
  O  O173  1  0.55190000  0.22720000  0.68630000  1
  O  O174  1  0.62140000  0.65250000  0.59110000  1
  O  O175  1  0.71750000  0.74770000  0.77160000  1
  O  O176  1  0.78250000  0.24770000  0.72840000  1
  O  O177  1  0.87860000  0.15250000  0.90890000  1
  O  O178  1  0.94810000  0.72720000  0.81370000  1
  O  O179  1  0.97800000  0.93530000  0.16380000  1
