# generated using pymatgen
data_MnPH2(CO4)2
_symmetry_space_group_name_H-M   'P 1'
_cell_length_a   9.69000000
_cell_length_b   14.43310000
_cell_length_c   29.84420000
_cell_angle_alpha   90.00000000
_cell_angle_beta   90.00000000
_cell_angle_gamma   90.00000000
_symmetry_Int_Tables_number   1
_chemical_formula_structural   MnPH2(CO4)2
_chemical_formula_sum   'Mn16 P16 H32 C32 O128'
_cell_volume   4173.91249006
_cell_formula_units_Z   16
loop_
 _symmetry_equiv_pos_site_id
 _symmetry_equiv_pos_as_xyz
  1  'x, y, z'
loop_
 _atom_site_type_symbol
 _atom_site_label
 _atom_site_symmetry_multiplicity
 _atom_site_fract_x
 _atom_site_fract_y
 _atom_site_fract_z
 _atom_site_occupancy
  Mn  Mn0  1  0.13053000  0.23551000  0.70051000  1
  Mn  Mn1  1  0.13053000  0.26449000  0.20051000  1
  Mn  Mn2  1  0.24975000  0.04272000  0.04606000  1
  Mn  Mn3  1  0.24975000  0.45728000  0.54606000  1
  Mn  Mn4  1  0.25025000  0.54272000  0.04606000  1
  Mn  Mn5  1  0.25025000  0.95728000  0.54606000  1
  Mn  Mn6  1  0.36947000  0.73551000  0.70051000  1
  Mn  Mn7  1  0.36947000  0.76449000  0.20051000  1
  Mn  Mn8  1  0.63053000  0.23551000  0.79949000  1
  Mn  Mn9  1  0.63053000  0.26449000  0.29949000  1
  Mn  Mn10  1  0.74975000  0.04272000  0.45394000  1
  Mn  Mn11  1  0.74975000  0.45728000  0.95394000  1
  Mn  Mn12  1  0.75025000  0.54272000  0.45394000  1
  Mn  Mn13  1  0.75025000  0.95728000  0.95394000  1
  Mn  Mn14  1  0.86947000  0.73551000  0.79949000  1
  Mn  Mn15  1  0.86947000  0.76449000  0.29949000  1
  P  P16  1  0.06314000  0.20388000  0.09580000  1
  P  P17  1  0.06314000  0.29612000  0.59580000  1
  P  P18  1  0.21362000  0.03050000  0.65278000  1
  P  P19  1  0.21362000  0.46950000  0.15278000  1
  P  P20  1  0.28638000  0.53050000  0.65278000  1
  P  P21  1  0.28638000  0.96950000  0.15278000  1
  P  P22  1  0.43686000  0.70388000  0.09580000  1
  P  P23  1  0.43686000  0.79612000  0.59580000  1
  P  P24  1  0.56314000  0.20388000  0.40420000  1
  P  P25  1  0.56314000  0.29612000  0.90420000  1
  P  P26  1  0.71362000  0.03050000  0.84722000  1
  P  P27  1  0.71362000  0.46950000  0.34722000  1
  P  P28  1  0.78638000  0.53050000  0.84722000  1
  P  P29  1  0.78638000  0.96950000  0.34722000  1
  P  P30  1  0.93686000  0.70388000  0.40420000  1
  P  P31  1  0.93686000  0.79612000  0.90420000  1
  H  H32  1  0.04960000  0.60320000  0.43090000  1
  H  H33  1  0.04960000  0.89680000  0.93090000  1
  H  H34  1  0.07410000  0.15970000  0.60680000  1
  H  H35  1  0.07410000  0.34030000  0.10680000  1
  H  H36  1  0.12870000  0.56250000  0.19320000  1
  H  H37  1  0.12870000  0.93750000  0.69320000  1
  H  H38  1  0.13630000  0.06210000  0.15700000  1
  H  H39  1  0.13630000  0.43790000  0.65700000  1
  H  H40  1  0.36370000  0.56210000  0.15700000  1
  H  H41  1  0.36370000  0.93790000  0.65700000  1
  H  H42  1  0.37130000  0.06250000  0.19320000  1
  H  H43  1  0.37130000  0.43750000  0.69320000  1
  H  H44  1  0.42590000  0.65970000  0.60680000  1
  H  H45  1  0.42590000  0.84030000  0.10680000  1
  H  H46  1  0.45040000  0.10320000  0.43090000  1
  H  H47  1  0.45040000  0.39680000  0.93090000  1
  H  H48  1  0.54960000  0.60320000  0.06910000  1
  H  H49  1  0.54960000  0.89680000  0.56910000  1
  H  H50  1  0.57410000  0.15970000  0.89320000  1
  H  H51  1  0.57410000  0.34030000  0.39320000  1
  H  H52  1  0.62870000  0.56250000  0.30680000  1
  H  H53  1  0.62870000  0.93750000  0.80680000  1
  H  H54  1  0.63630000  0.06210000  0.34300000  1
  H  H55  1  0.63630000  0.43790000  0.84300000  1
  H  H56  1  0.86370000  0.56210000  0.34300000  1
  H  H57  1  0.86370000  0.93790000  0.84300000  1
  H  H58  1  0.87130000  0.06250000  0.30680000  1
  H  H59  1  0.87130000  0.43750000  0.80680000  1
  H  H60  1  0.92590000  0.65970000  0.89320000  1
  H  H61  1  0.92590000  0.84030000  0.39320000  1
  H  H62  1  0.95040000  0.10320000  0.06910000  1
  H  H63  1  0.95040000  0.39680000  0.56910000  1
  C  C64  1  0.01870000  0.03580000  0.98163000  1
  C  C65  1  0.01870000  0.46420000  0.48163000  1
  C  C66  1  0.02600000  0.04980000  0.49535000  1
  C  C67  1  0.02600000  0.45020000  0.99535000  1
  C  C68  1  0.09860000  0.71350000  0.23994000  1
  C  C69  1  0.09860000  0.78650000  0.73994000  1
  C  C70  1  0.15110000  0.70200000  0.76663000  1
  C  C71  1  0.15110000  0.79800000  0.26663000  1
  C  C72  1  0.34890000  0.20200000  0.76663000  1
  C  C73  1  0.34890000  0.29800000  0.26663000  1
  C  C74  1  0.40140000  0.21350000  0.23994000  1
  C  C75  1  0.40140000  0.28650000  0.73994000  1
  C  C76  1  0.47400000  0.54980000  0.49535000  1
  C  C77  1  0.47400000  0.95020000  0.99535000  1
  C  C78  1  0.48130000  0.53580000  0.98163000  1
  C  C79  1  0.48130000  0.96420000  0.48163000  1
  C  C80  1  0.51870000  0.03580000  0.51837000  1
  C  C81  1  0.51870000  0.46420000  0.01837000  1
  C  C82  1  0.52600000  0.04980000  0.00465000  1
  C  C83  1  0.52600000  0.45020000  0.50465000  1
  C  C84  1  0.59860000  0.71350000  0.26006000  1
  C  C85  1  0.59860000  0.78650000  0.76006000  1
  C  C86  1  0.65110000  0.70200000  0.73337000  1
  C  C87  1  0.65110000  0.79800000  0.23337000  1
  C  C88  1  0.84890000  0.20200000  0.73337000  1
  C  C89  1  0.84890000  0.29800000  0.23337000  1
  C  C90  1  0.90140000  0.21350000  0.26006000  1
  C  C91  1  0.90140000  0.28650000  0.76006000  1
  C  C92  1  0.97400000  0.54980000  0.00465000  1
  C  C93  1  0.97400000  0.95020000  0.50465000  1
  C  C94  1  0.98130000  0.53580000  0.51837000  1
  C  C95  1  0.98130000  0.96420000  0.01837000  1
  O  O96  1  0.01570000  0.18190000  0.25027000  1
  O  O97  1  0.01570000  0.31810000  0.75027000  1
  O  O98  1  0.02840000  0.19072000  0.58922000  1
  O  O99  1  0.02840000  0.30928000  0.08922000  1
  O  O100  1  0.05390000  0.60376000  0.02473000  1
  O  O101  1  0.05390000  0.89624000  0.52473000  1
  O  O102  1  0.06800000  0.54648000  0.54919000  1
  O  O103  1  0.06800000  0.95352000  0.04919000  1
  O  O104  1  0.06890000  0.65566000  0.42241000  1
  O  O105  1  0.06890000  0.84434000  0.92241000  1
  O  O106  1  0.07290000  0.67063000  0.79651000  1
  O  O107  1  0.07290000  0.82937000  0.29651000  1
  O  O108  1  0.07590000  0.17974000  0.14442000  1
  O  O109  1  0.07590000  0.32026000  0.64442000  1
  O  O110  1  0.10610000  0.50975000  0.18610000  1
  O  O111  1  0.10610000  0.99025000  0.68610000  1
  O  O112  1  0.13050000  0.07695000  0.98493000  1
  O  O113  1  0.13050000  0.42305000  0.48493000  1
  O  O114  1  0.14270000  0.00831000  0.16564000  1
  O  O115  1  0.14270000  0.49169000  0.66564000  1
  O  O116  1  0.14490000  0.06820000  0.50801000  1
  O  O117  1  0.14490000  0.43180000  0.00801000  1
  O  O118  1  0.17460000  0.00290000  0.60690000  1
  O  O119  1  0.17460000  0.49710000  0.10690000  1
  O  O120  1  0.17800000  0.68247000  0.21035000  1
  O  O121  1  0.17800000  0.81753000  0.71035000  1
  O  O122  1  0.18810000  0.17830000  0.06932000  1
  O  O123  1  0.18810000  0.32170000  0.56932000  1
  O  O124  1  0.21830000  0.13260000  0.65879000  1
  O  O125  1  0.21830000  0.36740000  0.15879000  1
  O  O126  1  0.23160000  0.17220000  0.75834000  1
  O  O127  1  0.23160000  0.32780000  0.25834000  1
  O  O128  1  0.26840000  0.67220000  0.75834000  1
  O  O129  1  0.26840000  0.82780000  0.25834000  1
  O  O130  1  0.28170000  0.63260000  0.65879000  1
  O  O131  1  0.28170000  0.86740000  0.15879000  1
  O  O132  1  0.31190000  0.67830000  0.06932000  1
  O  O133  1  0.31190000  0.82170000  0.56932000  1
  O  O134  1  0.32200000  0.18247000  0.21035000  1
  O  O135  1  0.32200000  0.31753000  0.71035000  1
  O  O136  1  0.32540000  0.50290000  0.60690000  1
  O  O137  1  0.32540000  0.99710000  0.10690000  1
  O  O138  1  0.35510000  0.56820000  0.50801000  1
  O  O139  1  0.35510000  0.93180000  0.00801000  1
  O  O140  1  0.35730000  0.50831000  0.16564000  1
  O  O141  1  0.35730000  0.99169000  0.66564000  1
  O  O142  1  0.36950000  0.57695000  0.98493000  1
  O  O143  1  0.36950000  0.92305000  0.48493000  1
  O  O144  1  0.39390000  0.00975000  0.18610000  1
  O  O145  1  0.39390000  0.49025000  0.68610000  1
  O  O146  1  0.42410000  0.67974000  0.14442000  1
  O  O147  1  0.42410000  0.82026000  0.64442000  1
  O  O148  1  0.42710000  0.17063000  0.79651000  1
  O  O149  1  0.42710000  0.32937000  0.29651000  1
  O  O150  1  0.43110000  0.15566000  0.42241000  1
  O  O151  1  0.43110000  0.34434000  0.92241000  1
  O  O152  1  0.43200000  0.04648000  0.54919000  1
  O  O153  1  0.43200000  0.45352000  0.04919000  1
  O  O154  1  0.44610000  0.10376000  0.02473000  1
  O  O155  1  0.44610000  0.39624000  0.52473000  1
  O  O156  1  0.47160000  0.69072000  0.58922000  1
  O  O157  1  0.47160000  0.80928000  0.08922000  1
  O  O158  1  0.48430000  0.68190000  0.25027000  1
  O  O159  1  0.48430000  0.81810000  0.75027000  1
  O  O160  1  0.51570000  0.18190000  0.24973000  1
  O  O161  1  0.51570000  0.31810000  0.74973000  1
  O  O162  1  0.52840000  0.19072000  0.91078000  1
  O  O163  1  0.52840000  0.30928000  0.41078000  1
  O  O164  1  0.55390000  0.60376000  0.47527000  1
  O  O165  1  0.55390000  0.89624000  0.97527000  1
  O  O166  1  0.56800000  0.54648000  0.95081000  1
  O  O167  1  0.56800000  0.95352000  0.45081000  1
  O  O168  1  0.56890000  0.65566000  0.07759000  1
  O  O169  1  0.56890000  0.84434000  0.57759000  1
  O  O170  1  0.57290000  0.67063000  0.70349000  1
  O  O171  1  0.57290000  0.82937000  0.20349000  1
  O  O172  1  0.57590000  0.17974000  0.35558000  1
  O  O173  1  0.57590000  0.32026000  0.85558000  1
  O  O174  1  0.60610000  0.50975000  0.31390000  1
  O  O175  1  0.60610000  0.99025000  0.81390000  1
  O  O176  1  0.63050000  0.07695000  0.51507000  1
  O  O177  1  0.63050000  0.42305000  0.01507000  1
  O  O178  1  0.64270000  0.00831000  0.33436000  1
  O  O179  1  0.64270000  0.49169000  0.83436000  1
  O  O180  1  0.64490000  0.06820000  0.99199000  1
  O  O181  1  0.64490000  0.43180000  0.49199000  1
  O  O182  1  0.67460000  0.00290000  0.89310000  1
  O  O183  1  0.67460000  0.49710000  0.39310000  1
  O  O184  1  0.67800000  0.68247000  0.28965000  1
  O  O185  1  0.67800000  0.81753000  0.78965000  1
  O  O186  1  0.68810000  0.17830000  0.43068000  1
  O  O187  1  0.68810000  0.32170000  0.93068000  1
  O  O188  1  0.71830000  0.13260000  0.84121000  1
  O  O189  1  0.71830000  0.36740000  0.34121000  1
  O  O190  1  0.73160000  0.17220000  0.74166000  1
  O  O191  1  0.73160000  0.32780000  0.24166000  1
  O  O192  1  0.76840000  0.67220000  0.74166000  1
  O  O193  1  0.76840000  0.82780000  0.24166000  1
  O  O194  1  0.78170000  0.63260000  0.84121000  1
  O  O195  1  0.78170000  0.86740000  0.34121000  1
  O  O196  1  0.81190000  0.67830000  0.43068000  1
  O  O197  1  0.81190000  0.82170000  0.93068000  1
  O  O198  1  0.82200000  0.18247000  0.28965000  1
  O  O199  1  0.82200000  0.31753000  0.78965000  1
  O  O200  1  0.82540000  0.50290000  0.89310000  1
  O  O201  1  0.82540000  0.99710000  0.39310000  1
  O  O202  1  0.85510000  0.56820000  0.99199000  1
  O  O203  1  0.85510000  0.93180000  0.49199000  1
  O  O204  1  0.85730000  0.50831000  0.33436000  1
  O  O205  1  0.85730000  0.99169000  0.83436000  1
  O  O206  1  0.86950000  0.57695000  0.51507000  1
  O  O207  1  0.86950000  0.92305000  0.01507000  1
  O  O208  1  0.89390000  0.00975000  0.31390000  1
  O  O209  1  0.89390000  0.49025000  0.81390000  1
  O  O210  1  0.92410000  0.67974000  0.35558000  1
  O  O211  1  0.92410000  0.82026000  0.85558000  1
  O  O212  1  0.92710000  0.17063000  0.70349000  1
  O  O213  1  0.92710000  0.32937000  0.20349000  1
  O  O214  1  0.93110000  0.15566000  0.07759000  1
  O  O215  1  0.93110000  0.34434000  0.57759000  1
  O  O216  1  0.93200000  0.04648000  0.95081000  1
  O  O217  1  0.93200000  0.45352000  0.45081000  1
  O  O218  1  0.94610000  0.10376000  0.47527000  1
  O  O219  1  0.94610000  0.39624000  0.97527000  1
  O  O220  1  0.97160000  0.69072000  0.91078000  1
  O  O221  1  0.97160000  0.80928000  0.41078000  1
  O  O222  1  0.98430000  0.68190000  0.24973000  1
  O  O223  1  0.98430000  0.81810000  0.74973000  1
