# generated using pymatgen
data_CoH16(C11O4)2
_symmetry_space_group_name_H-M   'P 1'
_cell_length_a   11.86800000
_cell_length_b   16.26500000
_cell_length_c   16.37900000
_cell_angle_alpha   108.09900000
_cell_angle_beta   102.85500000
_cell_angle_gamma   101.21600000
_symmetry_Int_Tables_number   1
_chemical_formula_structural   CoH16(C11O4)2
_chemical_formula_sum   'Co3 H48 C66 O24'
_cell_volume   2808.87094646
_cell_formula_units_Z   3
loop_
 _symmetry_equiv_pos_site_id
 _symmetry_equiv_pos_as_xyz
  1  'x, y, z'
loop_
 _atom_site_type_symbol
 _atom_site_label
 _atom_site_symmetry_multiplicity
 _atom_site_fract_x
 _atom_site_fract_y
 _atom_site_fract_z
 _atom_site_occupancy
  Co  Co0  1  0.18269000  0.89444000  0.38414000  1
  Co  Co1  1  0.50000000  0.00000000  0.50000000  1
  Co  Co2  1  0.81731000  0.10556000  0.61586000  1
  H  H3  1  0.08550000  0.37460000  0.62500000  1
  H  H4  1  0.11790000  0.32980000  0.85590000  1
  H  H5  1  0.14530000  0.10220000  0.65470000  1
  H  H6  1  0.15240000  0.06920000  0.22230000  1
  H  H7  1  0.17410000  0.14760000  0.12930000  1
  H  H8  1  0.21160000  0.19120000  0.80970000  1
  H  H9  1  0.22540000  0.51800000  0.70650000  1
  H  H10  1  0.23290000  0.65220000  0.22810000  1
  H  H11  1  0.25070000  0.47360000  0.93670000  1
  H  H12  1  0.26780000  0.52050000  0.13940000  1
  H  H13  1  0.29020000  0.26080000  0.96610000  1
  H  H14  1  0.35030000  0.42460000  0.05400000  1
  H  H15  1  0.35320000  0.38940000  0.13520000  1
  H  H16  1  0.36850000  0.32080000  0.92540000  1
  H  H17  1  0.37750000  0.36940000  0.74300000  1
  H  H18  1  0.39940000  0.66610000  0.99820000  1
  H  H19  1  0.41010000  0.23540000  0.65940000  1
  H  H20  1  0.41860000  0.56750000  0.96780000  1
  H  H21  1  0.44660000  0.01870000  0.68370000  1
  H  H22  1  0.46330000  0.79040000  0.77480000  1
  H  H23  1  0.47350000  0.67950000  0.82230000  1
  H  H24  1  0.48230000  0.76250000  0.91030000  1
  H  H25  1  0.48820000  0.87410000  0.68400000  1
  H  H26  1  0.48850000  0.89500000  0.16270000  1
  H  H27  1  0.51150000  0.10500000  0.83730000  1
  H  H28  1  0.51180000  0.12590000  0.31600000  1
  H  H29  1  0.51770000  0.23750000  0.08970000  1
  H  H30  1  0.52650000  0.32050000  0.17770000  1
  H  H31  1  0.53670000  0.20960000  0.22520000  1
  H  H32  1  0.55340000  0.98130000  0.31630000  1
  H  H33  1  0.58140000  0.43250000  0.03220000  1
  H  H34  1  0.58990000  0.76460000  0.34060000  1
  H  H35  1  0.60060000  0.33390000  0.00180000  1
  H  H36  1  0.62250000  0.63060000  0.25700000  1
  H  H37  1  0.63150000  0.67920000  0.07460000  1
  H  H38  1  0.64680000  0.61060000  0.86480000  1
  H  H39  1  0.64970000  0.57540000  0.94600000  1
  H  H40  1  0.70980000  0.73920000  0.03390000  1
  H  H41  1  0.73220000  0.47950000  0.86060000  1
  H  H42  1  0.74930000  0.52640000  0.06330000  1
  H  H43  1  0.76710000  0.34780000  0.77190000  1
  H  H44  1  0.77460000  0.48200000  0.29350000  1
  H  H45  1  0.78840000  0.80880000  0.19030000  1
  H  H46  1  0.82590000  0.85240000  0.87070000  1
  H  H47  1  0.84760000  0.93080000  0.77770000  1
  H  H48  1  0.85470000  0.89780000  0.34530000  1
  H  H49  1  0.88210000  0.67020000  0.14410000  1
  H  H50  1  0.91450000  0.62540000  0.37500000  1
  C  C51  1  0.00390000  0.24610000  0.68320000  1
  C  C52  1  0.09110000  0.33730000  0.73310000  1
  C  C53  1  0.12060000  0.39370000  0.68830000  1
  C  C54  1  0.13930000  0.36790000  0.82460000  1
  C  C55  1  0.20310000  0.47960000  0.73730000  1
  C  C56  1  0.21900000  0.45350000  0.87300000  1
  C  C57  1  0.21980000  0.10320000  0.69200000  1
  C  C58  1  0.23090000  0.09670000  0.22250000  1
  C  C59  1  0.24400000  0.14440000  0.16850000  1
  C  C60  1  0.24890000  0.99700000  0.55640000  1
  C  C61  1  0.25200000  0.50870000  0.82930000  1
  C  C62  1  0.25960000  0.15680000  0.78380000  1
  C  C63  1  0.28950000  0.05160000  0.65520000  1
  C  C64  1  0.31320000  0.64900000  0.23390000  1
  C  C65  1  0.31780000  0.03600000  0.33750000  1
  C  C66  1  0.32970000  0.08790000  0.27730000  1
  C  C67  1  0.33350000  0.56950000  0.18220000  1
  C  C68  1  0.35640000  0.18830000  0.16950000  1
  C  C69  1  0.36980000  0.15890000  0.83640000  1
  C  C70  1  0.37220000  0.28370000  0.96330000  1
  C  C71  1  0.38460000  0.80550000  0.34840000  1
  C  C72  1  0.39870000  0.05350000  0.70930000  1
  C  C73  1  0.40360000  0.41240000  0.10200000  1
  C  C74  1  0.40710000  0.72150000  0.29230000  1
  C  C75  1  0.41690000  0.62040000  0.95030000  1
  C  C76  1  0.43810000  0.10550000  0.79990000  1
  C  C77  1  0.44260000  0.13090000  0.27770000  1
  C  C78  1  0.44950000  0.56390000  0.19450000  1
  C  C79  1  0.45750000  0.36530000  0.74920000  1
  C  C80  1  0.45830000  0.18100000  0.22420000  1
  C  C81  1  0.45910000  0.33990000  0.05830000  1
  C  C82  1  0.47640000  0.28200000  0.11520000  1
  C  C83  1  0.47690000  0.28530000  0.69930000  1
  C  C84  1  0.52310000  0.71470000  0.30070000  1
  C  C85  1  0.52360000  0.71800000  0.88480000  1
  C  C86  1  0.54090000  0.66010000  0.94170000  1
  C  C87  1  0.54170000  0.81900000  0.77580000  1
  C  C88  1  0.54250000  0.63470000  0.25080000  1
  C  C89  1  0.55050000  0.43610000  0.80550000  1
  C  C90  1  0.55740000  0.86910000  0.72230000  1
  C  C91  1  0.56190000  0.89450000  0.20010000  1
  C  C92  1  0.58310000  0.37960000  0.04970000  1
  C  C93  1  0.59290000  0.27850000  0.70770000  1
  C  C94  1  0.59640000  0.58760000  0.89800000  1
  C  C95  1  0.60130000  0.94650000  0.29070000  1
  C  C96  1  0.61540000  0.19450000  0.65160000  1
  C  C97  1  0.62780000  0.71630000  0.03670000  1
  C  C98  1  0.63020000  0.84110000  0.16360000  1
  C  C99  1  0.64360000  0.81170000  0.83050000  1
  C  C100  1  0.66650000  0.43050000  0.81780000  1
  C  C101  1  0.67030000  0.91210000  0.72270000  1
  C  C102  1  0.68220000  0.96400000  0.66250000  1
  C  C103  1  0.68680000  0.35100000  0.76610000  1
  C  C104  1  0.71050000  0.94840000  0.34480000  1
  C  C105  1  0.74040000  0.84320000  0.21620000  1
  C  C106  1  0.74800000  0.49130000  0.17070000  1
  C  C107  1  0.75110000  0.00300000  0.44360000  1
  C  C108  1  0.75600000  0.85560000  0.83150000  1
  C  C109  1  0.76910000  0.90330000  0.77750000  1
  C  C110  1  0.78020000  0.89680000  0.30800000  1
  C  C111  1  0.78100000  0.54650000  0.12700000  1
  C  C112  1  0.79690000  0.52040000  0.26270000  1
  C  C113  1  0.86070000  0.63210000  0.17540000  1
  C  C114  1  0.87940000  0.60630000  0.31170000  1
  C  C115  1  0.90890000  0.66270000  0.26690000  1
  C  C116  1  0.99610000  0.75390000  0.31680000  1
  O  O117  1  0.01790000  0.80600000  0.27590000  1
  O  O118  1  0.04860000  0.77800000  0.39980000  1
  O  O119  1  0.14480000  0.98790000  0.50760000  1
  O  O120  1  0.21280000  0.99530000  0.33060000  1
  O  O121  1  0.27900000  0.81010000  0.33120000  1
  O  O122  1  0.32050000  0.95766000  0.52203000  1
  O  O123  1  0.32770000  0.59470000  0.87040000  1
  O  O124  1  0.36080000  0.23670000  0.11490000  1
  O  O125  1  0.41330000  0.03470000  0.38990000  1
  O  O126  1  0.41860000  0.21030000  0.92652000  1
  O  O127  1  0.47470000  0.86480000  0.41050000  1
  O  O128  1  0.48380000  0.48810000  0.15750000  1
  O  O129  1  0.51620000  0.51190000  0.84250000  1
  O  O130  1  0.52530000  0.13520000  0.58950000  1
  O  O131  1  0.58140000  0.78970000  0.07348000  1
  O  O132  1  0.58670000  0.96530000  0.61010000  1
  O  O133  1  0.63920000  0.76330000  0.88510000  1
  O  O134  1  0.67230000  0.40530000  0.12960000  1
  O  O135  1  0.67950000  0.04234000  0.47797000  1
  O  O136  1  0.72100000  0.18990000  0.66880000  1
  O  O137  1  0.78720000  0.00470000  0.66940000  1
  O  O138  1  0.85520000  0.01210000  0.49240000  1
  O  O139  1  0.95140000  0.22200000  0.60020000  1
  O  O140  1  0.98210000  0.19400000  0.72410000  1
