# generated using pymatgen
data_Zn2H10C16N3O8
_symmetry_space_group_name_H-M   'P 1'
_cell_length_a   14.63900000
_cell_length_b   19.37900000
_cell_length_c   19.48400000
_cell_angle_alpha   116.04600000
_cell_angle_beta   90.00000000
_cell_angle_gamma   90.00000000
_symmetry_Int_Tables_number   1
_chemical_formula_structural   Zn2H10C16N3O8
_chemical_formula_sum   'Zn12 H60 C96 N18 O48'
_cell_volume   4966.04726158
_cell_formula_units_Z   6
loop_
 _symmetry_equiv_pos_site_id
 _symmetry_equiv_pos_as_xyz
  1  'x, y, z'
loop_
 _atom_site_type_symbol
 _atom_site_label
 _atom_site_symmetry_multiplicity
 _atom_site_fract_x
 _atom_site_fract_y
 _atom_site_fract_z
 _atom_site_occupancy
  Zn  Zn0  1  0.07077000  0.48916000  0.36575000  1
  Zn  Zn1  1  0.08695000  0.96783000  0.18855000  1
  Zn  Zn2  1  0.13729000  0.52562000  0.21898000  1
  Zn  Zn3  1  0.20170000  0.13456000  0.82008000  1
  Zn  Zn4  1  0.23192000  0.41406000  0.75143000  1
  Zn  Zn5  1  0.26420000  0.06899000  0.64112000  1
  Zn  Zn6  1  0.57077000  0.51084000  0.63425000  1
  Zn  Zn7  1  0.58695000  0.03217000  0.81145000  1
  Zn  Zn8  1  0.63729000  0.47438000  0.78102000  1
  Zn  Zn9  1  0.70170000  0.86544000  0.17992000  1
  Zn  Zn10  1  0.73192000  0.58594000  0.24857000  1
  Zn  Zn11  1  0.76420000  0.93101000  0.35888000  1
  H  H12  1  0.00650000  0.99560000  0.55780000  1
  H  H13  1  0.03170000  0.99680000  0.36240000  1
  H  H14  1  0.08510000  0.42470000  0.55800000  1
  H  H15  1  0.09230000  0.25390000  0.24200000  1
  H  H16  1  0.11540000  0.07610000  0.03590000  1
  H  H17  1  0.13970000  0.37070000  0.88230000  1
  H  H18  1  0.14650000  0.74550000  0.15620000  1
  H  H19  1  0.15480000  0.29090000  0.06280000  1
  H  H20  1  0.16690000  0.70380000  0.93620000  1
  H  H21  1  0.17340000  0.31000000  0.90960000  1
  H  H22  1  0.20170000  0.53440000  0.00160000  1
  H  H23  1  0.24240000  0.36950000  0.90450000  1
  H  H24  1  0.24670000  0.01880000  0.39680000  1
  H  H25  1  0.24820000  0.20180000  0.57350000  1
  H  H26  1  0.27010000  0.28990000  0.61550000  1
  H  H27  1  0.27530000  0.46650000  0.63190000  1
  H  H28  1  0.32050000  0.56280000  0.48640000  1
  H  H29  1  0.32700000  0.10830000  0.92700000  1
  H  H30  1  0.33320000  0.40400000  0.56630000  1
  H  H31  1  0.34640000  0.22950000  0.60600000  1
  H  H32  1  0.35910000  0.49100000  0.59750000  1
  H  H33  1  0.38740000  0.44310000  0.86500000  1
  H  H34  1  0.39400000  0.57980000  0.29570000  1
  H  H35  1  0.41120000  0.05600000  0.92110000  1
  H  H36  1  0.42260000  0.35990000  0.81280000  1
  H  H37  1  0.42650000  0.14030000  0.93220000  1
  H  H38  1  0.42780000  0.94910000  0.22930000  1
  H  H39  1  0.44050000  0.97000000  0.59300000  1
  H  H40  1  0.49260000  0.42650000  0.85490000  1
  H  H41  1  0.49380000  0.92450000  0.62990000  1
  H  H42  1  0.50650000  0.00440000  0.44220000  1
  H  H43  1  0.53170000  0.00320000  0.63760000  1
  H  H44  1  0.58510000  0.57530000  0.44200000  1
  H  H45  1  0.59230000  0.74610000  0.75800000  1
  H  H46  1  0.61540000  0.92390000  0.96410000  1
  H  H47  1  0.63970000  0.62930000  0.11770000  1
  H  H48  1  0.64650000  0.25450000  0.84380000  1
  H  H49  1  0.65480000  0.70910000  0.93720000  1
  H  H50  1  0.66690000  0.29620000  0.06380000  1
  H  H51  1  0.67340000  0.69000000  0.09040000  1
  H  H52  1  0.70170000  0.46560000  0.99840000  1
  H  H53  1  0.74240000  0.63050000  0.09550000  1
  H  H54  1  0.74670000  0.98120000  0.60320000  1
  H  H55  1  0.74820000  0.79820000  0.42650000  1
  H  H56  1  0.77010000  0.71010000  0.38450000  1
  H  H57  1  0.77530000  0.53350000  0.36810000  1
  H  H58  1  0.82050000  0.43720000  0.51360000  1
  H  H59  1  0.82700000  0.89170000  0.07300000  1
  H  H60  1  0.83320000  0.59600000  0.43370000  1
  H  H61  1  0.84640000  0.77050000  0.39400000  1
  H  H62  1  0.85910000  0.50900000  0.40250000  1
  H  H63  1  0.88740000  0.55690000  0.13500000  1
  H  H64  1  0.89400000  0.42020000  0.70430000  1
  H  H65  1  0.91120000  0.94400000  0.07890000  1
  H  H66  1  0.92260000  0.64010000  0.18720000  1
  H  H67  1  0.92650000  0.85970000  0.06780000  1
  H  H68  1  0.92780000  0.05090000  0.77070000  1
  H  H69  1  0.94050000  0.03000000  0.40700000  1
  H  H70  1  0.99260000  0.57350000  0.14510000  1
  H  H71  1  0.99380000  0.07550000  0.37010000  1
  C  C72  1  0.02410000  0.42330000  0.57080000  1
  C  C73  1  0.07430000  0.41220000  0.69130000  1
  C  C74  1  0.07900000  0.04980000  0.69520000  1
  C  C75  1  0.08320000  0.10100000  0.18020000  1
  C  C76  1  0.10060000  0.15830000  0.14400000  1
  C  C77  1  0.10360000  0.23530000  0.19000000  1
  C  C78  1  0.11740000  0.12860000  0.06740000  1
  C  C79  1  0.12310000  0.36850000  0.20810000  1
  C  C80  1  0.12340000  0.28570000  0.15960000  1
  C  C81  1  0.13230000  0.81930000  0.07070000  1
  C  C82  1  0.13710000  0.18070000  0.04010000  1
  C  C83  1  0.14060000  0.25780000  0.08430000  1
  C  C84  1  0.15200000  0.73620000  0.04610000  1
  C  C85  1  0.15420000  0.71060000  0.10530000  1
  C  C86  1  0.15880000  0.14740000  0.95330000  1
  C  C87  1  0.15990000  0.60800000  0.14710000  1
  C  C88  1  0.16710000  0.68580000  0.97330000  1
  C  C89  1  0.16770000  0.63450000  0.08550000  1
  C  C90  1  0.18350000  0.60640000  0.95010000  1
  C  C91  1  0.18630000  0.58470000  0.01240000  1
  C  C92  1  0.18970000  0.33840000  0.88150000  1
  C  C93  1  0.20240000  0.55240000  0.87230000  1
  C  C94  1  0.21140000  0.28290000  0.79980000  1
  C  C95  1  0.24910000  0.55710000  0.35550000  1
  C  C96  1  0.25380000  0.97360000  0.25040000  1
  C  C97  1  0.25490000  0.24170000  0.68790000  1
  C  C98  1  0.28230000  0.24060000  0.61430000  1
  C  C99  1  0.30680000  0.00810000  0.37990000  1
  C  C100  1  0.32460000  0.98380000  0.30350000  1
  C  C101  1  0.33560000  0.45200000  0.61100000  1
  C  C102  1  0.34210000  0.57000000  0.38590000  1
  C  C103  1  0.35460000  0.04270000  0.51410000  1
  C  C104  1  0.36590000  0.56740000  0.45520000  1
  C  C105  1  0.37350000  0.01700000  0.43170000  1
  C  C106  1  0.38850000  0.09560000  0.90860000  1
  C  C107  1  0.38990000  0.06680000  0.82140000  1
  C  C108  1  0.39540000  0.44570000  0.66790000  1
  C  C109  1  0.40960000  0.57820000  0.34120000  1
  C  C110  1  0.41350000  0.96650000  0.28070000  1
  C  C111  1  0.42440000  0.01580000  0.70790000  1
  C  C112  1  0.43430000  0.41370000  0.82990000  1
  C  C113  1  0.43470000  0.43070000  0.76650000  1
  C  C114  1  0.45310000  0.57160000  0.47560000  1
  C  C115  1  0.46090000  0.99920000  0.40710000  1
  C  C116  1  0.47730000  0.97470000  0.63570000  1
  C  C117  1  0.47920000  0.56480000  0.54820000  1
  C  C118  1  0.48350000  0.97420000  0.33240000  1
  C  C119  1  0.49940000  0.58400000  0.36250000  1
  C  C120  1  0.52410000  0.57670000  0.42920000  1
  C  C121  1  0.57430000  0.58780000  0.30870000  1
  C  C122  1  0.57900000  0.95020000  0.30480000  1
  C  C123  1  0.58320000  0.89900000  0.81980000  1
  C  C124  1  0.60060000  0.84170000  0.85600000  1
  C  C125  1  0.60360000  0.76470000  0.81000000  1
  C  C126  1  0.61740000  0.87140000  0.93260000  1
  C  C127  1  0.62310000  0.63150000  0.79190000  1
  C  C128  1  0.62340000  0.71430000  0.84040000  1
  C  C129  1  0.63230000  0.18070000  0.92930000  1
  C  C130  1  0.63710000  0.81930000  0.95990000  1
  C  C131  1  0.64060000  0.74220000  0.91570000  1
  C  C132  1  0.65200000  0.26380000  0.95390000  1
  C  C133  1  0.65420000  0.28940000  0.89470000  1
  C  C134  1  0.65880000  0.85260000  0.04670000  1
  C  C135  1  0.65990000  0.39200000  0.85290000  1
  C  C136  1  0.66710000  0.31420000  0.02670000  1
  C  C137  1  0.66770000  0.36550000  0.91450000  1
  C  C138  1  0.68350000  0.39360000  0.04990000  1
  C  C139  1  0.68630000  0.41530000  0.98760000  1
  C  C140  1  0.68970000  0.66160000  0.11850000  1
  C  C141  1  0.70240000  0.44760000  0.12770000  1
  C  C142  1  0.71140000  0.71710000  0.20020000  1
  C  C143  1  0.74910000  0.44290000  0.64450000  1
  C  C144  1  0.75380000  0.02640000  0.74960000  1
  C  C145  1  0.75490000  0.75830000  0.31210000  1
  C  C146  1  0.78230000  0.75940000  0.38570000  1
  C  C147  1  0.80680000  0.99190000  0.62010000  1
  C  C148  1  0.82460000  0.01620000  0.69650000  1
  C  C149  1  0.83560000  0.54800000  0.38900000  1
  C  C150  1  0.84210000  0.43000000  0.61410000  1
  C  C151  1  0.85460000  0.95730000  0.48590000  1
  C  C152  1  0.86590000  0.43260000  0.54480000  1
  C  C153  1  0.87350000  0.98300000  0.56830000  1
  C  C154  1  0.88850000  0.90440000  0.09140000  1
  C  C155  1  0.88990000  0.93320000  0.17860000  1
  C  C156  1  0.89540000  0.55430000  0.33210000  1
  C  C157  1  0.90960000  0.42180000  0.65880000  1
  C  C158  1  0.91350000  0.03350000  0.71930000  1
  C  C159  1  0.92440000  0.98420000  0.29210000  1
  C  C160  1  0.93430000  0.58630000  0.17010000  1
  C  C161  1  0.93470000  0.56930000  0.23350000  1
  C  C162  1  0.95310000  0.42840000  0.52440000  1
  C  C163  1  0.96090000  0.00080000  0.59290000  1
  C  C164  1  0.97730000  0.02530000  0.36430000  1
  C  C165  1  0.97920000  0.43520000  0.45180000  1
  C  C166  1  0.98350000  0.02580000  0.66760000  1
  C  C167  1  0.99940000  0.41600000  0.63750000  1
  N  N168  1  0.00950000  0.54450000  0.25810000  1
  N  N169  1  0.22020000  0.20920000  0.77360000  1
  N  N170  1  0.23170000  0.30750000  0.74780000  1
  N  N171  1  0.24650000  0.18270000  0.70150000  1
  N  N172  1  0.31380000  0.07320000  0.78360000  1
  N  N173  1  0.33930000  0.04260000  0.70940000  1
  N  N174  1  0.36390000  0.42830000  0.72250000  1
  N  N175  1  0.45450000  0.02870000  0.77410000  1
  N  N176  1  0.48410000  0.46260000  0.67880000  1
  N  N177  1  0.50950000  0.45550000  0.74190000  1
  N  N178  1  0.72020000  0.79080000  0.22640000  1
  N  N179  1  0.73170000  0.69250000  0.25220000  1
  N  N180  1  0.74650000  0.81730000  0.29850000  1
  N  N181  1  0.81380000  0.92680000  0.21640000  1
  N  N182  1  0.83930000  0.95740000  0.29060000  1
  N  N183  1  0.86390000  0.57170000  0.27750000  1
  N  N184  1  0.95450000  0.97130000  0.22590000  1
  N  N185  1  0.98410000  0.53740000  0.32120000  1
  O  O186  1  0.04720000  0.47470000  0.45590000  1
  O  O187  1  0.05010000  0.40860000  0.74860000  1
  O  O188  1  0.06280000  0.12770000  0.24650000  1
  O  O189  1  0.09140000  0.08030000  0.76330000  1
  O  O190  1  0.09250000  0.85560000  0.13150000  1
  O  O191  1  0.09640000  0.03290000  0.13580000  1
  O  O192  1  0.10380000  0.39190000  0.28120000  1
  O  O193  1  0.13850000  0.03390000  0.64350000  1
  O  O194  1  0.13940000  0.41280000  0.17990000  1
  O  O195  1  0.14860000  0.65200000  0.21270000  1
  O  O196  1  0.14910000  0.84290000  0.02060000  1
  O  O197  1  0.15480000  0.41180000  0.66740000  1
  O  O198  1  0.16020000  0.07810000  0.91570000  1
  O  O199  1  0.16750000  0.53470000  0.12460000  1
  O  O200  1  0.17280000  0.98580000  0.27260000  1
  O  O201  1  0.17670000  0.19620000  0.92810000  1
  O  O202  1  0.18770000  0.54480000  0.39680000  1
  O  O203  1  0.19430000  0.57450000  0.82300000  1
  O  O204  1  0.22230000  0.48660000  0.85940000  1
  O  O205  1  0.23270000  0.56030000  0.29530000  1
  O  O206  1  0.27200000  0.95370000  0.18110000  1
  O  O207  1  0.27520000  0.03190000  0.53230000  1
  O  O208  1  0.40830000  0.07880000  0.56400000  1
  O  O209  1  0.43030000  0.59640000  0.60410000  1
  O  O210  1  0.54720000  0.52530000  0.54410000  1
  O  O211  1  0.55010000  0.59140000  0.25140000  1
  O  O212  1  0.56280000  0.87230000  0.75350000  1
  O  O213  1  0.59140000  0.91970000  0.23670000  1
  O  O214  1  0.59250000  0.14440000  0.86850000  1
  O  O215  1  0.59640000  0.96710000  0.86420000  1
  O  O216  1  0.60380000  0.60810000  0.71880000  1
  O  O217  1  0.63850000  0.96610000  0.35650000  1
  O  O218  1  0.63940000  0.58720000  0.82010000  1
  O  O219  1  0.64860000  0.34800000  0.78730000  1
  O  O220  1  0.64910000  0.15710000  0.97940000  1
  O  O221  1  0.65480000  0.58820000  0.33260000  1
  O  O222  1  0.66020000  0.92190000  0.08430000  1
  O  O223  1  0.66750000  0.46530000  0.87540000  1
  O  O224  1  0.67280000  0.01420000  0.72740000  1
  O  O225  1  0.67670000  0.80380000  0.07190000  1
  O  O226  1  0.68770000  0.45520000  0.60320000  1
  O  O227  1  0.69430000  0.42550000  0.17700000  1
  O  O228  1  0.72230000  0.51340000  0.14060000  1
  O  O229  1  0.73270000  0.43970000  0.70470000  1
  O  O230  1  0.77200000  0.04630000  0.81890000  1
  O  O231  1  0.77520000  0.96810000  0.46770000  1
  O  O232  1  0.90830000  0.92120000  0.43600000  1
  O  O233  1  0.93030000  0.40360000  0.39590000  1
