# generated using pymatgen
data_CuH7C11S(NO2)2
_symmetry_space_group_name_H-M   'P 1'
_cell_length_a   8.52200000
_cell_length_b   10.18000000
_cell_length_c   17.53400000
_cell_angle_alpha   90.00000000
_cell_angle_beta   100.62700000
_cell_angle_gamma   90.00000000
_symmetry_Int_Tables_number   1
_chemical_formula_structural   CuH7C11S(NO2)2
_chemical_formula_sum   'Cu4 H28 C44 S4 N8 O16'
_cell_volume   1495.05411808
_cell_formula_units_Z   4
loop_
 _symmetry_equiv_pos_site_id
 _symmetry_equiv_pos_as_xyz
  1  'x, y, z'
loop_
 _atom_site_type_symbol
 _atom_site_label
 _atom_site_symmetry_multiplicity
 _atom_site_fract_x
 _atom_site_fract_y
 _atom_site_fract_z
 _atom_site_occupancy
  Cu  Cu0  1  0.01522000  0.67292000  0.09536000  1
  Cu  Cu1  1  0.48478000  0.17292000  0.40464000  1
  Cu  Cu2  1  0.51522000  0.82708000  0.59536000  1
  Cu  Cu3  1  0.98478000  0.32708000  0.90464000  1
  H  H4  1  0.00530000  0.36780000  0.39700000  1
  H  H5  1  0.00550000  0.77780000  0.34380000  1
  H  H6  1  0.06730000  0.88640000  0.46370000  1
  H  H7  1  0.08230000  0.11700000  0.02280000  1
  H  H8  1  0.16030000  0.49700000  0.22780000  1
  H  H9  1  0.19950000  0.48950000  0.43230000  1
  H  H10  1  0.22090000  0.75760000  0.64030000  1
  H  H11  1  0.27910000  0.25760000  0.85970000  1
  H  H12  1  0.30050000  0.98950000  0.06770000  1
  H  H13  1  0.33970000  0.99700000  0.27220000  1
  H  H14  1  0.41770000  0.61700000  0.47720000  1
  H  H15  1  0.43270000  0.38640000  0.03630000  1
  H  H16  1  0.49450000  0.27780000  0.15620000  1
  H  H17  1  0.49470000  0.86780000  0.10300000  1
  H  H18  1  0.50530000  0.13220000  0.89700000  1
  H  H19  1  0.50550000  0.72220000  0.84380000  1
  H  H20  1  0.56730000  0.61360000  0.96370000  1
  H  H21  1  0.58230000  0.38300000  0.52280000  1
  H  H22  1  0.66030000  0.00300000  0.72780000  1
  H  H23  1  0.69950000  0.01050000  0.93230000  1
  H  H24  1  0.72090000  0.74240000  0.14030000  1
  H  H25  1  0.77910000  0.24240000  0.35970000  1
  H  H26  1  0.80050000  0.51050000  0.56770000  1
  H  H27  1  0.83970000  0.50300000  0.77220000  1
  H  H28  1  0.91770000  0.88300000  0.97720000  1
  H  H29  1  0.93270000  0.11360000  0.53630000  1
  H  H30  1  0.99450000  0.22220000  0.65620000  1
  H  H31  1  0.99470000  0.63220000  0.60300000  1
  C  C32  1  0.07170000  0.54210000  0.51320000  1
  C  C33  1  0.07880000  0.62670000  0.57610000  1
  C  C34  1  0.08310000  0.84310000  0.35230000  1
  C  C35  1  0.11980000  0.90840000  0.42350000  1
  C  C36  1  0.13640000  0.81660000  0.21540000  1
  C  C37  1  0.16700000  0.87920000  0.29430000  1
  C  C38  1  0.16940000  0.12110000  0.99780000  1
  C  C39  1  0.20050000  0.54240000  0.47560000  1
  C  C40  1  0.21550000  0.70270000  0.59750000  1
  C  C41  1  0.21880000  0.47530000  0.18970000  1
  C  C42  1  0.23300000  0.00460000  0.43360000  1
  C  C43  1  0.26700000  0.50460000  0.06640000  1
  C  C44  1  0.28120000  0.97530000  0.31030000  1
  C  C45  1  0.28450000  0.20270000  0.90250000  1
  C  C46  1  0.29950000  0.04240000  0.02440000  1
  C  C47  1  0.33060000  0.62110000  0.50220000  1
  C  C48  1  0.33300000  0.37920000  0.20570000  1
  C  C49  1  0.36360000  0.31660000  0.28460000  1
  C  C50  1  0.38020000  0.40840000  0.07650000  1
  C  C51  1  0.41690000  0.34310000  0.14770000  1
  C  C52  1  0.42120000  0.12670000  0.92390000  1
  C  C53  1  0.42830000  0.04210000  0.98680000  1
  C  C54  1  0.57170000  0.95790000  0.01320000  1
  C  C55  1  0.57880000  0.87330000  0.07610000  1
  C  C56  1  0.58310000  0.65690000  0.85230000  1
  C  C57  1  0.61980000  0.59160000  0.92350000  1
  C  C58  1  0.63640000  0.68340000  0.71540000  1
  C  C59  1  0.66700000  0.62080000  0.79430000  1
  C  C60  1  0.66940000  0.37890000  0.49780000  1
  C  C61  1  0.70050000  0.95760000  0.97560000  1
  C  C62  1  0.71550000  0.79730000  0.09750000  1
  C  C63  1  0.71880000  0.02470000  0.68970000  1
  C  C64  1  0.73300000  0.49540000  0.93360000  1
  C  C65  1  0.76700000  0.99540000  0.56640000  1
  C  C66  1  0.78120000  0.52470000  0.81030000  1
  C  C67  1  0.78450000  0.29730000  0.40250000  1
  C  C68  1  0.79950000  0.45760000  0.52440000  1
  C  C69  1  0.83060000  0.87890000  0.00220000  1
  C  C70  1  0.83300000  0.12080000  0.70570000  1
  C  C71  1  0.86360000  0.18340000  0.78460000  1
  C  C72  1  0.88020000  0.09160000  0.57650000  1
  C  C73  1  0.91690000  0.15690000  0.64770000  1
  C  C74  1  0.92120000  0.37330000  0.42390000  1
  C  C75  1  0.92830000  0.45790000  0.48680000  1
  S  S76  1  0.21640000  0.59668000  0.97645000  1
  S  S77  1  0.28360000  0.09668000  0.52355000  1
  S  S78  1  0.71640000  0.90332000  0.47645000  1
  S  S79  1  0.78360000  0.40332000  0.02355000  1
  N  N80  1  0.16280000  0.20190000  0.93850000  1
  N  N81  1  0.18770000  0.53950000  0.12190000  1
  N  N82  1  0.31230000  0.03950000  0.37810000  1
  N  N83  1  0.33720000  0.70190000  0.56150000  1
  N  N84  1  0.66280000  0.29810000  0.43850000  1
  N  N85  1  0.68770000  0.96050000  0.62190000  1
  N  N86  1  0.81230000  0.46050000  0.87810000  1
  N  N87  1  0.83720000  0.79810000  0.06150000  1
  O  O88  1  0.03030000  0.72480000  0.20470000  1
  O  O89  1  0.06660000  0.66550000  0.99020000  1
  O  O90  1  0.17740000  0.49190000  0.91680000  1
  O  O91  1  0.20920000  0.85350000  0.16550000  1
  O  O92  1  0.29080000  0.35350000  0.33450000  1
  O  O93  1  0.32260000  0.99190000  0.58320000  1
  O  O94  1  0.43340000  0.16550000  0.50980000  1
  O  O95  1  0.46970000  0.22480000  0.29530000  1
  O  O96  1  0.53030000  0.77520000  0.70470000  1
  O  O97  1  0.56660000  0.83450000  0.49020000  1
  O  O98  1  0.67740000  0.00810000  0.41680000  1
  O  O99  1  0.70920000  0.64650000  0.66550000  1
  O  O100  1  0.79080000  0.14650000  0.83450000  1
  O  O101  1  0.82260000  0.50810000  0.08320000  1
  O  O102  1  0.93340000  0.33450000  0.00980000  1
  O  O103  1  0.96970000  0.27520000  0.79530000  1
