# generated using pymatgen
data_Zn6H17C45O22
_symmetry_space_group_name_H-M   'P 1'
_cell_length_a   20.13080000
_cell_length_b   27.40990000
_cell_length_c   45.33380000
_cell_angle_alpha   90.00000000
_cell_angle_beta   90.00000000
_cell_angle_gamma   90.00000000
_symmetry_Int_Tables_number   1
_chemical_formula_structural   Zn6H17C45O22
_chemical_formula_sum   'Zn48 H136 C360 O176'
_cell_volume   25014.42990854
_cell_formula_units_Z   8
loop_
 _symmetry_equiv_pos_site_id
 _symmetry_equiv_pos_as_xyz
  1  'x, y, z'
loop_
 _atom_site_type_symbol
 _atom_site_label
 _atom_site_symmetry_multiplicity
 _atom_site_fract_x
 _atom_site_fract_y
 _atom_site_fract_z
 _atom_site_occupancy
  Zn  Zn0  1  0.02536000  0.18000000  0.34919000  1
  Zn  Zn1  1  0.02536000  0.68000000  0.65081000  1
  Zn  Zn2  1  0.04395000  0.18850000  0.14401000  1
  Zn  Zn3  1  0.04395000  0.68850000  0.85599000  1
  Zn  Zn4  1  0.06842000  0.12813000  0.08297000  1
  Zn  Zn5  1  0.06842000  0.62813000  0.91703000  1
  Zn  Zn6  1  0.07608000  0.13342000  0.41297000  1
  Zn  Zn7  1  0.07608000  0.63342000  0.58703000  1
  Zn  Zn8  1  0.09078000  0.25094000  0.08517000  1
  Zn  Zn9  1  0.09078000  0.75094000  0.91483000  1
  Zn  Zn10  1  0.17061000  0.31142000  0.91528000  1
  Zn  Zn11  1  0.17061000  0.81142000  0.08472000  1
  Zn  Zn12  1  0.18636000  0.25097000  0.59019000  1
  Zn  Zn13  1  0.18636000  0.75097000  0.40981000  1
  Zn  Zn14  1  0.22898000  0.37102000  0.58401000  1
  Zn  Zn15  1  0.22898000  0.87102000  0.41599000  1
  Zn  Zn16  1  0.24038000  0.31361000  0.64721000  1
  Zn  Zn17  1  0.24038000  0.81361000  0.35279000  1
  Zn  Zn18  1  0.25258000  0.32384000  0.85081000  1
  Zn  Zn19  1  0.25258000  0.82384000  0.14919000  1
  Zn  Zn20  1  0.32725000  0.31417000  0.91749000  1
  Zn  Zn21  1  0.32725000  0.81417000  0.08251000  1
  Zn  Zn22  1  0.45918000  0.28752000  0.41516000  1
  Zn  Zn23  1  0.45918000  0.78752000  0.58484000  1
  Zn  Zn24  1  0.52536000  0.32000000  0.34919000  1
  Zn  Zn25  1  0.52536000  0.82000000  0.65081000  1
  Zn  Zn26  1  0.54395000  0.31150000  0.14401000  1
  Zn  Zn27  1  0.54395000  0.81150000  0.85599000  1
  Zn  Zn28  1  0.56842000  0.37187000  0.08297000  1
  Zn  Zn29  1  0.56842000  0.87187000  0.91703000  1
  Zn  Zn30  1  0.57608000  0.36658000  0.41297000  1
  Zn  Zn31  1  0.57608000  0.86658000  0.58703000  1
  Zn  Zn32  1  0.59078000  0.24906000  0.08517000  1
  Zn  Zn33  1  0.59078000  0.74906000  0.91483000  1
  Zn  Zn34  1  0.67061000  0.18858000  0.91528000  1
  Zn  Zn35  1  0.67061000  0.68858000  0.08472000  1
  Zn  Zn36  1  0.68636000  0.24903000  0.59019000  1
  Zn  Zn37  1  0.68636000  0.74903000  0.40981000  1
  Zn  Zn38  1  0.72898000  0.12898000  0.58401000  1
  Zn  Zn39  1  0.72898000  0.62898000  0.41599000  1
  Zn  Zn40  1  0.74038000  0.18639000  0.64721000  1
  Zn  Zn41  1  0.74038000  0.68639000  0.35279000  1
  Zn  Zn42  1  0.75258000  0.17616000  0.85081000  1
  Zn  Zn43  1  0.75258000  0.67616000  0.14919000  1
  Zn  Zn44  1  0.82725000  0.18583000  0.91749000  1
  Zn  Zn45  1  0.82725000  0.68583000  0.08251000  1
  Zn  Zn46  1  0.95918000  0.21248000  0.41516000  1
  Zn  Zn47  1  0.95918000  0.71248000  0.58484000  1
  H  H48  1  0.00840000  0.23730000  0.88120000  1
  H  H49  1  0.00840000  0.73730000  0.11880000  1
  H  H50  1  0.06150000  0.40570000  0.53090000  1
  H  H51  1  0.06150000  0.90570000  0.46910000  1
  H  H52  1  0.06770000  0.21340000  0.39620000  1
  H  H53  1  0.06770000  0.71340000  0.60380000  1
  H  H54  1  0.08900000  0.26630000  0.70490000  1
  H  H55  1  0.08900000  0.76630000  0.29510000  1
  H  H56  1  0.09060000  0.27280000  0.80460000  1
  H  H57  1  0.09060000  0.77280000  0.19540000  1
  H  H58  1  0.09230000  0.26810000  0.50510000  1
  H  H59  1  0.09230000  0.76810000  0.49490000  1
  H  H60  1  0.10350000  0.07410000  0.20120000  1
  H  H61  1  0.10350000  0.57410000  0.79880000  1
  H  H62  1  0.11770000  0.07160000  0.30340000  1
  H  H63  1  0.11770000  0.57160000  0.69660000  1
  H  H64  1  0.15270000  0.00730000  0.12570000  1
  H  H65  1  0.15270000  0.50730000  0.87430000  1
  H  H66  1  0.15730000  0.49940000  0.62170000  1
  H  H67  1  0.15730000  0.99940000  0.37830000  1
  H  H68  1  0.17890000  0.24890000  0.29790000  1
  H  H69  1  0.17890000  0.74890000  0.70210000  1
  H  H70  1  0.18010000  0.23550000  0.00080000  1
  H  H71  1  0.18010000  0.73550000  0.99920000  1
  H  H72  1  0.19060000  0.24450000  0.20040000  1
  H  H73  1  0.19060000  0.74450000  0.79960000  1
  H  H74  1  0.19730000  0.43830000  0.69990000  1
  H  H75  1  0.19730000  0.93830000  0.30010000  1
  H  H76  1  0.20070000  0.44590000  0.79720000  1
  H  H77  1  0.20070000  0.94590000  0.20280000  1
  H  H78  1  0.23600000  0.10110000  0.02610000  1
  H  H79  1  0.23600000  0.60110000  0.97390000  1
  H  H80  1  0.24790000  0.36810000  0.89800000  1
  H  H81  1  0.24790000  0.86810000  0.10200000  1
  H  H82  1  0.26630000  0.25690000  0.37690000  1
  H  H83  1  0.26630000  0.75690000  0.62310000  1
  H  H84  1  0.28760000  0.30070000  0.59980000  1
  H  H85  1  0.28760000  0.80070000  0.40020000  1
  H  H86  1  0.28950000  0.26280000  0.12440000  1
  H  H87  1  0.28950000  0.76280000  0.87560000  1
  H  H88  1  0.31130000  0.47840000  0.97470000  1
  H  H89  1  0.31130000  0.97840000  0.02530000  1
  H  H90  1  0.31140000  0.16050000  0.95240000  1
  H  H91  1  0.31140000  0.66050000  0.04760000  1
  H  H92  1  0.36490000  0.35280000  0.49080000  1
  H  H93  1  0.36490000  0.85280000  0.50920000  1
  H  H94  1  0.36890000  0.47320000  0.54120000  1
  H  H95  1  0.36890000  0.97320000  0.45880000  1
  H  H96  1  0.37510000  0.27440000  0.30370000  1
  H  H97  1  0.37510000  0.77440000  0.69630000  1
  H  H98  1  0.38260000  0.28520000  0.20130000  1
  H  H99  1  0.38260000  0.78520000  0.79870000  1
  H  H100  1  0.40180000  0.28170000  0.70580000  1
  H  H101  1  0.40180000  0.78170000  0.29420000  1
  H  H102  1  0.41410000  0.29370000  0.80590000  1
  H  H103  1  0.41410000  0.79370000  0.19410000  1
  H  H104  1  0.42460000  0.48410000  0.04800000  1
  H  H105  1  0.42460000  0.98410000  0.95200000  1
  H  H106  1  0.43030000  0.36710000  0.99500000  1
  H  H107  1  0.43030000  0.86710000  0.00500000  1
  H  H108  1  0.46920000  0.14580000  0.45930000  1
  H  H109  1  0.46920000  0.64580000  0.54070000  1
  H  H110  1  0.48410000  0.46380000  0.46920000  1
  H  H111  1  0.48410000  0.96380000  0.53080000  1
  H  H112  1  0.49080000  0.25370000  0.62840000  1
  H  H113  1  0.49080000  0.75370000  0.37160000  1
  H  H114  1  0.49810000  0.30630000  0.09620000  1
  H  H115  1  0.49810000  0.80630000  0.90380000  1
  H  H116  1  0.50840000  0.26270000  0.88120000  1
  H  H117  1  0.50840000  0.76270000  0.11880000  1
  H  H118  1  0.56150000  0.09430000  0.53090000  1
  H  H119  1  0.56150000  0.59430000  0.46910000  1
  H  H120  1  0.56770000  0.28660000  0.39620000  1
  H  H121  1  0.56770000  0.78660000  0.60380000  1
  H  H122  1  0.58900000  0.23370000  0.70490000  1
  H  H123  1  0.58900000  0.73370000  0.29510000  1
  H  H124  1  0.59060000  0.22720000  0.80460000  1
  H  H125  1  0.59060000  0.72720000  0.19540000  1
  H  H126  1  0.59230000  0.23190000  0.50510000  1
  H  H127  1  0.59230000  0.73190000  0.49490000  1
  H  H128  1  0.60350000  0.42590000  0.20120000  1
  H  H129  1  0.60350000  0.92590000  0.79880000  1
  H  H130  1  0.61770000  0.42840000  0.30340000  1
  H  H131  1  0.61770000  0.92840000  0.69660000  1
  H  H132  1  0.65270000  0.49270000  0.12570000  1
  H  H133  1  0.65270000  0.99270000  0.87430000  1
  H  H134  1  0.65730000  0.00060000  0.62170000  1
  H  H135  1  0.65730000  0.50060000  0.37830000  1
  H  H136  1  0.67890000  0.25110000  0.29790000  1
  H  H137  1  0.67890000  0.75110000  0.70210000  1
  H  H138  1  0.68010000  0.26450000  0.00080000  1
  H  H139  1  0.68010000  0.76450000  0.99920000  1
  H  H140  1  0.69060000  0.25550000  0.20040000  1
  H  H141  1  0.69060000  0.75550000  0.79960000  1
  H  H142  1  0.69730000  0.06170000  0.69990000  1
  H  H143  1  0.69730000  0.56170000  0.30010000  1
  H  H144  1  0.70070000  0.05410000  0.79720000  1
  H  H145  1  0.70070000  0.55410000  0.20280000  1
  H  H146  1  0.73600000  0.39890000  0.02610000  1
  H  H147  1  0.73600000  0.89890000  0.97390000  1
  H  H148  1  0.74790000  0.13190000  0.89800000  1
  H  H149  1  0.74790000  0.63190000  0.10200000  1
  H  H150  1  0.76630000  0.24310000  0.37690000  1
  H  H151  1  0.76630000  0.74310000  0.62310000  1
  H  H152  1  0.78760000  0.19930000  0.59980000  1
  H  H153  1  0.78760000  0.69930000  0.40020000  1
  H  H154  1  0.78950000  0.23720000  0.12440000  1
  H  H155  1  0.78950000  0.73720000  0.87560000  1
  H  H156  1  0.81130000  0.02160000  0.97470000  1
  H  H157  1  0.81130000  0.52160000  0.02530000  1
  H  H158  1  0.81140000  0.33950000  0.95240000  1
  H  H159  1  0.81140000  0.83950000  0.04760000  1
  H  H160  1  0.86490000  0.14720000  0.49080000  1
  H  H161  1  0.86490000  0.64720000  0.50920000  1
  H  H162  1  0.86890000  0.02680000  0.54120000  1
  H  H163  1  0.86890000  0.52680000  0.45880000  1
  H  H164  1  0.87510000  0.22560000  0.30370000  1
  H  H165  1  0.87510000  0.72560000  0.69630000  1
  H  H166  1  0.88260000  0.21480000  0.20130000  1
  H  H167  1  0.88260000  0.71480000  0.79870000  1
  H  H168  1  0.90180000  0.21830000  0.70580000  1
  H  H169  1  0.90180000  0.71830000  0.29420000  1
  H  H170  1  0.91410000  0.20630000  0.80590000  1
  H  H171  1  0.91410000  0.70630000  0.19410000  1
  H  H172  1  0.92460000  0.01590000  0.04800000  1
  H  H173  1  0.92460000  0.51590000  0.95200000  1
  H  H174  1  0.93030000  0.13290000  0.99500000  1
  H  H175  1  0.93030000  0.63290000  0.00500000  1
  H  H176  1  0.96920000  0.35420000  0.45930000  1
  H  H177  1  0.96920000  0.85420000  0.54070000  1
  H  H178  1  0.98410000  0.03620000  0.46920000  1
  H  H179  1  0.98410000  0.53620000  0.53080000  1
  H  H180  1  0.99080000  0.24630000  0.62840000  1
  H  H181  1  0.99080000  0.74630000  0.37160000  1
  H  H182  1  0.99810000  0.19370000  0.09620000  1
  H  H183  1  0.99810000  0.69370000  0.90380000  1
  C  C184  1  0.00120000  0.23800000  0.79983000  1
  C  C185  1  0.00120000  0.73800000  0.20017000  1
  C  C186  1  0.00610000  0.23800000  0.86072000  1
  C  C187  1  0.00610000  0.73800000  0.13928000  1
  C  C188  1  0.00970000  0.38780000  0.49494000  1
  C  C189  1  0.00970000  0.88780000  0.50506000  1
  C  C190  1  0.01520000  0.26340000  0.45821000  1
  C  C191  1  0.01520000  0.76340000  0.54179000  1
  C  C192  1  0.02840000  0.30510000  0.47872000  1
  C  C193  1  0.02840000  0.80510000  0.52128000  1
  C  C194  1  0.05020000  0.25740000  0.66404000  1
  C  C195  1  0.05020000  0.75740000  0.33596000  1
  C  C196  1  0.05100000  0.25670000  0.69483000  1
  C  C197  1  0.05100000  0.75670000  0.30517000  1
  C  C198  1  0.05270000  0.38020000  0.51793000  1
  C  C199  1  0.05270000  0.88020000  0.48207000  1
  C  C200  1  0.05540000  0.25920000  0.81510000  1
  C  C201  1  0.05540000  0.75920000  0.18490000  1
  C  C202  1  0.05600000  0.25960000  0.84517000  1
  C  C203  1  0.05600000  0.75960000  0.15483000  1
  C  C204  1  0.07150000  0.29810000  0.50256000  1
  C  C205  1  0.07150000  0.79810000  0.49744000  1
  C  C206  1  0.08320000  0.33550000  0.52234000  1
  C  C207  1  0.08320000  0.83550000  0.47766000  1
  C  C208  1  0.09440000  0.08940000  0.14343000  1
  C  C209  1  0.09440000  0.58940000  0.85657000  1
  C  C210  1  0.10910000  0.08580000  0.36088000  1
  C  C211  1  0.10910000  0.58580000  0.63912000  1
  C  C212  1  0.11180000  0.27390000  0.64733000  1
  C  C213  1  0.11180000  0.77390000  0.35267000  1
  C  C214  1  0.11200000  0.28350000  0.86146000  1
  C  C215  1  0.11200000  0.78350000  0.13854000  1
  C  C216  1  0.12330000  0.04810000  0.19144000  1
  C  C217  1  0.12330000  0.54810000  0.80856000  1
  C  C218  1  0.12530000  0.04690000  0.16077000  1
  C  C219  1  0.12530000  0.54690000  0.83923000  1
  C  C220  1  0.12950000  0.32740000  0.54808000  1
  C  C221  1  0.12950000  0.82740000  0.45192000  1
  C  C222  1  0.13260000  0.04200000  0.34408000  1
  C  C223  1  0.13260000  0.54200000  0.65592000  1
  C  C224  1  0.13300000  0.04380000  0.31295000  1
  C  C225  1  0.13300000  0.54380000  0.68705000  1
  C  C226  1  0.14570000  0.24030000  0.35406000  1
  C  C227  1  0.14570000  0.74030000  0.64594000  1
  C  C228  1  0.15110000  0.00960000  0.23885000  1
  C  C229  1  0.15110000  0.50960000  0.76115000  1
  C  C230  1  0.15170000  0.00940000  0.20740000  1
  C  C231  1  0.15170000  0.50940000  0.79260000  1
  C  C232  1  0.15290000  0.00780000  0.14622000  1
  C  C233  1  0.15290000  0.50780000  0.85378000  1
  C  C234  1  0.15320000  0.00710000  0.26543000  1
  C  C235  1  0.15320000  0.50710000  0.73457000  1
  C  C236  1  0.15550000  0.00500000  0.29666000  1
  C  C237  1  0.15550000  0.50500000  0.70334000  1
  C  C238  1  0.15660000  0.00100000  0.35777000  1
  C  C239  1  0.15660000  0.50100000  0.64223000  1
  C  C240  1  0.16020000  0.17340000  0.04525000  1
  C  C241  1  0.16020000  0.67340000  0.95475000  1
  C  C242  1  0.16950000  0.23470000  0.14381000  1
  C  C243  1  0.16950000  0.73470000  0.85619000  1
  C  C244  1  0.18020000  0.46160000  0.65878000  1
  C  C245  1  0.18020000  0.96160000  0.34122000  1
  C  C246  1  0.18030000  0.46980000  0.83876000  1
  C  C247  1  0.18030000  0.96980000  0.16124000  1
  C  C248  1  0.18040000  0.46410000  0.68897000  1
  C  C249  1  0.18040000  0.96410000  0.31103000  1
  C  C250  1  0.18070000  0.47110000  0.80772000  1
  C  C251  1  0.18070000  0.97110000  0.19228000  1
  C  C252  1  0.20320000  0.16900000  0.01834000  1
  C  C253  1  0.20320000  0.66900000  0.98166000  1
  C  C254  1  0.20480000  0.41720000  0.64292000  1
  C  C255  1  0.20480000  0.91720000  0.35708000  1
  C  C256  1  0.20530000  0.20750000  0.99791000  1
  C  C257  1  0.20530000  0.70750000  0.00209000  1
  C  C258  1  0.21000000  0.42600000  0.85469000  1
  C  C259  1  0.21000000  0.92600000  0.14531000  1
  C  C260  1  0.21100000  0.25180000  0.33950000  1
  C  C261  1  0.21100000  0.75180000  0.66050000  1
  C  C262  1  0.21660000  0.25380000  0.30935000  1
  C  C263  1  0.21660000  0.75380000  0.69065000  1
  C  C264  1  0.22950000  0.25220000  0.19036000  1
  C  C265  1  0.22950000  0.75220000  0.80964000  1
  C  C266  1  0.23070000  0.25100000  0.15991000  1
  C  C267  1  0.23070000  0.75100000  0.84009000  1
  C  C268  1  0.23880000  0.12700000  0.01294000  1
  C  C269  1  0.23880000  0.62700000  0.98706000  1
  C  C270  1  0.24640000  0.20280000  0.97305000  1
  C  C271  1  0.24640000  0.70280000  0.02695000  1
  C  C272  1  0.24810000  0.24570000  0.95094000  1
  C  C273  1  0.24810000  0.74570000  0.04906000  1
  C  C274  1  0.26870000  0.25820000  0.35648000  1
  C  C275  1  0.26870000  0.75820000  0.64352000  1
  C  C276  1  0.27680000  0.26290000  0.29531000  1
  C  C277  1  0.27680000  0.76290000  0.70469000  1
  C  C278  1  0.27970000  0.12290000  0.98758000  1
  C  C279  1  0.27970000  0.62290000  0.01242000  1
  C  C280  1  0.28110000  0.26470000  0.26416000  1
  C  C281  1  0.28110000  0.76470000  0.73584000  1
  C  C282  1  0.28320000  0.16200000  0.96857000  1
  C  C283  1  0.28320000  0.66200000  0.03143000  1
  C  C284  1  0.28370000  0.26720000  0.23810000  1
  C  C285  1  0.28370000  0.76720000  0.76190000  1
  C  C286  1  0.28650000  0.26470000  0.20613000  1
  C  C287  1  0.28650000  0.76470000  0.79387000  1
  C  C288  1  0.28870000  0.26320000  0.14490000  1
  C  C289  1  0.28870000  0.76320000  0.85510000  1
  C  C290  1  0.31250000  0.38520000  0.54047000  1
  C  C291  1  0.31250000  0.88520000  0.45953000  1
  C  C292  1  0.31400000  0.07780000  0.98358000  1
  C  C293  1  0.31400000  0.57780000  0.01642000  1
  C  C294  1  0.32900000  0.26630000  0.34300000  1
  C  C295  1  0.32900000  0.76630000  0.65700000  1
  C  C296  1  0.33410000  0.26880000  0.31254000  1
  C  C297  1  0.33410000  0.76880000  0.68746000  1
  C  C298  1  0.33880000  0.03870000  0.98342000  1
  C  C299  1  0.33880000  0.53870000  0.01658000  1
  C  C300  1  0.33910000  0.38990000  0.95576000  1
  C  C301  1  0.33910000  0.88990000  0.04424000  1
  C  C302  1  0.34240000  0.46430000  0.98729000  1
  C  C303  1  0.34240000  0.96430000  0.01271000  1
  C  C304  1  0.34460000  0.27670000  0.19089000  1
  C  C305  1  0.34460000  0.77670000  0.80911000  1
  C  C306  1  0.34590000  0.27590000  0.16066000  1
  C  C307  1  0.34590000  0.77590000  0.83934000  1
  C  C308  1  0.36140000  0.40840000  0.52000000  1
  C  C309  1  0.36140000  0.90840000  0.48000000  1
  C  C310  1  0.36450000  0.49010000  0.01189000  1
  C  C311  1  0.36450000  0.99010000  0.98811000  1
  C  C312  1  0.36650000  0.41790000  0.98134000  1
  C  C313  1  0.36650000  0.91790000  0.01866000  1
  C  C314  1  0.37300000  0.28370000  0.64855000  1
  C  C315  1  0.37300000  0.78370000  0.35145000  1
  C  C316  1  0.38240000  0.38340000  0.49508000  1
  C  C317  1  0.38240000  0.88340000  0.50492000  1
  C  C318  1  0.38410000  0.45600000  0.52484000  1
  C  C319  1  0.38410000  0.95600000  0.47516000  1
  C  C320  1  0.39070000  0.27110000  0.36121000  1
  C  C321  1  0.39070000  0.77110000  0.63879000  1
  C  C322  1  0.39750000  0.30490000  0.86336000  1
  C  C323  1  0.39750000  0.80490000  0.13664000  1
  C  C324  1  0.40800000  0.28930000  0.14432000  1
  C  C325  1  0.40800000  0.78930000  0.85568000  1
  C  C326  1  0.41030000  0.46790000  0.03114000  1
  C  C327  1  0.41030000  0.96790000  0.96886000  1
  C  C328  1  0.41270000  0.39760000  0.99949000  1
  C  C329  1  0.41270000  0.89760000  0.00051000  1
  C  C330  1  0.42830000  0.47770000  0.50590000  1
  C  C331  1  0.42830000  0.97770000  0.49410000  1
  C  C332  1  0.42900000  0.40370000  0.47679000  1
  C  C333  1  0.42900000  0.90370000  0.52321000  1
  C  C334  1  0.43380000  0.42200000  0.02468000  1
  C  C335  1  0.43380000  0.92200000  0.97532000  1
  C  C336  1  0.43560000  0.26940000  0.66451000  1
  C  C337  1  0.43560000  0.76940000  0.33549000  1
  C  C338  1  0.43880000  0.27130000  0.69523000  1
  C  C339  1  0.43880000  0.77130000  0.30477000  1
  C  C340  1  0.45080000  0.28130000  0.81580000  1
  C  C341  1  0.45080000  0.78130000  0.18420000  1
  C  C342  1  0.45160000  0.28320000  0.84655000  1
  C  C343  1  0.45160000  0.78320000  0.15345000  1
  C  C344  1  0.45250000  0.45040000  0.48175000  1
  C  C345  1  0.45250000  0.95040000  0.51825000  1
  C  C346  1  0.45390000  0.02580000  0.49060000  1
  C  C347  1  0.45390000  0.52580000  0.50940000  1
  C  C348  1  0.45790000  0.37640000  0.45072000  1
  C  C349  1  0.45790000  0.87640000  0.54928000  1
  C  C350  1  0.47740000  0.06540000  0.49144000  1
  C  C351  1  0.47740000  0.56540000  0.50856000  1
  C  C352  1  0.48270000  0.39690000  0.04461000  1
  C  C353  1  0.48270000  0.89690000  0.95539000  1
  C  C354  1  0.49190000  0.25510000  0.64886000  1
  C  C355  1  0.49190000  0.75510000  0.35114000  1
  C  C356  1  0.49570000  0.25810000  0.71045000  1
  C  C357  1  0.49570000  0.75810000  0.28955000  1
  C  C358  1  0.49730000  0.26000000  0.74155000  1
  C  C359  1  0.49730000  0.76000000  0.25845000  1
  C  C360  1  0.49800000  0.15050000  0.47509000  1
  C  C361  1  0.49800000  0.65050000  0.52491000  1
  C  C362  1  0.49900000  0.26010000  0.76822000  1
  C  C363  1  0.49900000  0.76010000  0.23178000  1
  C  C364  1  0.50120000  0.26200000  0.79983000  1
  C  C365  1  0.50120000  0.76200000  0.20017000  1
  C  C366  1  0.50610000  0.26200000  0.86072000  1
  C  C367  1  0.50610000  0.76200000  0.13928000  1
  C  C368  1  0.50970000  0.11220000  0.49494000  1
  C  C369  1  0.50970000  0.61220000  0.50506000  1
  C  C370  1  0.51520000  0.23660000  0.45821000  1
  C  C371  1  0.51520000  0.73660000  0.54179000  1
  C  C372  1  0.52840000  0.19490000  0.47872000  1
  C  C373  1  0.52840000  0.69490000  0.52128000  1
  C  C374  1  0.55020000  0.24260000  0.66404000  1
  C  C375  1  0.55020000  0.74260000  0.33596000  1
  C  C376  1  0.55100000  0.24330000  0.69483000  1
  C  C377  1  0.55100000  0.74330000  0.30517000  1
  C  C378  1  0.55270000  0.11980000  0.51793000  1
  C  C379  1  0.55270000  0.61980000  0.48207000  1
  C  C380  1  0.55540000  0.24080000  0.81510000  1
  C  C381  1  0.55540000  0.74080000  0.18490000  1
  C  C382  1  0.55600000  0.24040000  0.84517000  1
  C  C383  1  0.55600000  0.74040000  0.15483000  1
  C  C384  1  0.57150000  0.20190000  0.50256000  1
  C  C385  1  0.57150000  0.70190000  0.49744000  1
  C  C386  1  0.58320000  0.16450000  0.52234000  1
  C  C387  1  0.58320000  0.66450000  0.47766000  1
  C  C388  1  0.59440000  0.41060000  0.14343000  1
  C  C389  1  0.59440000  0.91060000  0.85657000  1
  C  C390  1  0.60910000  0.41420000  0.36088000  1
  C  C391  1  0.60910000  0.91420000  0.63912000  1
  C  C392  1  0.61180000  0.22610000  0.64733000  1
  C  C393  1  0.61180000  0.72610000  0.35267000  1
  C  C394  1  0.61200000  0.21650000  0.86146000  1
  C  C395  1  0.61200000  0.71650000  0.13854000  1
  C  C396  1  0.62330000  0.45190000  0.19144000  1
  C  C397  1  0.62330000  0.95190000  0.80856000  1
  C  C398  1  0.62530000  0.45310000  0.16077000  1
  C  C399  1  0.62530000  0.95310000  0.83923000  1
  C  C400  1  0.62950000  0.17260000  0.54808000  1
  C  C401  1  0.62950000  0.67260000  0.45192000  1
  C  C402  1  0.63260000  0.45800000  0.34408000  1
  C  C403  1  0.63260000  0.95800000  0.65592000  1
  C  C404  1  0.63300000  0.45620000  0.31295000  1
  C  C405  1  0.63300000  0.95620000  0.68705000  1
  C  C406  1  0.64570000  0.25970000  0.35406000  1
  C  C407  1  0.64570000  0.75970000  0.64594000  1
  C  C408  1  0.65110000  0.49040000  0.23885000  1
  C  C409  1  0.65110000  0.99040000  0.76115000  1
  C  C410  1  0.65170000  0.49060000  0.20740000  1
  C  C411  1  0.65170000  0.99060000  0.79260000  1
  C  C412  1  0.65290000  0.49220000  0.14622000  1
  C  C413  1  0.65290000  0.99220000  0.85378000  1
  C  C414  1  0.65320000  0.49290000  0.26543000  1
  C  C415  1  0.65320000  0.99290000  0.73457000  1
  C  C416  1  0.65550000  0.49500000  0.29666000  1
  C  C417  1  0.65550000  0.99500000  0.70334000  1
  C  C418  1  0.65660000  0.49900000  0.35777000  1
  C  C419  1  0.65660000  0.99900000  0.64223000  1
  C  C420  1  0.66020000  0.32660000  0.04525000  1
  C  C421  1  0.66020000  0.82660000  0.95475000  1
  C  C422  1  0.66950000  0.26530000  0.14381000  1
  C  C423  1  0.66950000  0.76530000  0.85619000  1
  C  C424  1  0.68020000  0.03840000  0.65878000  1
  C  C425  1  0.68020000  0.53840000  0.34122000  1
  C  C426  1  0.68030000  0.03020000  0.83876000  1
  C  C427  1  0.68030000  0.53020000  0.16124000  1
  C  C428  1  0.68040000  0.03590000  0.68897000  1
  C  C429  1  0.68040000  0.53590000  0.31103000  1
  C  C430  1  0.68070000  0.02890000  0.80772000  1
  C  C431  1  0.68070000  0.52890000  0.19228000  1
  C  C432  1  0.70320000  0.33100000  0.01834000  1
  C  C433  1  0.70320000  0.83100000  0.98166000  1
  C  C434  1  0.70480000  0.08280000  0.64292000  1
  C  C435  1  0.70480000  0.58280000  0.35708000  1
  C  C436  1  0.70530000  0.29250000  0.99791000  1
  C  C437  1  0.70530000  0.79250000  0.00209000  1
  C  C438  1  0.71000000  0.07400000  0.85469000  1
  C  C439  1  0.71000000  0.57400000  0.14531000  1
  C  C440  1  0.71100000  0.24820000  0.33950000  1
  C  C441  1  0.71100000  0.74820000  0.66050000  1
  C  C442  1  0.71660000  0.24620000  0.30935000  1
  C  C443  1  0.71660000  0.74620000  0.69065000  1
  C  C444  1  0.72950000  0.24780000  0.19036000  1
  C  C445  1  0.72950000  0.74780000  0.80964000  1
  C  C446  1  0.73070000  0.24900000  0.15991000  1
  C  C447  1  0.73070000  0.74900000  0.84009000  1
  C  C448  1  0.73880000  0.37300000  0.01294000  1
  C  C449  1  0.73880000  0.87300000  0.98706000  1
  C  C450  1  0.74640000  0.29720000  0.97305000  1
  C  C451  1  0.74640000  0.79720000  0.02695000  1
  C  C452  1  0.74810000  0.25430000  0.95094000  1
  C  C453  1  0.74810000  0.75430000  0.04906000  1
  C  C454  1  0.76870000  0.24180000  0.35648000  1
  C  C455  1  0.76870000  0.74180000  0.64352000  1
  C  C456  1  0.77680000  0.23710000  0.29531000  1
  C  C457  1  0.77680000  0.73710000  0.70469000  1
  C  C458  1  0.77970000  0.37710000  0.98758000  1
  C  C459  1  0.77970000  0.87710000  0.01242000  1
  C  C460  1  0.78110000  0.23530000  0.26416000  1
  C  C461  1  0.78110000  0.73530000  0.73584000  1
  C  C462  1  0.78320000  0.33800000  0.96857000  1
  C  C463  1  0.78320000  0.83800000  0.03143000  1
  C  C464  1  0.78370000  0.23280000  0.23810000  1
  C  C465  1  0.78370000  0.73280000  0.76190000  1
  C  C466  1  0.78650000  0.23530000  0.20613000  1
  C  C467  1  0.78650000  0.73530000  0.79387000  1
  C  C468  1  0.78870000  0.23680000  0.14490000  1
  C  C469  1  0.78870000  0.73680000  0.85510000  1
  C  C470  1  0.81250000  0.11480000  0.54047000  1
  C  C471  1  0.81250000  0.61480000  0.45953000  1
  C  C472  1  0.81400000  0.42220000  0.98358000  1
  C  C473  1  0.81400000  0.92220000  0.01642000  1
  C  C474  1  0.82900000  0.23370000  0.34300000  1
  C  C475  1  0.82900000  0.73370000  0.65700000  1
  C  C476  1  0.83410000  0.23120000  0.31254000  1
  C  C477  1  0.83410000  0.73120000  0.68746000  1
  C  C478  1  0.83880000  0.46130000  0.98342000  1
  C  C479  1  0.83880000  0.96130000  0.01658000  1
  C  C480  1  0.83910000  0.11010000  0.95576000  1
  C  C481  1  0.83910000  0.61010000  0.04424000  1
  C  C482  1  0.84240000  0.03570000  0.98729000  1
  C  C483  1  0.84240000  0.53570000  0.01271000  1
  C  C484  1  0.84460000  0.22330000  0.19089000  1
  C  C485  1  0.84460000  0.72330000  0.80911000  1
  C  C486  1  0.84590000  0.22410000  0.16066000  1
  C  C487  1  0.84590000  0.72410000  0.83934000  1
  C  C488  1  0.86140000  0.09160000  0.52000000  1
  C  C489  1  0.86140000  0.59160000  0.48000000  1
  C  C490  1  0.86450000  0.00990000  0.01189000  1
  C  C491  1  0.86450000  0.50990000  0.98811000  1
  C  C492  1  0.86650000  0.08210000  0.98134000  1
  C  C493  1  0.86650000  0.58210000  0.01866000  1
  C  C494  1  0.87300000  0.21630000  0.64855000  1
  C  C495  1  0.87300000  0.71630000  0.35145000  1
  C  C496  1  0.88240000  0.11660000  0.49508000  1
  C  C497  1  0.88240000  0.61660000  0.50492000  1
  C  C498  1  0.88410000  0.04400000  0.52484000  1
  C  C499  1  0.88410000  0.54400000  0.47516000  1
  C  C500  1  0.89070000  0.22890000  0.36121000  1
  C  C501  1  0.89070000  0.72890000  0.63879000  1
  C  C502  1  0.89750000  0.19510000  0.86336000  1
  C  C503  1  0.89750000  0.69510000  0.13664000  1
  C  C504  1  0.90800000  0.21070000  0.14432000  1
  C  C505  1  0.90800000  0.71070000  0.85568000  1
  C  C506  1  0.91030000  0.03210000  0.03114000  1
  C  C507  1  0.91030000  0.53210000  0.96886000  1
  C  C508  1  0.91270000  0.10240000  0.99949000  1
  C  C509  1  0.91270000  0.60240000  0.00051000  1
  C  C510  1  0.92830000  0.02230000  0.50590000  1
  C  C511  1  0.92830000  0.52230000  0.49410000  1
  C  C512  1  0.92900000  0.09630000  0.47679000  1
  C  C513  1  0.92900000  0.59630000  0.52321000  1
  C  C514  1  0.93380000  0.07800000  0.02468000  1
  C  C515  1  0.93380000  0.57800000  0.97532000  1
  C  C516  1  0.93560000  0.23060000  0.66451000  1
  C  C517  1  0.93560000  0.73060000  0.33549000  1
  C  C518  1  0.93880000  0.22870000  0.69523000  1
  C  C519  1  0.93880000  0.72870000  0.30477000  1
  C  C520  1  0.95080000  0.21870000  0.81580000  1
  C  C521  1  0.95080000  0.71870000  0.18420000  1
  C  C522  1  0.95160000  0.21680000  0.84655000  1
  C  C523  1  0.95160000  0.71680000  0.15345000  1
  C  C524  1  0.95250000  0.04960000  0.48175000  1
  C  C525  1  0.95250000  0.54960000  0.51825000  1
  C  C526  1  0.95390000  0.47420000  0.49060000  1
  C  C527  1  0.95390000  0.97420000  0.50940000  1
  C  C528  1  0.95790000  0.12360000  0.45072000  1
  C  C529  1  0.95790000  0.62360000  0.54928000  1
  C  C530  1  0.97740000  0.43460000  0.49144000  1
  C  C531  1  0.97740000  0.93460000  0.50856000  1
  C  C532  1  0.98270000  0.10310000  0.04461000  1
  C  C533  1  0.98270000  0.60310000  0.95539000  1
  C  C534  1  0.99190000  0.24490000  0.64886000  1
  C  C535  1  0.99190000  0.74490000  0.35114000  1
  C  C536  1  0.99570000  0.24190000  0.71045000  1
  C  C537  1  0.99570000  0.74190000  0.28955000  1
  C  C538  1  0.99730000  0.24000000  0.74155000  1
  C  C539  1  0.99730000  0.74000000  0.25845000  1
  C  C540  1  0.99800000  0.34950000  0.47509000  1
  C  C541  1  0.99800000  0.84950000  0.52491000  1
  C  C542  1  0.99900000  0.23990000  0.76822000  1
  C  C543  1  0.99900000  0.73990000  0.23178000  1
  O  O544  1  0.00330000  0.07977000  0.06723000  1
  O  O545  1  0.00330000  0.57977000  0.93277000  1
  O  O546  1  0.00340000  0.14490000  0.03866000  1
  O  O547  1  0.00340000  0.64490000  0.96134000  1
  O  O548  1  0.01220000  0.10805000  0.44081000  1
  O  O549  1  0.01220000  0.60805000  0.55919000  1
  O  O550  1  0.03868000  0.18986000  0.10083000  1
  O  O551  1  0.03868000  0.68986000  0.89917000  1
  O  O552  1  0.03906000  0.19081000  0.39435000  1
  O  O553  1  0.03906000  0.69081000  0.60565000  1
  O  O554  1  0.04730000  0.22548000  0.46009000  1
  O  O555  1  0.04730000  0.72548000  0.53991000  1
  O  O556  1  0.06650000  0.12179000  0.15782000  1
  O  O557  1  0.06650000  0.62179000  0.84218000  1
  O  O558  1  0.09680000  0.12310000  0.34731000  1
  O  O559  1  0.09680000  0.62310000  0.65269000  1
  O  O560  1  0.09940000  0.22732000  0.33775000  1
  O  O561  1  0.09940000  0.72732000  0.66225000  1
  O  O562  1  0.10280000  0.08783000  0.11630000  1
  O  O563  1  0.10280000  0.58783000  0.88370000  1
  O  O564  1  0.10340000  0.07950000  0.38849000  1
  O  O565  1  0.10340000  0.57950000  0.61151000  1
  O  O566  1  0.11090000  0.27190000  0.62023000  1
  O  O567  1  0.11090000  0.77190000  0.37977000  1
  O  O568  1  0.11120000  0.27820000  0.88943000  1
  O  O569  1  0.11120000  0.77820000  0.11057000  1
  O  O570  1  0.12080000  0.22222000  0.15974000  1
  O  O571  1  0.12080000  0.72222000  0.84026000  1
  O  O572  1  0.13980000  0.21426000  0.05191000  1
  O  O573  1  0.13980000  0.71426000  0.94809000  1
  O  O574  1  0.14300000  0.24300000  0.38179000  1
  O  O575  1  0.14300000  0.74300000  0.61821000  1
  O  O576  1  0.14610000  0.28576000  0.55421000  1
  O  O577  1  0.14610000  0.78576000  0.44579000  1
  O  O578  1  0.14640000  0.36625000  0.56176000  1
  O  O579  1  0.14640000  0.86625000  0.43824000  1
  O  O580  1  0.14890000  0.13417000  0.05913000  1
  O  O581  1  0.14890000  0.63417000  0.94087000  1
  O  O582  1  0.15490000  0.30540000  0.84660000  1
  O  O583  1  0.15490000  0.80540000  0.15340000  1
  O  O584  1  0.16050000  0.28670000  0.66379000  1
  O  O585  1  0.16050000  0.78670000  0.33621000  1
  O  O586  1  0.17008000  0.23576000  0.11606000  1
  O  O587  1  0.17008000  0.73576000  0.88394000  1
  O  O588  1  0.19470000  0.27005000  0.94856000  1
  O  O589  1  0.19470000  0.77005000  0.05144000  1
  O  O590  1  0.20180000  0.41710000  0.61553000  1
  O  O591  1  0.20180000  0.91710000  0.38447000  1
  O  O592  1  0.21190000  0.42750000  0.88171000  1
  O  O593  1  0.21190000  0.92750000  0.11829000  1
  O  O594  1  0.22730000  0.38298000  0.65880000  1
  O  O595  1  0.22730000  0.88298000  0.34120000  1
  O  O596  1  0.23340000  0.39272000  0.83809000  1
  O  O597  1  0.23340000  0.89272000  0.16191000  1
  O  O598  1  0.24773000  0.30854000  0.60382000  1
  O  O599  1  0.24773000  0.80854000  0.39618000  1
  O  O600  1  0.24910000  0.33731000  0.89588000  1
  O  O601  1  0.24910000  0.83731000  0.10412000  1
  O  O602  1  0.29210000  0.40740000  0.94200000  1
  O  O603  1  0.29210000  0.90740000  0.05800000  1
  O  O604  1  0.29220000  0.34370000  0.53553000  1
  O  O605  1  0.29220000  0.84370000  0.46447000  1
  O  O606  1  0.29630000  0.40910000  0.56352000  1
  O  O607  1  0.29630000  0.90910000  0.43648000  1
  O  O608  1  0.30030000  0.25204000  0.93701000  1
  O  O609  1  0.30030000  0.75204000  0.06299000  1
  O  O610  1  0.32310000  0.29347000  0.66510000  1
  O  O611  1  0.32310000  0.79347000  0.33490000  1
  O  O612  1  0.35440000  0.32900000  0.85021000  1
  O  O613  1  0.35440000  0.82900000  0.14979000  1
  O  O614  1  0.36480000  0.35005000  0.94975000  1
  O  O615  1  0.36480000  0.85005000  0.05025000  1
  O  O616  1  0.37400000  0.28530000  0.62096000  1
  O  O617  1  0.37400000  0.78530000  0.37904000  1
  O  O618  1  0.38390000  0.27560000  0.38896000  1
  O  O619  1  0.38390000  0.77560000  0.61104000  1
  O  O620  1  0.39840000  0.29740000  0.89095000  1
  O  O621  1  0.39840000  0.79740000  0.10905000  1
  O  O622  1  0.40790000  0.29310000  0.11756000  1
  O  O623  1  0.40790000  0.79310000  0.88244000  1
  O  O624  1  0.42600000  0.33945000  0.44177000  1
  O  O625  1  0.42600000  0.83945000  0.55823000  1
  O  O626  1  0.44650000  0.27130000  0.34764000  1
  O  O627  1  0.44650000  0.77130000  0.65236000  1
  O  O628  1  0.45970000  0.29531000  0.16140000  1
  O  O629  1  0.45970000  0.79531000  0.83860000  1
  O  O630  1  0.46920000  0.22908000  0.43892000  1
  O  O631  1  0.46920000  0.72908000  0.56108000  1
  O  O632  1  0.50330000  0.42023000  0.06723000  1
  O  O633  1  0.50330000  0.92023000  0.93277000  1
  O  O634  1  0.50340000  0.35510000  0.03866000  1
  O  O635  1  0.50340000  0.85510000  0.96134000  1
  O  O636  1  0.51220000  0.39195000  0.44081000  1
  O  O637  1  0.51220000  0.89195000  0.55919000  1
  O  O638  1  0.53868000  0.31014000  0.10083000  1
  O  O639  1  0.53868000  0.81014000  0.89917000  1
  O  O640  1  0.53906000  0.30919000  0.39435000  1
  O  O641  1  0.53906000  0.80919000  0.60565000  1
  O  O642  1  0.54730000  0.27452000  0.46009000  1
  O  O643  1  0.54730000  0.77452000  0.53991000  1
  O  O644  1  0.56650000  0.37821000  0.15782000  1
  O  O645  1  0.56650000  0.87821000  0.84218000  1
  O  O646  1  0.59680000  0.37690000  0.34731000  1
  O  O647  1  0.59680000  0.87690000  0.65269000  1
  O  O648  1  0.59940000  0.27268000  0.33775000  1
  O  O649  1  0.59940000  0.77268000  0.66225000  1
  O  O650  1  0.60280000  0.41217000  0.11630000  1
  O  O651  1  0.60280000  0.91217000  0.88370000  1
  O  O652  1  0.60340000  0.42050000  0.38849000  1
  O  O653  1  0.60340000  0.92050000  0.61151000  1
  O  O654  1  0.61090000  0.22810000  0.62023000  1
  O  O655  1  0.61090000  0.72810000  0.37977000  1
  O  O656  1  0.61120000  0.22180000  0.88943000  1
  O  O657  1  0.61120000  0.72180000  0.11057000  1
  O  O658  1  0.62080000  0.27778000  0.15974000  1
  O  O659  1  0.62080000  0.77778000  0.84026000  1
  O  O660  1  0.63980000  0.28574000  0.05191000  1
  O  O661  1  0.63980000  0.78574000  0.94809000  1
  O  O662  1  0.64300000  0.25700000  0.38179000  1
  O  O663  1  0.64300000  0.75700000  0.61821000  1
  O  O664  1  0.64610000  0.21424000  0.55421000  1
  O  O665  1  0.64610000  0.71424000  0.44579000  1
  O  O666  1  0.64640000  0.13375000  0.56176000  1
  O  O667  1  0.64640000  0.63375000  0.43824000  1
  O  O668  1  0.64890000  0.36583000  0.05913000  1
  O  O669  1  0.64890000  0.86583000  0.94087000  1
  O  O670  1  0.65490000  0.19460000  0.84660000  1
  O  O671  1  0.65490000  0.69460000  0.15340000  1
  O  O672  1  0.66050000  0.21330000  0.66379000  1
  O  O673  1  0.66050000  0.71330000  0.33621000  1
  O  O674  1  0.67008000  0.26424000  0.11606000  1
  O  O675  1  0.67008000  0.76424000  0.88394000  1
  O  O676  1  0.69470000  0.22995000  0.94856000  1
  O  O677  1  0.69470000  0.72995000  0.05144000  1
  O  O678  1  0.70180000  0.08290000  0.61553000  1
  O  O679  1  0.70180000  0.58290000  0.38447000  1
  O  O680  1  0.71190000  0.07250000  0.88171000  1
  O  O681  1  0.71190000  0.57250000  0.11829000  1
  O  O682  1  0.72730000  0.11702000  0.65880000  1
  O  O683  1  0.72730000  0.61702000  0.34120000  1
  O  O684  1  0.73340000  0.10728000  0.83809000  1
  O  O685  1  0.73340000  0.60728000  0.16191000  1
  O  O686  1  0.74773000  0.19146000  0.60382000  1
  O  O687  1  0.74773000  0.69146000  0.39618000  1
  O  O688  1  0.74910000  0.16269000  0.89588000  1
  O  O689  1  0.74910000  0.66269000  0.10412000  1
  O  O690  1  0.79210000  0.09260000  0.94200000  1
  O  O691  1  0.79210000  0.59260000  0.05800000  1
  O  O692  1  0.79220000  0.15630000  0.53553000  1
  O  O693  1  0.79220000  0.65630000  0.46447000  1
  O  O694  1  0.79630000  0.09090000  0.56352000  1
  O  O695  1  0.79630000  0.59090000  0.43648000  1
  O  O696  1  0.80030000  0.24796000  0.93701000  1
  O  O697  1  0.80030000  0.74796000  0.06299000  1
  O  O698  1  0.82310000  0.20653000  0.66510000  1
  O  O699  1  0.82310000  0.70653000  0.33490000  1
  O  O700  1  0.85440000  0.17100000  0.85021000  1
  O  O701  1  0.85440000  0.67100000  0.14979000  1
  O  O702  1  0.86480000  0.14995000  0.94975000  1
  O  O703  1  0.86480000  0.64995000  0.05025000  1
  O  O704  1  0.87400000  0.21470000  0.62096000  1
  O  O705  1  0.87400000  0.71470000  0.37904000  1
  O  O706  1  0.88390000  0.22440000  0.38896000  1
  O  O707  1  0.88390000  0.72440000  0.61104000  1
  O  O708  1  0.89840000  0.20260000  0.89095000  1
  O  O709  1  0.89840000  0.70260000  0.10905000  1
  O  O710  1  0.90790000  0.20690000  0.11756000  1
  O  O711  1  0.90790000  0.70690000  0.88244000  1
  O  O712  1  0.92600000  0.16055000  0.44177000  1
  O  O713  1  0.92600000  0.66055000  0.55823000  1
  O  O714  1  0.94650000  0.22870000  0.34764000  1
  O  O715  1  0.94650000  0.72870000  0.65236000  1
  O  O716  1  0.95970000  0.20469000  0.16140000  1
  O  O717  1  0.95970000  0.70469000  0.83860000  1
  O  O718  1  0.96920000  0.27092000  0.43892000  1
  O  O719  1  0.96920000  0.77092000  0.56108000  1
