# generated using pymatgen
data_Cd3H16C30O13
_symmetry_space_group_name_H-M   'P 1'
_cell_length_a   10.79900000
_cell_length_b   18.16080000
_cell_length_c   19.68260000
_cell_angle_alpha   82.79460000
_cell_angle_beta   74.07800000
_cell_angle_gamma   72.70350000
_symmetry_Int_Tables_number   1
_chemical_formula_structural   Cd3H16C30O13
_chemical_formula_sum   'Cd12 H64 C120 O52'
_cell_volume   3540.12315653
_cell_formula_units_Z   4
loop_
 _symmetry_equiv_pos_site_id
 _symmetry_equiv_pos_as_xyz
  1  'x, y, z'
loop_
 _atom_site_type_symbol
 _atom_site_label
 _atom_site_symmetry_multiplicity
 _atom_site_fract_x
 _atom_site_fract_y
 _atom_site_fract_z
 _atom_site_occupancy
  Cd  Cd0  1  0.00000000  0.50000000  0.50000000  1
  Cd  Cd1  1  0.05702000  0.63369000  0.59855000  1
  Cd  Cd2  1  0.21074000  0.13369000  0.09855000  1
  Cd  Cd3  1  0.24915000  0.75000000  0.75000000  1
  Cd  Cd4  1  0.33547000  0.56047000  0.98332000  1
  Cd  Cd5  1  0.37926000  0.93953000  0.51668000  1
  Cd  Cd6  1  0.50000000  0.00000000  0.00000000  1
  Cd  Cd7  1  0.62074000  0.06047000  0.48332000  1
  Cd  Cd8  1  0.66453000  0.43953000  0.01668000  1
  Cd  Cd9  1  0.75085000  0.25000000  0.25000000  1
  Cd  Cd10  1  0.78926000  0.86631000  0.90145000  1
  Cd  Cd11  1  0.94298000  0.36631000  0.40145000  1
  H  H12  1  0.01110000  0.21990000  0.32950000  1
  H  H13  1  0.02060000  0.18430000  0.60310000  1
  H  H14  1  0.03230000  0.25380000  0.38800000  1
  H  H15  1  0.03610000  0.42790000  0.15370000  1
  H  H16  1  0.05330000  0.62200000  0.33760000  1
  H  H17  1  0.05840000  0.90400000  0.02520000  1
  H  H18  1  0.05850000  0.34410000  0.82630000  1
  H  H19  1  0.06050000  0.28010000  0.17050000  1
  H  H20  1  0.11770000  0.07210000  0.34630000  1
  H  H21  1  0.14680000  0.11080000  0.67780000  1
  H  H22  1  0.17120000  0.85160000  0.23560000  1
  H  H23  1  0.17250000  0.97950000  0.76390000  1
  H  H24  1  0.17260000  0.91230000  0.10550000  1
  H  H25  1  0.17410000  0.24620000  0.11200000  1
  H  H26  1  0.17410000  0.70060000  0.26800000  1
  H  H27  1  0.23430000  0.75100000  0.12940000  1
  H  H28  1  0.24160000  0.35160000  0.73560000  1
  H  H29  1  0.25690000  0.32610000  0.55630000  1
  H  H30  1  0.27110000  0.84410000  0.32630000  1
  H  H31  1  0.28590000  0.98500000  0.84540000  1
  H  H32  1  0.29060000  0.44220000  0.22300000  1
  H  H33  1  0.30800000  0.31570000  0.89690000  1
  H  H34  1  0.30960000  0.41230000  0.60550000  1
  H  H35  1  0.35730000  0.20060000  0.76800000  1
  H  H36  1  0.36070000  0.82610000  0.05630000  1
  H  H37  1  0.38370000  0.48500000  0.34540000  1
  H  H38  1  0.38530000  0.25100000  0.62940000  1
  H  H39  1  0.41590000  0.52050000  0.73610000  1
  H  H40  1  0.43540000  0.38920000  0.82220000  1
  H  H41  1  0.45580000  0.05780000  0.27700000  1
  H  H42  1  0.48710000  0.12200000  0.83760000  1
  H  H43  1  0.48760000  0.59600000  0.47480000  1
  H  H44  1  0.51240000  0.40400000  0.52520000  1
  H  H45  1  0.51290000  0.87800000  0.16240000  1
  H  H46  1  0.54420000  0.94220000  0.72300000  1
  H  H47  1  0.56460000  0.61080000  0.17780000  1
  H  H48  1  0.58410000  0.47950000  0.26390000  1
  H  H49  1  0.61470000  0.74900000  0.37060000  1
  H  H50  1  0.61630000  0.51500000  0.65460000  1
  H  H51  1  0.63930000  0.17390000  0.94370000  1
  H  H52  1  0.64270000  0.79940000  0.23200000  1
  H  H53  1  0.69040000  0.58770000  0.39450000  1
  H  H54  1  0.69200000  0.68430000  0.10310000  1
  H  H55  1  0.70940000  0.55780000  0.77700000  1
  H  H56  1  0.71410000  0.01500000  0.15460000  1
  H  H57  1  0.72890000  0.15590000  0.67370000  1
  H  H58  1  0.74310000  0.67390000  0.44370000  1
  H  H59  1  0.75840000  0.64840000  0.26440000  1
  H  H60  1  0.76570000  0.24900000  0.87060000  1
  H  H61  1  0.82590000  0.29940000  0.73200000  1
  H  H62  1  0.82590000  0.75380000  0.88800000  1
  H  H63  1  0.82740000  0.08770000  0.89450000  1
  H  H64  1  0.82750000  0.02050000  0.23610000  1
  H  H65  1  0.82880000  0.14840000  0.76440000  1
  H  H66  1  0.85320000  0.88920000  0.32220000  1
  H  H67  1  0.88230000  0.92790000  0.65370000  1
  H  H68  1  0.93950000  0.71990000  0.82950000  1
  H  H69  1  0.94150000  0.65590000  0.17370000  1
  H  H70  1  0.94160000  0.09600000  0.97480000  1
  H  H71  1  0.94670000  0.37800000  0.66240000  1
  H  H72  1  0.96390000  0.57210000  0.84630000  1
  H  H73  1  0.96770000  0.74620000  0.61200000  1
  H  H74  1  0.97940000  0.81570000  0.39690000  1
  H  H75  1  0.98890000  0.78010000  0.67050000  1
  C  C76  1  0.00726000  0.54245000  0.15343000  1
  C  C77  1  0.00809000  0.88878000  0.75544000  1
  C  C78  1  0.01161000  0.92782000  0.06756000  1
  C  C79  1  0.01235000  0.96653000  0.17997000  1
  C  C80  1  0.01988000  0.52766000  0.82398000  1
  C  C81  1  0.05696000  0.30343000  0.51545000  1
  C  C82  1  0.06901000  0.03309000  0.26849000  1
  C  C83  1  0.07650000  0.39147000  0.81233000  1
  C  C84  1  0.07999000  0.93235000  0.11587000  1
  C  C85  1  0.08134000  0.47228000  0.33324000  1
  C  C86  1  0.08304000  0.96658000  0.23474000  1
  C  C87  1  0.09485000  0.19734000  0.60756000  1
  C  C88  1  0.12548000  0.00278000  0.80646000  1
  C  C89  1  0.12574000  0.60153000  0.30059000  1
  C  C90  1  0.12596000  0.54860000  0.09428000  1
  C  C91  1  0.12598000  0.04169000  0.91855000  1
  C  C92  1  0.12848000  0.02766000  0.32398000  1
  C  C93  1  0.12927000  0.26116000  0.56950000  1
  C  C94  1  0.12941000  0.53309000  0.76849000  1
  C  C95  1  0.15231000  0.61122000  0.74456000  1
  C  C96  1  0.15992000  0.52373000  0.28803000  1
  C  C97  1  0.16002000  0.89625000  0.25771000  1
  C  C98  1  0.17106000  0.15319000  0.65209000  1
  C  C99  1  0.18602000  0.39625000  0.75771000  1
  C  C100  1  0.19362000  0.00641000  0.85515000  1
  C  C101  1  0.19830000  0.64862000  0.25858000  1
  C  C102  1  0.20216000  0.04681000  0.97067000  1
  C  C103  1  0.20314000  0.95755000  0.34657000  1
  C  C104  1  0.21564000  0.46658000  0.73474000  1
  C  C105  1  0.21970000  0.89147000  0.31233000  1
  C  C106  1  0.23622000  0.28174000  0.57942000  1
  C  C107  1  0.26743000  0.49432000  0.23182000  1
  C  C108  1  0.26884000  0.95140000  0.40572000  1
  C  C109  1  0.28036000  0.54681000  0.47067000  1
  C  C110  1  0.28293000  0.17117000  0.65897000  1
  C  C111  1  0.30763000  0.62004000  0.20210000  1
  C  C112  1  0.31298000  0.23688000  0.62356000  1
  C  C113  1  0.32658000  0.73688000  0.12356000  1
  C  C114  1  0.34095000  0.54125000  0.18865000  1
  C  C115  1  0.34115000  0.46653000  0.67997000  1
  C  C116  1  0.37023000  0.12004000  0.70210000  1
  C  C117  1  0.37179000  0.43235000  0.61587000  1
  C  C118  1  0.37584000  0.19657000  0.98455000  1
  C  C119  1  0.38686000  0.02772000  0.16676000  1
  C  C120  1  0.38693000  0.67117000  0.15897000  1
  C  C121  1  0.39450000  0.14862000  0.75858000  1
  C  C122  1  0.39975000  0.30266000  0.89244000  1
  C  C123  1  0.40262000  0.78174000  0.07942000  1
  C  C124  1  0.41100000  0.00535000  0.62885000  1
  C  C125  1  0.41378000  0.54169000  0.41855000  1
  C  C126  1  0.42915000  0.04125000  0.68865000  1
  C  C127  1  0.43472000  0.49722000  0.69354000  1
  C  C128  1  0.44482000  0.50641000  0.35515000  1
  C  C129  1  0.45480000  0.50535000  0.12885000  1
  C  C130  1  0.45993000  0.23884000  0.93050000  1
  C  C131  1  0.47168000  0.97627000  0.21197000  1
  C  C132  1  0.47214000  0.10153000  0.80059000  1
  C  C133  1  0.47634000  0.34681000  0.84791000  1
  C  C134  1  0.49301000  0.42782000  0.56756000  1
  C  C135  1  0.49357000  0.00568000  0.26818000  1
  C  C136  1  0.50643000  0.99432000  0.73182000  1
  C  C137  1  0.50699000  0.57218000  0.43244000  1
  C  C138  1  0.52366000  0.65319000  0.15209000  1
  C  C139  1  0.52786000  0.89847000  0.19941000  1
  C  C140  1  0.52832000  0.02373000  0.78803000  1
  C  C141  1  0.54007000  0.76116000  0.06950000  1
  C  C142  1  0.54520000  0.49465000  0.87115000  1
  C  C143  1  0.55518000  0.49359000  0.64485000  1
  C  C144  1  0.56528000  0.50278000  0.30646000  1
  C  C145  1  0.57085000  0.95875000  0.31135000  1
  C  C146  1  0.58622000  0.45831000  0.58145000  1
  C  C147  1  0.58900000  0.99465000  0.37115000  1
  C  C148  1  0.59738000  0.21826000  0.92058000  1
  C  C149  1  0.60025000  0.69734000  0.10756000  1
  C  C150  1  0.60550000  0.85138000  0.24142000  1
  C  C151  1  0.61307000  0.32883000  0.84103000  1
  C  C152  1  0.61314000  0.97228000  0.83324000  1
  C  C153  1  0.62416000  0.80343000  0.01545000  1
  C  C154  1  0.62821000  0.56765000  0.38413000  1
  C  C155  1  0.62977000  0.87996000  0.29790000  1
  C  C156  1  0.65885000  0.53347000  0.32003000  1
  C  C157  1  0.65905000  0.45875000  0.81135000  1
  C  C158  1  0.67342000  0.26312000  0.87644000  1
  C  C159  1  0.68702000  0.76312000  0.37644000  1
  C  C160  1  0.69237000  0.37996000  0.79790000  1
  C  C161  1  0.71707000  0.82883000  0.34103000  1
  C  C162  1  0.71964000  0.45319000  0.52933000  1
  C  C163  1  0.73116000  0.04860000  0.59428000  1
  C  C164  1  0.73257000  0.50568000  0.76818000  1
  C  C165  1  0.76378000  0.71826000  0.42058000  1
  C  C166  1  0.78030000  0.10853000  0.68767000  1
  C  C167  1  0.78436000  0.53342000  0.26526000  1
  C  C168  1  0.79686000  0.04245000  0.65343000  1
  C  C169  1  0.79784000  0.95319000  0.02933000  1
  C  C170  1  0.80170000  0.35138000  0.74142000  1
  C  C171  1  0.80638000  0.99359000  0.14485000  1
  C  C172  1  0.81398000  0.60375000  0.24229000  1
  C  C173  1  0.82894000  0.84681000  0.34791000  1
  C  C174  1  0.83998000  0.10375000  0.74229000  1
  C  C175  1  0.84008000  0.47627000  0.71197000  1
  C  C176  1  0.84769000  0.38878000  0.25544000  1
  C  C177  1  0.87059000  0.46691000  0.23151000  1
  C  C178  1  0.87073000  0.73884000  0.43050000  1
  C  C179  1  0.87152000  0.97234000  0.67602000  1
  C  C180  1  0.87402000  0.95831000  0.08145000  1
  C  C181  1  0.87404000  0.45140000  0.90572000  1
  C  C182  1  0.87426000  0.39847000  0.69941000  1
  C  C183  1  0.87452000  0.99722000  0.19354000  1
  C  C184  1  0.90515000  0.80266000  0.39244000  1
  C  C185  1  0.91696000  0.03342000  0.76526000  1
  C  C186  1  0.91866000  0.52772000  0.66676000  1
  C  C187  1  0.92001000  0.06765000  0.88413000  1
  C  C188  1  0.92350000  0.60853000  0.18767000  1
  C  C189  1  0.93099000  0.96691000  0.73151000  1
  C  C190  1  0.94304000  0.69657000  0.48455000  1
  C  C191  1  0.98012000  0.47234000  0.17602000  1
  C  C192  1  0.98765000  0.03347000  0.82003000  1
  C  C193  1  0.98839000  0.07218000  0.93244000  1
  C  C194  1  0.99191000  0.11122000  0.24456000  1
  C  C195  1  0.99274000  0.45755000  0.84657000  1
  O  O196  1  0.01414000  0.50022000  0.61466000  1
  O  O197  1  0.01592000  0.13250000  0.18088000  1
  O  O198  1  0.01761000  0.72583000  0.50415000  1
  O  O199  1  0.05201000  0.24555000  0.34423000  1
  O  O200  1  0.07859000  0.36679000  0.48763000  1
  O  O201  1  0.09729000  0.84745000  0.70857000  1
  O  O202  1  0.11066000  0.40283000  0.31785000  1
  O  O203  1  0.14085000  0.09204000  0.01966000  1
  O  O204  1  0.14179000  0.25445000  0.15577000  1
  O  O205  1  0.14615000  0.61316000  0.07478000  1
  O  O206  1  0.15331000  0.65255000  0.79143000  1
  O  O207  1  0.17070000  0.63250000  0.68088000  1
  O  O208  1  0.20459000  0.48755000  0.06407000  1
  O  O209  1  0.21129000  0.50539000  0.46063000  1
  O  O210  1  0.24745000  0.59204000  0.51966000  1
  O  O211  1  0.25241000  0.22583000  0.00415000  1
  O  O212  1  0.25621000  0.01245000  0.43593000  1
  O  O213  1  0.32269000  0.00539000  0.96063000  1
  O  O214  1  0.33134000  0.09717000  0.18215000  1
  O  O215  1  0.33409000  0.88684000  0.42522000  1
  O  O216  1  0.37098000  0.00022000  0.11466000  1
  O  O217  1  0.37967000  0.94349000  0.64117000  1
  O  O218  1  0.42651000  0.03704000  0.56700000  1
  O  O219  1  0.43301000  0.13321000  0.01237000  1
  O  O220  1  0.46433000  0.55651000  0.85883000  1
  O  O221  1  0.46945000  0.53704000  0.06700000  1
  O  O222  1  0.53055000  0.46296000  0.93300000  1
  O  O223  1  0.53567000  0.44349000  0.14117000  1
  O  O224  1  0.56699000  0.86679000  0.98763000  1
  O  O225  1  0.57349000  0.96296000  0.43300000  1
  O  O226  1  0.62033000  0.05651000  0.35883000  1
  O  O227  1  0.62902000  0.99978000  0.88534000  1
  O  O228  1  0.66591000  0.11316000  0.57478000  1
  O  O229  1  0.66866000  0.90283000  0.81785000  1
  O  O230  1  0.67731000  0.99461000  0.03937000  1
  O  O231  1  0.74379000  0.98755000  0.56407000  1
  O  O232  1  0.74759000  0.77417000  0.99585000  1
  O  O233  1  0.75255000  0.40796000  0.48034000  1
  O  O234  1  0.78871000  0.49461000  0.53937000  1
  O  O235  1  0.79541000  0.51245000  0.93593000  1
  O  O236  1  0.82930000  0.36750000  0.31912000  1
  O  O237  1  0.84669000  0.34745000  0.20857000  1
  O  O238  1  0.85385000  0.38684000  0.92522000  1
  O  O239  1  0.85821000  0.74555000  0.84423000  1
  O  O240  1  0.85915000  0.90796000  0.98034000  1
  O  O241  1  0.88934000  0.59717000  0.68215000  1
  O  O242  1  0.90271000  0.15255000  0.29143000  1
  O  O243  1  0.92141000  0.63321000  0.51237000  1
  O  O244  1  0.94799000  0.75445000  0.65577000  1
  O  O245  1  0.98239000  0.27417000  0.49585000  1
  O  O246  1  0.98408000  0.86750000  0.81912000  1
  O  O247  1  0.98586000  0.49978000  0.38534000  1
