# generated using pymatgen
data_CoH8C14SO6
_symmetry_space_group_name_H-M   'P 1'
_cell_length_a   16.70330000
_cell_length_b   17.46020000
_cell_length_c   20.01950000
_cell_angle_alpha   90.00000000
_cell_angle_beta   90.00000000
_cell_angle_gamma   100.42300000
_symmetry_Int_Tables_number   1
_chemical_formula_structural   CoH8C14SO6
_chemical_formula_sum   'Co12 H96 C168 S12 O72'
_cell_volume   5742.20393096
_cell_formula_units_Z   12
loop_
 _symmetry_equiv_pos_site_id
 _symmetry_equiv_pos_as_xyz
  1  'x, y, z'
loop_
 _atom_site_type_symbol
 _atom_site_label
 _atom_site_symmetry_multiplicity
 _atom_site_fract_x
 _atom_site_fract_y
 _atom_site_fract_z
 _atom_site_occupancy
  Co  Co0  1  0.95911000  0.24332000  0.16580000  1
  Co  Co1  1  0.91472000  0.56093000  0.85406000  1
  Co  Co2  1  0.85349000  0.05558000  0.12517000  1
  Co  Co3  1  0.64651000  0.44442000  0.62517000  1
  Co  Co4  1  0.58528000  0.93907000  0.35406000  1
  Co  Co5  1  0.54089000  0.25668000  0.66580000  1
  Co  Co6  1  0.45911000  0.74332000  0.33420000  1
  Co  Co7  1  0.41472000  0.06093000  0.64594000  1
  Co  Co8  1  0.35349000  0.55558000  0.37483000  1
  Co  Co9  1  0.14651000  0.94442000  0.87483000  1
  Co  Co10  1  0.08528000  0.43907000  0.14594000  1
  Co  Co11  1  0.04089000  0.75668000  0.83420000  1
  H  H12  1  0.99890000  0.93750000  0.06680000  1
  H  H13  1  0.99530000  0.27330000  0.00720000  1
  H  H14  1  0.98950000  0.24070000  0.46190000  1
  H  H15  1  0.98530000  0.39990000  0.75560000  1
  H  H16  1  0.98480000  0.10670000  0.63000000  1
  H  H17  1  0.98150000  0.25910000  0.34810000  1
  H  H18  1  0.96830000  0.67200000  0.09720000  1
  H  H19  1  0.96420000  0.94380000  0.27670000  1
  H  H20  1  0.96270000  0.88460000  0.17040000  1
  H  H21  1  0.93460000  0.84080000  0.66600000  1
  H  H22  1  0.90480000  0.81350000  0.44340000  1
  H  H23  1  0.90210000  0.17010000  0.74700000  1
  H  H24  1  0.88820000  0.52630000  0.04460000  1
  H  H25  1  0.88620000  0.89080000  0.56990000  1
  H  H26  1  0.88010000  0.52820000  0.63260000  1
  H  H27  1  0.87790000  0.54350000  0.52010000  1
  H  H28  1  0.85940000  0.42190000  0.72040000  1
  H  H29  1  0.84000000  0.16840000  0.56630000  1
  H  H30  1  0.82950000  0.84740000  0.86780000  1
  H  H31  1  0.78870000  0.60340000  0.38250000  1
  H  H32  1  0.78820000  0.30630000  0.09480000  1
  H  H33  1  0.78710000  0.86360000  0.42570000  1
  H  H34  1  0.77370000  0.19150000  0.72100000  1
  H  H35  1  0.76100000  0.54920000  0.01340000  1
  H  H36  1  0.73900000  0.95080000  0.51340000  1
  H  H37  1  0.72630000  0.30850000  0.22100000  1
  H  H38  1  0.71290000  0.63640000  0.92570000  1
  H  H39  1  0.71180000  0.19370000  0.59480000  1
  H  H40  1  0.71130000  0.89660000  0.88250000  1
  H  H41  1  0.67050000  0.65260000  0.36780000  1
  H  H42  1  0.66000000  0.33160000  0.06630000  1
  H  H43  1  0.64060000  0.07810000  0.22040000  1
  H  H44  1  0.62210000  0.95650000  0.02010000  1
  H  H45  1  0.61990000  0.97180000  0.13260000  1
  H  H46  1  0.61380000  0.60920000  0.06990000  1
  H  H47  1  0.61180000  0.97370000  0.54460000  1
  H  H48  1  0.59790000  0.32990000  0.24700000  1
  H  H49  1  0.59520000  0.68650000  0.94340000  1
  H  H50  1  0.56540000  0.65920000  0.16600000  1
  H  H51  1  0.53730000  0.61540000  0.67040000  1
  H  H52  1  0.53580000  0.55620000  0.77670000  1
  H  H53  1  0.53170000  0.82800000  0.59720000  1
  H  H54  1  0.51850000  0.24090000  0.84810000  1
  H  H55  1  0.51520000  0.39330000  0.13000000  1
  H  H56  1  0.51470000  0.10010000  0.25560000  1
  H  H57  1  0.51050000  0.25930000  0.96190000  1
  H  H58  1  0.50470000  0.22670000  0.50720000  1
  H  H59  1  0.50110000  0.56250000  0.56680000  1
  H  H60  1  0.49890000  0.43750000  0.43320000  1
  H  H61  1  0.49530000  0.77330000  0.49280000  1
  H  H62  1  0.48950000  0.74070000  0.03810000  1
  H  H63  1  0.48530000  0.89990000  0.74440000  1
  H  H64  1  0.48480000  0.60670000  0.87000000  1
  H  H65  1  0.48150000  0.75910000  0.15190000  1
  H  H66  1  0.46830000  0.17200000  0.40280000  1
  H  H67  1  0.46420000  0.44380000  0.22330000  1
  H  H68  1  0.46270000  0.38460000  0.32960000  1
  H  H69  1  0.43460000  0.34080000  0.83400000  1
  H  H70  1  0.40480000  0.31350000  0.05660000  1
  H  H71  1  0.40210000  0.67010000  0.75300000  1
  H  H72  1  0.38820000  0.02630000  0.45540000  1
  H  H73  1  0.38620000  0.39080000  0.93010000  1
  H  H74  1  0.38010000  0.02820000  0.86740000  1
  H  H75  1  0.37790000  0.04350000  0.97990000  1
  H  H76  1  0.35940000  0.92190000  0.77960000  1
  H  H77  1  0.34000000  0.66840000  0.93370000  1
  H  H78  1  0.32950000  0.34740000  0.63220000  1
  H  H79  1  0.28870000  0.10340000  0.11750000  1
  H  H80  1  0.28820000  0.80630000  0.40520000  1
  H  H81  1  0.28710000  0.36360000  0.07430000  1
  H  H82  1  0.27370000  0.69150000  0.77900000  1
  H  H83  1  0.26100000  0.04920000  0.48660000  1
  H  H84  1  0.23900000  0.45080000  0.98660000  1
  H  H85  1  0.22630000  0.80850000  0.27900000  1
  H  H86  1  0.21290000  0.13640000  0.57430000  1
  H  H87  1  0.21180000  0.69370000  0.90520000  1
  H  H88  1  0.21130000  0.39660000  0.61750000  1
  H  H89  1  0.17050000  0.15260000  0.13220000  1
  H  H90  1  0.16000000  0.83160000  0.43370000  1
  H  H91  1  0.14060000  0.57810000  0.27960000  1
  H  H92  1  0.12210000  0.45650000  0.47990000  1
  H  H93  1  0.11990000  0.47180000  0.36740000  1
  H  H94  1  0.11380000  0.10920000  0.43010000  1
  H  H95  1  0.11180000  0.47370000  0.95540000  1
  H  H96  1  0.09790000  0.82990000  0.25300000  1
  H  H97  1  0.09520000  0.18650000  0.55660000  1
  H  H98  1  0.06540000  0.15920000  0.33400000  1
  H  H99  1  0.03730000  0.11540000  0.82960000  1
  H  H100  1  0.03580000  0.05620000  0.72330000  1
  H  H101  1  0.03170000  0.32800000  0.90280000  1
  H  H102  1  0.01850000  0.74090000  0.65190000  1
  H  H103  1  0.01520000  0.89330000  0.37000000  1
  H  H104  1  0.01470000  0.60010000  0.24440000  1
  H  H105  1  0.01050000  0.75930000  0.53810000  1
  H  H106  1  0.00470000  0.72670000  0.99280000  1
  H  H107  1  0.00110000  0.06250000  0.93320000  1
  C  C108  1  0.99830000  0.75860000  0.02890000  1
  C  C109  1  0.99480000  0.88420000  0.07330000  1
  C  C110  1  0.99440000  0.97700000  0.30750000  1
  C  C111  1  0.99150000  0.94350000  0.70360000  1
  C  C112  1  0.98990000  0.70150000  0.62540000  1
  C  C113  1  0.98850000  0.16140000  0.97910000  1
  C  C114  1  0.98620000  0.71230000  0.55730000  1
  C  C115  1  0.97560000  0.05320000  0.63690000  1
  C  C116  1  0.97550000  0.72560000  0.09100000  1
  C  C117  1  0.97240000  0.08970000  0.23690000  1
  C  C118  1  0.97210000  0.85290000  0.13510000  1
  C  C119  1  0.96380000  0.77440000  0.14330000  1
  C  C120  1  0.95760000  0.62340000  0.72900000  1
  C  C121  1  0.95530000  0.28290000  0.75250000  1
  C  C122  1  0.95100000  0.63200000  0.65510000  1
  C  C123  1  0.94980000  0.12340000  0.04010000  1
  C  C124  1  0.94630000  0.65280000  0.51780000  1
  C  C125  1  0.94560000  0.89420000  0.65810000  1
  C  C126  1  0.94330000  0.35840000  0.74680000  1
  C  C127  1  0.93130000  0.00290000  0.59070000  1
  C  C128  1  0.93000000  0.39970000  0.09640000  1
  C  C129  1  0.91600000  0.92400000  0.60100000  1
  C  C130  1  0.90790000  0.57400000  0.61350000  1
  C  C131  1  0.90590000  0.58300000  0.54690000  1
  C  C132  1  0.89260000  0.22070000  0.74270000  1
  C  C133  1  0.86770000  0.37120000  0.72760000  1
  C  C134  1  0.85910000  0.70440000  0.88300000  1
  C  C135  1  0.85750000  0.78150000  0.42850000  1
  C  C136  1  0.85590000  0.70320000  0.41640000  1
  C  C137  1  0.84980000  0.41460000  0.07370000  1
  C  C138  1  0.84250000  0.48730000  0.04880000  1
  C  C139  1  0.81630000  0.23330000  0.72660000  1
  C  C140  1  0.80330000  0.30900000  0.71890000  1
  C  C141  1  0.79940000  0.05750000  0.53770000  1
  C  C142  1  0.79380000  0.13010000  0.56180000  1
  C  C143  1  0.78760000  0.65530000  0.39240000  1
  C  C144  1  0.78720000  0.81110000  0.41810000  1
  C  C145  1  0.78360000  0.73760000  0.89610000  1
  C  C146  1  0.78260000  0.81510000  0.88300000  1
  C  C147  1  0.78230000  0.35530000  0.07940000  1
  C  C148  1  0.77960000  0.17700000  0.19730000  1
  C  C149  1  0.76700000  0.50100000  0.03040000  1
  C  C150  1  0.73300000  0.99900000  0.53040000  1
  C  C151  1  0.72040000  0.32300000  0.69730000  1
  C  C152  1  0.71770000  0.14470000  0.57940000  1
  C  C153  1  0.71740000  0.68490000  0.38300000  1
  C  C154  1  0.71640000  0.76240000  0.39610000  1
  C  C155  1  0.71280000  0.68890000  0.91810000  1
  C  C156  1  0.71240000  0.84470000  0.89240000  1
  C  C157  1  0.70620000  0.36990000  0.06180000  1
  C  C158  1  0.70060000  0.44250000  0.03770000  1
  C  C159  1  0.69670000  0.19100000  0.21890000  1
  C  C160  1  0.68370000  0.26670000  0.22660000  1
  C  C161  1  0.65750000  0.01270000  0.54880000  1
  C  C162  1  0.65020000  0.08540000  0.57370000  1
  C  C163  1  0.64410000  0.79680000  0.91640000  1
  C  C164  1  0.64250000  0.71850000  0.92850000  1
  C  C165  1  0.64090000  0.79560000  0.38300000  1
  C  C166  1  0.63230000  0.12880000  0.22760000  1
  C  C167  1  0.60740000  0.27930000  0.24270000  1
  C  C168  1  0.59410000  0.91700000  0.04690000  1
  C  C169  1  0.59210000  0.92600000  0.11350000  1
  C  C170  1  0.58400000  0.57600000  0.10100000  1
  C  C171  1  0.57000000  0.10030000  0.59640000  1
  C  C172  1  0.56870000  0.49710000  0.09070000  1
  C  C173  1  0.55670000  0.14160000  0.24680000  1
  C  C174  1  0.55440000  0.60580000  0.15810000  1
  C  C175  1  0.55370000  0.84720000  0.01780000  1
  C  C176  1  0.55020000  0.37660000  0.54010000  1
  C  C177  1  0.54900000  0.86800000  0.15510000  1
  C  C178  1  0.54470000  0.21710000  0.25250000  1
  C  C179  1  0.54240000  0.87660000  0.22900000  1
  C  C180  1  0.53620000  0.72560000  0.64330000  1
  C  C181  1  0.52790000  0.64710000  0.63510000  1
  C  C182  1  0.52760000  0.41030000  0.73690000  1
  C  C183  1  0.52450000  0.77440000  0.59100000  1
  C  C184  1  0.52440000  0.44680000  0.13690000  1
  C  C185  1  0.51380000  0.78770000  0.05730000  1
  C  C186  1  0.51150000  0.33860000  0.47910000  1
  C  C187  1  0.51010000  0.79850000  0.12540000  1
  C  C188  1  0.50850000  0.55650000  0.20360000  1
  C  C189  1  0.50560000  0.52300000  0.80750000  1
  C  C190  1  0.50520000  0.61580000  0.57330000  1
  C  C191  1  0.50170000  0.74140000  0.52890000  1
  C  C192  1  0.49830000  0.25860000  0.47110000  1
  C  C193  1  0.49480000  0.38420000  0.42670000  1
  C  C194  1  0.49440000  0.47700000  0.19250000  1
  C  C195  1  0.49150000  0.44350000  0.79640000  1
  C  C196  1  0.48990000  0.20150000  0.87460000  1
  C  C197  1  0.48850000  0.66140000  0.52090000  1
  C  C198  1  0.48620000  0.21230000  0.94270000  1
  C  C199  1  0.47560000  0.55320000  0.86310000  1
  C  C200  1  0.47550000  0.22560000  0.40900000  1
  C  C201  1  0.47240000  0.58970000  0.26310000  1
  C  C202  1  0.47210000  0.35290000  0.36490000  1
  C  C203  1  0.46380000  0.27440000  0.35670000  1
  C  C204  1  0.45760000  0.12340000  0.77100000  1
  C  C205  1  0.45530000  0.78290000  0.74750000  1
  C  C206  1  0.45100000  0.13200000  0.84490000  1
  C  C207  1  0.44980000  0.62340000  0.45990000  1
  C  C208  1  0.44630000  0.15280000  0.98220000  1
  C  C209  1  0.44560000  0.39420000  0.84190000  1
  C  C210  1  0.44330000  0.85840000  0.75320000  1
  C  C211  1  0.43130000  0.50290000  0.90930000  1
  C  C212  1  0.43000000  0.89970000  0.40360000  1
  C  C213  1  0.41600000  0.42400000  0.89900000  1
  C  C214  1  0.40790000  0.07400000  0.88650000  1
  C  C215  1  0.40590000  0.08300000  0.95310000  1
  C  C216  1  0.39260000  0.72070000  0.75730000  1
  C  C217  1  0.36770000  0.87120000  0.77240000  1
  C  C218  1  0.35910000  0.20440000  0.61700000  1
  C  C219  1  0.35750000  0.28150000  0.07150000  1
  C  C220  1  0.35590000  0.20320000  0.08360000  1
  C  C221  1  0.34980000  0.91460000  0.42630000  1
  C  C222  1  0.34250000  0.98730000  0.45120000  1
  C  C223  1  0.31630000  0.73330000  0.77340000  1
  C  C224  1  0.30330000  0.80900000  0.78110000  1
  C  C225  1  0.29940000  0.55750000  0.96230000  1
  C  C226  1  0.29380000  0.63010000  0.93820000  1
  C  C227  1  0.28760000  0.15530000  0.10760000  1
  C  C228  1  0.28720000  0.31110000  0.08190000  1
  C  C229  1  0.28360000  0.23760000  0.60390000  1
  C  C230  1  0.28260000  0.31510000  0.61700000  1
  C  C231  1  0.28230000  0.85530000  0.42060000  1
  C  C232  1  0.27960000  0.67700000  0.30270000  1
  C  C233  1  0.26700000  0.00100000  0.46960000  1
  C  C234  1  0.23300000  0.49900000  0.96960000  1
  C  C235  1  0.22040000  0.82300000  0.80270000  1
  C  C236  1  0.21770000  0.64470000  0.92060000  1
  C  C237  1  0.21740000  0.18490000  0.11700000  1
  C  C238  1  0.21640000  0.26240000  0.10390000  1
  C  C239  1  0.21280000  0.18890000  0.58190000  1
  C  C240  1  0.21240000  0.34470000  0.60760000  1
  C  C241  1  0.20620000  0.86990000  0.43820000  1
  C  C242  1  0.20060000  0.94250000  0.46230000  1
  C  C243  1  0.19670000  0.69100000  0.28110000  1
  C  C244  1  0.18370000  0.76670000  0.27340000  1
  C  C245  1  0.15750000  0.51270000  0.95120000  1
  C  C246  1  0.15020000  0.58540000  0.92630000  1
  C  C247  1  0.14410000  0.29680000  0.58360000  1
  C  C248  1  0.14250000  0.21850000  0.57150000  1
  C  C249  1  0.14090000  0.29560000  0.11700000  1
  C  C250  1  0.13230000  0.62880000  0.27240000  1
  C  C251  1  0.10740000  0.77930000  0.25730000  1
  C  C252  1  0.09410000  0.41700000  0.45310000  1
  C  C253  1  0.09210000  0.42600000  0.38650000  1
  C  C254  1  0.08400000  0.07600000  0.39900000  1
  C  C255  1  0.07000000  0.60030000  0.90360000  1
  C  C256  1  0.06870000  0.99710000  0.40930000  1
  C  C257  1  0.05670000  0.64160000  0.25320000  1
  C  C258  1  0.05440000  0.10580000  0.34190000  1
  C  C259  1  0.05370000  0.34720000  0.48220000  1
  C  C260  1  0.05020000  0.87660000  0.95990000  1
  C  C261  1  0.04900000  0.36800000  0.34490000  1
  C  C262  1  0.04470000  0.71710000  0.24750000  1
  C  C263  1  0.04240000  0.37660000  0.27100000  1
  C  C264  1  0.03620000  0.22560000  0.85670000  1
  C  C265  1  0.02790000  0.14710000  0.86490000  1
  C  C266  1  0.02760000  0.91030000  0.76310000  1
  C  C267  1  0.02450000  0.27440000  0.90900000  1
  C  C268  1  0.02440000  0.94680000  0.36310000  1
  C  C269  1  0.01380000  0.28770000  0.44270000  1
  C  C270  1  0.01150000  0.83860000  0.02090000  1
  C  C271  1  0.01010000  0.29850000  0.37460000  1
  C  C272  1  0.00850000  0.05650000  0.29640000  1
  C  C273  1  0.00560000  0.02300000  0.69250000  1
  C  C274  1  0.00520000  0.11580000  0.92670000  1
  C  C275  1  0.00170000  0.24140000  0.97110000  1
  S  S276  1  0.94762000  0.73415000  0.22489000  1
  S  S277  1  0.94446000  0.66560000  0.43011000  1
  S  S278  1  0.89687000  0.03952000  0.51649000  1
  S  S279  1  0.60313000  0.46048000  0.01649000  1
  S  S280  1  0.55554000  0.83440000  0.93011000  1
  S  S281  1  0.55238000  0.76585000  0.72489000  1
  S  S282  1  0.44762000  0.23415000  0.27511000  1
  S  S283  1  0.44446000  0.16560000  0.06989000  1
  S  S284  1  0.39687000  0.53952000  0.98351000  1
  S  S285  1  0.10313000  0.96048000  0.48351000  1
  S  S286  1  0.05554000  0.33440000  0.56989000  1
  S  S287  1  0.05238000  0.26585000  0.77511000  1
  O  O288  1  0.99180000  0.32780000  0.24030000  1
  O  O289  1  0.98660000  0.27650000  0.58690000  1
  O  O290  1  0.98450000  0.45790000  0.10860000  1
  O  O291  1  0.97840000  0.16260000  0.23490000  1
  O  O292  1  0.94810000  0.11230000  0.50120000  1
  O  O293  1  0.93900000  0.33080000  0.10070000  1
  O  O294  1  0.93810000  0.04210000  0.19410000  1
  O  O295  1  0.93420000  0.59090000  0.39860000  1
  O  O296  1  0.93290000  0.05150000  0.04380000  1
  O  O297  1  0.92810000  0.79380000  0.26800000  1
  O  O298  1  0.92650000  0.16440000  0.08666000  1
  O  O299  1  0.91960000  0.75100000  0.86310000  1
  O  O300  1  0.91170000  0.56570000  0.75640000  1
  O  O301  1  0.89310000  0.66150000  0.22010000  1
  O  O302  1  0.88560000  0.97870000  0.46740000  1
  O  O303  1  0.85310000  0.63310000  0.89310000  1
  O  O304  1  0.83650000  0.23310000  0.19350000  1
  O  O305  1  0.78160000  0.10660000  0.18450000  1
  O  O306  1  0.71840000  0.39340000  0.68450000  1
  O  O307  1  0.66350000  0.26690000  0.69350000  1
  O  O308  1  0.64690000  0.86690000  0.39310000  1
  O  O309  1  0.61440000  0.52130000  0.96740000  1
  O  O310  1  0.60690000  0.83850000  0.72010000  1
  O  O311  1  0.58830000  0.93430000  0.25640000  1
  O  O312  1  0.58040000  0.74900000  0.36310000  1
  O  O313  1  0.57350000  0.33560000  0.58666000  1
  O  O314  1  0.57190000  0.70620000  0.76800000  1
  O  O315  1  0.56710000  0.44850000  0.54380000  1
  O  O316  1  0.56580000  0.90910000  0.89860000  1
  O  O317  1  0.56190000  0.45790000  0.69410000  1
  O  O318  1  0.56100000  0.16920000  0.60070000  1
  O  O319  1  0.55190000  0.38770000  0.00120000  1
  O  O320  1  0.52160000  0.33740000  0.73490000  1
  O  O321  1  0.51550000  0.04210000  0.60860000  1
  O  O322  1  0.51340000  0.22350000  0.08690000  1
  O  O323  1  0.50820000  0.17220000  0.74030000  1
  O  O324  1  0.49180000  0.82780000  0.25970000  1
  O  O325  1  0.48660000  0.77650000  0.91310000  1
  O  O326  1  0.48450000  0.95790000  0.39140000  1
  O  O327  1  0.47840000  0.66260000  0.26510000  1
  O  O328  1  0.44810000  0.61230000  0.99880000  1
  O  O329  1  0.43900000  0.83080000  0.39930000  1
  O  O330  1  0.43810000  0.54210000  0.30590000  1
  O  O331  1  0.43420000  0.09090000  0.10140000  1
  O  O332  1  0.43290000  0.55150000  0.45620000  1
  O  O333  1  0.42810000  0.29380000  0.23200000  1
  O  O334  1  0.42650000  0.66440000  0.41334000  1
  O  O335  1  0.41960000  0.25100000  0.63690000  1
  O  O336  1  0.41170000  0.06570000  0.74360000  1
  O  O337  1  0.39310000  0.16150000  0.27990000  1
  O  O338  1  0.38560000  0.47870000  0.03260000  1
  O  O339  1  0.35310000  0.13310000  0.60690000  1
  O  O340  1  0.33650000  0.73310000  0.30650000  1
  O  O341  1  0.28160000  0.60660000  0.31550000  1
  O  O342  1  0.21840000  0.89340000  0.81550000  1
  O  O343  1  0.16350000  0.76690000  0.80650000  1
  O  O344  1  0.14690000  0.36690000  0.10690000  1
  O  O345  1  0.11440000  0.02130000  0.53260000  1
  O  O346  1  0.10690000  0.33850000  0.77990000  1
  O  O347  1  0.08830000  0.43430000  0.24360000  1
  O  O348  1  0.08040000  0.24900000  0.13690000  1
  O  O349  1  0.07350000  0.83560000  0.91334000  1
  O  O350  1  0.07190000  0.20620000  0.73200000  1
  O  O351  1  0.06710000  0.94850000  0.95620000  1
  O  O352  1  0.06580000  0.40910000  0.60140000  1
  O  O353  1  0.06190000  0.95790000  0.80590000  1
  O  O354  1  0.06100000  0.66920000  0.89930000  1
  O  O355  1  0.05190000  0.88770000  0.49880000  1
  O  O356  1  0.02160000  0.83740000  0.76510000  1
  O  O357  1  0.01550000  0.54210000  0.89140000  1
  O  O358  1  0.01340000  0.72350000  0.41310000  1
  O  O359  1  0.00820000  0.67220000  0.75970000  1
