# generated using pymatgen
data_Cu6H24WC32S4(BrN6)4
_symmetry_space_group_name_H-M   'P 1'
_cell_length_a   26.06458388
_cell_length_b   26.06430000
_cell_length_c   26.06430000
_cell_angle_alpha   109.47100000
_cell_angle_beta   109.47144127
_cell_angle_gamma   109.47144127
_symmetry_Int_Tables_number   1
_chemical_formula_structural   Cu6H24WC32S4(BrN6)4
_chemical_formula_sum   'Cu36 H144 W6 C192 S24 Br24 N144'
_cell_volume   13630.75318536
_cell_formula_units_Z   6
loop_
 _symmetry_equiv_pos_site_id
 _symmetry_equiv_pos_as_xyz
  1  'x, y, z'
loop_
 _atom_site_type_symbol
 _atom_site_label
 _atom_site_symmetry_multiplicity
 _atom_site_fract_x
 _atom_site_fract_y
 _atom_site_fract_z
 _atom_site_occupancy
  Cu  Cu0  1  0.75000000  0.53629000  0.78629000  1
  Cu  Cu1  1  0.76429000  0.70072000  0.82411000  1
  Cu  Cu2  1  0.87661000  0.67589000  0.94018000  1
  Cu  Cu3  1  0.93643000  0.23571000  0.05982000  1
  Cu  Cu4  1  0.62339000  0.56357000  0.79928000  1
  Cu  Cu5  1  0.73571000  0.55982000  0.93643000  1
  Cu  Cu6  1  0.75000000  0.71371000  0.96371000  1
  Cu  Cu7  1  0.94018000  0.37661000  0.17589000  1
  Cu  Cu8  1  0.96371000  0.25000000  0.21371000  1
  Cu  Cu9  1  0.78629000  0.25000000  0.03629000  1
  Cu  Cu10  1  0.79928000  0.12339000  0.06357000  1
  Cu  Cu11  1  0.25000000  0.78629000  0.53629000  1
  Cu  Cu12  1  0.37661000  0.94018000  0.67589000  1
  Cu  Cu13  1  0.23571000  0.93643000  0.55982000  1
  Cu  Cu14  1  0.82411000  0.26429000  0.20072000  1
  Cu  Cu15  1  0.26429000  0.82411000  0.70072000  1
  Cu  Cu16  1  0.12339000  0.79928000  0.56357000  1
  Cu  Cu17  1  0.25000000  0.96371000  0.71371000  1
  Cu  Cu18  1  0.21371000  0.46371000  0.75000000  1
  Cu  Cu19  1  0.06357000  0.29928000  0.62339000  1
  Cu  Cu20  1  0.20072000  0.32411000  0.76429000  1
  Cu  Cu21  1  0.70072000  0.76429000  0.32411000  1
  Cu  Cu22  1  0.05982000  0.43643000  0.73571000  1
  Cu  Cu23  1  0.17589000  0.44018000  0.87661000  1
  Cu  Cu24  1  0.03629000  0.28629000  0.75000000  1
  Cu  Cu25  1  0.56357000  0.62339000  0.29928000  1
  Cu  Cu26  1  0.71371000  0.75000000  0.46371000  1
  Cu  Cu27  1  0.53629000  0.75000000  0.28629000  1
  Cu  Cu28  1  0.67589000  0.87661000  0.44018000  1
  Cu  Cu29  1  0.46371000  0.21371000  0.25000000  1
  Cu  Cu30  1  0.43643000  0.05982000  0.23571000  1
  Cu  Cu31  1  0.29928000  0.06357000  0.12339000  1
  Cu  Cu32  1  0.55982000  0.73571000  0.43643000  1
  Cu  Cu33  1  0.44018000  0.17589000  0.37661000  1
  Cu  Cu34  1  0.32411000  0.20072000  0.26429000  1
  Cu  Cu35  1  0.28629000  0.03629000  0.25000000  1
  H  H36  1  0.60410000  0.67570000  0.60480000  1
  H  H37  1  0.16290000  0.90270000  0.17040000  1
  H  H38  1  0.90800000  0.82530000  0.92230000  1
  H  H39  1  0.07270000  0.25600000  0.11730000  1
  H  H40  1  0.17000000  0.06360000  0.21700000  1
  H  H41  1  0.37750000  0.75860000  0.43230000  1
  H  H42  1  0.78300000  0.45300000  0.84660000  1
  H  H43  1  0.05480000  0.88110000  0.12250000  1
  H  H44  1  0.50070000  0.89590000  0.57160000  1
  H  H45  1  0.49930000  0.39520000  0.57090000  1
  H  H46  1  0.38270000  0.13870000  0.45540000  1
  H  H47  1  0.59700000  0.58270000  0.67470000  1
  H  H48  1  0.90300000  0.57770000  0.98570000  1
  H  H49  1  0.98570000  0.40300000  0.07770000  1
  H  H50  1  0.91730000  0.09200000  0.01430000  1
  H  H51  1  0.23230000  0.99250000  0.32960000  1
  H  H52  1  0.82430000  0.92910000  0.92840000  1
  H  H53  1  0.39590000  0.07160000  0.50070000  1
  H  H54  1  0.84660000  0.28300000  0.95300000  1
  H  H55  1  0.74400000  0.81670000  0.86130000  1
  H  H56  1  0.25860000  0.93230000  0.37750000  1
  H  H57  1  0.11890000  0.17370000  0.24140000  1
  H  H58  1  0.54460000  0.42730000  0.68330000  1
  H  H59  1  0.89360000  0.83000000  0.04700000  1
  H  H60  1  0.32960000  0.73230000  0.49250000  1
  H  H61  1  0.28300000  0.84660000  0.45300000  1
  H  H62  1  0.09730000  0.26020000  0.26770000  1
  H  H63  1  0.75860000  0.37750000  0.93230000  1
  H  H64  1  0.40300000  0.98570000  0.57770000  1
  H  H65  1  0.89590000  0.50070000  0.07160000  1
  H  H66  1  0.45540000  0.88270000  0.63870000  1
  H  H67  1  0.93640000  0.10640000  0.15340000  1
  H  H68  1  0.17040000  0.66290000  0.40270000  1
  H  H69  1  0.66290000  0.17040000  0.90270000  1
  H  H70  1  0.82630000  0.94520000  0.06770000  1
  H  H71  1  0.68330000  0.04460000  0.92730000  1
  H  H72  1  0.88270000  0.45540000  0.13870000  1
  H  H73  1  0.12250000  0.55480000  0.38110000  1
  H  H74  1  0.73230000  0.32960000  0.99250000  1
  H  H75  1  0.73980000  0.83710000  0.00750000  1
  H  H76  1  0.04700000  0.39360000  0.33000000  1
  H  H77  1  0.75600000  0.61730000  0.07270000  1
  H  H78  1  0.57090000  0.99930000  0.89520000  1
  H  H79  1  0.59200000  0.51430000  0.91730000  1
  H  H80  1  0.55480000  0.12250000  0.88110000  1
  H  H81  1  0.00750000  0.23980000  0.33710000  1
  H  H82  1  0.60640000  0.65340000  0.93640000  1
  H  H83  1  0.76020000  0.76770000  0.09730000  1
  H  H84  1  0.21700000  0.67000000  0.56360000  1
  H  H85  1  0.25600000  0.07270000  0.61730000  1
  H  H86  1  0.06770000  0.32630000  0.44520000  1
  H  H87  1  0.44520000  0.56770000  0.82630000  1
  H  H88  1  0.04460000  0.68330000  0.42730000  1
  H  H89  1  0.67000000  0.21700000  0.06360000  1
  H  H90  1  0.42910000  0.42840000  0.82430000  1
  H  H91  1  0.99930000  0.57090000  0.39520000  1
  H  H92  1  0.33710000  0.50750000  0.73980000  1
  H  H93  1  0.92230000  0.40800000  0.32530000  1
  H  H94  1  0.67470000  0.09700000  0.08270000  1
  H  H95  1  0.40800000  0.92230000  0.82530000  1
  H  H96  1  0.09200000  0.91730000  0.51430000  1
  H  H97  1  0.31670000  0.36130000  0.74400000  1
  H  H98  1  0.17570000  0.10480000  0.60410000  1
  H  H99  1  0.67570000  0.60410000  0.10480000  1
  H  H100  1  0.24140000  0.61890000  0.67370000  1
  H  H101  1  0.39360000  0.04700000  0.83000000  1
  H  H102  1  0.67370000  0.74140000  0.11890000  1
  H  H103  1  0.15340000  0.43640000  0.60640000  1
  H  H104  1  0.86130000  0.24400000  0.31670000  1
  H  H105  1  0.09700000  0.67470000  0.58270000  1
  H  H106  1  0.26770000  0.59730000  0.76020000  1
  H  H107  1  0.92910000  0.82430000  0.42840000  1
  H  H108  1  0.92840000  0.32430000  0.42910000  1
  H  H109  1  0.26020000  0.09730000  0.76770000  1
  H  H110  1  0.08270000  0.17470000  0.59700000  1
  H  H111  1  0.81670000  0.74400000  0.36130000  1
  H  H112  1  0.10640000  0.93640000  0.65340000  1
  H  H113  1  0.61890000  0.24140000  0.17370000  1
  H  H114  1  0.33000000  0.54700000  0.89360000  1
  H  H115  1  0.17370000  0.11890000  0.74140000  1
  H  H116  1  0.60480000  0.10410000  0.17570000  1
  H  H117  1  0.10410000  0.60480000  0.67570000  1
  H  H118  1  0.24400000  0.86130000  0.81670000  1
  H  H119  1  0.01430000  0.41730000  0.59200000  1
  H  H120  1  0.32530000  0.42230000  0.90800000  1
  H  H121  1  0.58270000  0.59700000  0.17470000  1
  H  H122  1  0.82530000  0.90800000  0.42230000  1
  H  H123  1  0.23980000  0.00750000  0.83710000  1
  H  H124  1  0.89520000  0.07090000  0.49930000  1
  H  H125  1  0.32430000  0.92840000  0.92910000  1
  H  H126  1  0.56360000  0.71700000  0.17000000  1
  H  H127  1  0.92730000  0.18330000  0.54460000  1
  H  H128  1  0.32630000  0.06770000  0.94520000  1
  H  H129  1  0.94520000  0.82630000  0.56770000  1
  H  H130  1  0.11730000  0.57270000  0.75600000  1
  H  H131  1  0.06360000  0.17000000  0.71700000  1
  H  H132  1  0.59730000  0.26770000  0.26020000  1
  H  H133  1  0.43640000  0.15340000  0.10640000  1
  H  H134  1  0.83710000  0.73980000  0.50750000  1
  H  H135  1  0.38110000  0.62250000  0.05480000  1
  H  H136  1  0.41730000  0.01430000  0.09200000  1
  H  H137  1  0.39520000  0.49930000  0.07090000  1
  H  H138  1  0.57270000  0.11730000  0.25600000  1
  H  H139  1  0.83000000  0.89360000  0.54700000  1
  H  H140  1  0.50750000  0.33710000  0.23980000  1
  H  H141  1  0.49250000  0.82960000  0.23230000  1
  H  H142  1  0.88110000  0.05480000  0.62250000  1
  H  H143  1  0.63870000  0.95540000  0.38270000  1
  H  H144  1  0.42730000  0.54460000  0.18330000  1
  H  H145  1  0.56770000  0.44520000  0.32630000  1
  H  H146  1  0.40270000  0.67040000  0.16290000  1
  H  H147  1  0.90270000  0.16290000  0.67040000  1
  H  H148  1  0.65340000  0.60640000  0.43640000  1
  H  H149  1  0.13870000  0.38270000  0.95540000  1
  H  H150  1  0.57160000  0.00070000  0.39590000  1
  H  H151  1  0.07770000  0.48570000  0.90300000  1
  H  H152  1  0.43230000  0.87750000  0.25860000  1
  H  H153  1  0.76770000  0.76020000  0.59730000  1
  H  H154  1  0.95300000  0.34660000  0.78300000  1
  H  H155  1  0.99250000  0.23230000  0.82960000  1
  H  H156  1  0.54700000  0.33000000  0.39360000  1
  H  H157  1  0.18330000  0.92730000  0.04460000  1
  H  H158  1  0.74140000  0.67370000  0.61890000  1
  H  H159  1  0.87750000  0.43230000  0.75860000  1
  H  H160  1  0.36130000  0.31670000  0.24400000  1
  H  H161  1  0.45300000  0.78300000  0.34660000  1
  H  H162  1  0.00070000  0.57160000  0.89590000  1
  H  H163  1  0.42840000  0.42910000  0.32430000  1
  H  H164  1  0.82960000  0.49250000  0.73230000  1
  H  H165  1  0.51430000  0.59200000  0.41730000  1
  H  H166  1  0.57770000  0.90300000  0.48570000  1
  H  H167  1  0.48570000  0.07770000  0.40300000  1
  H  H168  1  0.17470000  0.08270000  0.09700000  1
  H  H169  1  0.95540000  0.63870000  0.88270000  1
  H  H170  1  0.07090000  0.89520000  0.99930000  1
  H  H171  1  0.07160000  0.39590000  0.00070000  1
  H  H172  1  0.62250000  0.38110000  0.55480000  1
  H  H173  1  0.34660000  0.95300000  0.28300000  1
  H  H174  1  0.93230000  0.25860000  0.87750000  1
  H  H175  1  0.71700000  0.56360000  0.67000000  1
  H  H176  1  0.61730000  0.75600000  0.57270000  1
  H  H177  1  0.42230000  0.32530000  0.40800000  1
  H  H178  1  0.67040000  0.40270000  0.66290000  1
  H  H179  1  0.10480000  0.17570000  0.10410000  1
  W  W180  1  0.75000000  0.62500000  0.87500000  1
  W  W181  1  0.87500000  0.25000000  0.12500000  1
  W  W182  1  0.25000000  0.87500000  0.62500000  1
  W  W183  1  0.12500000  0.37500000  0.75000000  1
  W  W184  1  0.62500000  0.75000000  0.37500000  1
  W  W185  1  0.37500000  0.12500000  0.25000000  1
  C  C186  1  0.47500000  0.02910000  0.47670000  1
  C  C187  1  0.33710000  0.89250000  0.34580000  1
  C  C188  1  0.80150000  0.45610000  0.82200000  1
  C  C189  1  0.15040000  0.93260000  0.17240000  1
  C  C190  1  0.06420000  0.16920000  0.08660000  1
  C  C191  1  0.00170000  0.05410000  0.02500000  1
  C  C192  1  0.94590000  0.94760000  0.97090000  1
  C  C193  1  0.52330000  0.49830000  0.55240000  1
  C  C194  1  0.87700000  0.83620000  0.91340000  1
  C  C195  1  0.92280000  0.58660000  0.96360000  1
  C  C196  1  0.15460000  0.02050000  0.19850000  1
  C  C197  1  0.40600000  0.11890000  0.45110000  1
  C  C198  1  0.34580000  0.83710000  0.39250000  1
  C  C199  1  0.04510000  0.21290000  0.09400000  1
  C  C200  1  0.47670000  0.97500000  0.52910000  1
  C  C201  1  0.97500000  0.47670000  0.02910000  1
  C  C202  1  0.83710000  0.34580000  0.89250000  1
  C  C203  1  0.09130000  0.92020000  0.14750000  1
  C  C204  1  0.41340000  0.08260000  0.47760000  1
  C  C205  1  0.26020000  0.97800000  0.32760000  1
  C  C206  1  0.95920000  0.12300000  0.03640000  1
  C  C207  1  0.27270000  0.94380000  0.35250000  1
  C  C208  1  0.52240000  0.43580000  0.60500000  1
  C  C209  1  0.83080000  0.89500000  0.91740000  1
  C  C210  1  0.57720000  0.54080000  0.66380000  1
  C  C211  1  0.35250000  0.77270000  0.44380000  1
  C  C212  1  0.78710000  0.83220000  0.88110000  1
  C  C213  1  0.47760000  0.91340000  0.58260000  1
  C  C214  1  0.04670000  0.99130000  0.15420000  1
  C  C215  1  0.54890000  0.45490000  0.66780000  1
  C  C216  1  0.96360000  0.42280000  0.08660000  1
  C  C217  1  0.82200000  0.30150000  0.95610000  1
  C  C218  1  0.07980000  0.17110000  0.22730000  1
  C  C219  1  0.32760000  0.76020000  0.47800000  1
  C  C220  1  0.00870000  0.05540000  0.16290000  1
  C  C221  1  0.30150000  0.82200000  0.45610000  1
  C  C222  1  0.94460000  0.95330000  0.10750000  1
  C  C223  1  0.42280000  0.96360000  0.58660000  1
  C  C224  1  0.45110000  0.90600000  0.61890000  1
  C  C225  1  0.91340000  0.47760000  0.08260000  1
  C  C226  1  0.77270000  0.35250000  0.94380000  1
  C  C227  1  0.06740000  0.21780000  0.23980000  1
  C  C228  1  0.86590000  0.84540000  0.04390000  1
  C  C229  1  0.97950000  0.13410000  0.17800000  1
  C  C230  1  0.90600000  0.45110000  0.11890000  1
  C  C231  1  0.76020000  0.32760000  0.97800000  1
  C  C232  1  0.82890000  0.90870000  0.05620000  1
  C  C233  1  0.78220000  0.84960000  0.02200000  1
  C  C234  1  0.17240000  0.65040000  0.43260000  1
  C  C235  1  0.14750000  0.59130000  0.42020000  1
  C  C236  1  0.65040000  0.17240000  0.93260000  1
  C  C237  1  0.66780000  0.04890000  0.95490000  1
  C  C238  1  0.04390000  0.36590000  0.34540000  1
  C  C239  1  0.19850000  0.65460000  0.52050000  1
  C  C240  1  0.02200000  0.28220000  0.34960000  1
  C  C241  1  0.59130000  0.14750000  0.92020000  1
  C  C242  1  0.60500000  0.02240000  0.93580000  1
  C  C243  1  0.71290000  0.59400000  0.04510000  1
  C  C244  1  0.62300000  0.53640000  0.95920000  1
  C  C245  1  0.15420000  0.54670000  0.49130000  1
  C  C246  1  0.63410000  0.67800000  0.97950000  1
  C  C247  1  0.10750000  0.44460000  0.45330000  1
  C  C248  1  0.71780000  0.73980000  0.06740000  1
  C  C249  1  0.05620000  0.32890000  0.40870000  1
  C  C250  1  0.65460000  0.19850000  0.02050000  1
  C  C251  1  0.66380000  0.07720000  0.04080000  1
  C  C252  1  0.21290000  0.04510000  0.59400000  1
  C  C253  1  0.16290000  0.50870000  0.55540000  1
  C  C254  1  0.66920000  0.58660000  0.06420000  1
  C  C255  1  0.04890000  0.66780000  0.45490000  1
  C  C256  1  0.67110000  0.72730000  0.07980000  1
  C  C257  1  0.02240000  0.60500000  0.43580000  1
  C  C258  1  0.12300000  0.95920000  0.53640000  1
  C  C259  1  0.16920000  0.06420000  0.58660000  1
  C  C260  1  0.40870000  0.55620000  0.82890000  1
  C  C261  1  0.91340000  0.37700000  0.33620000  1
  C  C262  1  0.34960000  0.52200000  0.78220000  1
  C  C263  1  0.39500000  0.41740000  0.83080000  1
  C  C264  1  0.22730000  0.57980000  0.67110000  1
  C  C265  1  0.54670000  0.15420000  0.99130000  1
  C  C266  1  0.55240000  0.02330000  0.99830000  1
  C  C267  1  0.55410000  0.52500000  0.00170000  1
  C  C268  1  0.88110000  0.28710000  0.33220000  1
  C  C269  1  0.55540000  0.66290000  0.00870000  1
  C  C270  1  0.33220000  0.38110000  0.78710000  1
  C  C271  1  0.17800000  0.47950000  0.63410000  1
  C  C272  1  0.37700000  0.91340000  0.83620000  1
  C  C273  1  0.07720000  0.66380000  0.54080000  1
  C  C274  1  0.05410000  0.00170000  0.52500000  1
  C  C275  1  0.02330000  0.55240000  0.49830000  1
  C  C276  1  0.97090000  0.44590000  0.44760000  1
  C  C277  1  0.91740000  0.33080000  0.39500000  1
  C  C278  1  0.23980000  0.56740000  0.71780000  1
  C  C279  1  0.36590000  0.04390000  0.84540000  1
  C  C280  1  0.45330000  0.60750000  0.94460000  1
  C  C281  1  0.44760000  0.47090000  0.94590000  1
  C  C282  1  0.44590000  0.97090000  0.94760000  1
  C  C283  1  0.44460000  0.10750000  0.95330000  1
  C  C284  1  0.34540000  0.54390000  0.86590000  1
  C  C285  1  0.21780000  0.06740000  0.73980000  1
  C  C286  1  0.89500000  0.83080000  0.41740000  1
  C  C287  1  0.94760000  0.94590000  0.47090000  1
  C  C288  1  0.99830000  0.05240000  0.52330000  1
  C  C289  1  0.02500000  0.50170000  0.55410000  1
  C  C290  1  0.04080000  0.16380000  0.57720000  1
  C  C291  1  0.33620000  0.41340000  0.87700000  1
  C  C292  1  0.13410000  0.97950000  0.67800000  1
  C  C293  1  0.28710000  0.88110000  0.83220000  1
  C  C294  1  0.50870000  0.16290000  0.05540000  1
  C  C295  1  0.83220000  0.78710000  0.38110000  1
  C  C296  1  0.50170000  0.02500000  0.05410000  1
  C  C297  1  0.49830000  0.52330000  0.05240000  1
  C  C298  1  0.49130000  0.65420000  0.04670000  1
  C  C299  1  0.17110000  0.07980000  0.72730000  1
  C  C300  1  0.33080000  0.91740000  0.89500000  1
  C  C301  1  0.28220000  0.02200000  0.84960000  1
  C  C302  1  0.83620000  0.87700000  0.41340000  1
  C  C303  1  0.32890000  0.05620000  0.90870000  1
  C  C304  1  0.08660000  0.56420000  0.66920000  1
  C  C305  1  0.93580000  0.10500000  0.52240000  1
  C  C306  1  0.03640000  0.45920000  0.62300000  1
  C  C307  1  0.57980000  0.22730000  0.17110000  1
  C  C308  1  0.95490000  0.16780000  0.54890000  1
  C  C309  1  0.56420000  0.08660000  0.16920000  1
  C  C310  1  0.05540000  0.00870000  0.66290000  1
  C  C311  1  0.09400000  0.54510000  0.71290000  1
  C  C312  1  0.54080000  0.57720000  0.16380000  1
  C  C313  1  0.52050000  0.69850000  0.15460000  1
  C  C314  1  0.90870000  0.82890000  0.55620000  1
  C  C315  1  0.56740000  0.23980000  0.21780000  1
  C  C316  1  0.95330000  0.94460000  0.60750000  1
  C  C317  1  0.47950000  0.17800000  0.13410000  1
  C  C318  1  0.99130000  0.04670000  0.65420000  1
  C  C319  1  0.45920000  0.03640000  0.12300000  1
  C  C320  1  0.54510000  0.09400000  0.21290000  1
  C  C321  1  0.43580000  0.52240000  0.10500000  1
  C  C322  1  0.42020000  0.64750000  0.09130000  1
  C  C323  1  0.84960000  0.78220000  0.52200000  1
  C  C324  1  0.02050000  0.15460000  0.69850000  1
  C  C325  1  0.84540000  0.86590000  0.54390000  1
  C  C326  1  0.45490000  0.54890000  0.16780000  1
  C  C327  1  0.43260000  0.67240000  0.15040000  1
  C  C328  1  0.92020000  0.09130000  0.64750000  1
  C  C329  1  0.93260000  0.15040000  0.67240000  1
  C  C330  1  0.52200000  0.34960000  0.28220000  1
  C  C331  1  0.55620000  0.40870000  0.32890000  1
  C  C332  1  0.47800000  0.82760000  0.26020000  1
  C  C333  1  0.61890000  0.95110000  0.40600000  1
  C  C334  1  0.67800000  0.63410000  0.47950000  1
  C  C335  1  0.54390000  0.34540000  0.36590000  1
  C  C336  1  0.73980000  0.71780000  0.56740000  1
  C  C337  1  0.44380000  0.85250000  0.27270000  1
  C  C338  1  0.58260000  0.97760000  0.41340000  1
  C  C339  1  0.11890000  0.40600000  0.95110000  1
  C  C340  1  0.08660000  0.46360000  0.92280000  1
  C  C341  1  0.60750000  0.45330000  0.44460000  1
  C  C342  1  0.95610000  0.32200000  0.80150000  1
  C  C343  1  0.66290000  0.55540000  0.50870000  1
  C  C344  1  0.97800000  0.26020000  0.82760000  1
  C  C345  1  0.72730000  0.67110000  0.57980000  1
  C  C346  1  0.45610000  0.80150000  0.32200000  1
  C  C347  1  0.58660000  0.92280000  0.46360000  1
  C  C348  1  0.16780000  0.95490000  0.04890000  1
  C  C349  1  0.65420000  0.49130000  0.54670000  1
  C  C350  1  0.08260000  0.41340000  0.97760000  1
  C  C351  1  0.38110000  0.33220000  0.28710000  1
  C  C352  1  0.94380000  0.27270000  0.85250000  1
  C  C353  1  0.16380000  0.04080000  0.07720000  1
  C  C354  1  0.41740000  0.39500000  0.33080000  1
  C  C355  1  0.10500000  0.93580000  0.02240000  1
  C  C356  1  0.85250000  0.44380000  0.77270000  1
  C  C357  1  0.53640000  0.62300000  0.45920000  1
  C  C358  1  0.82760000  0.47800000  0.76020000  1
  C  C359  1  0.97760000  0.58260000  0.91340000  1
  C  C360  1  0.64750000  0.42020000  0.59130000  1
  C  C361  1  0.39250000  0.84580000  0.33710000  1
  C  C362  1  0.52910000  0.97670000  0.47500000  1
  C  C363  1  0.02910000  0.47500000  0.97670000  1
  C  C364  1  0.59400000  0.71290000  0.54510000  1
  C  C365  1  0.89250000  0.33710000  0.84580000  1
  C  C366  1  0.95110000  0.61890000  0.90600000  1
  C  C367  1  0.69850000  0.52050000  0.65460000  1
  C  C368  1  0.46360000  0.08660000  0.42280000  1
  C  C369  1  0.41340000  0.33620000  0.37700000  1
  C  C370  1  0.05240000  0.99830000  0.02330000  1
  C  C371  1  0.47090000  0.44760000  0.44590000  1
  C  C372  1  0.52500000  0.55410000  0.50170000  1
  C  C373  1  0.58660000  0.66920000  0.56420000  1
  C  C374  1  0.67240000  0.43260000  0.65040000  1
  C  C375  1  0.32200000  0.95610000  0.30150000  1
  C  C376  1  0.84580000  0.39250000  0.83710000  1
  C  C377  1  0.97670000  0.52910000  0.97500000  1
  S  S378  1  0.81477000  0.64429000  0.83516000  1
  S  S379  1  0.68523000  0.52039000  0.82952000  1
  S  S380  1  0.69087000  0.67048000  0.85571000  1
  S  S381  1  0.80913000  0.66484000  0.97961000  1
  S  S382  1  0.97961000  0.30913000  0.16484000  1
  S  S383  1  0.82952000  0.18523000  0.02039000  1
  S  S384  1  0.83516000  0.31477000  0.14429000  1
  S  S385  1  0.85571000  0.19087000  0.17048000  1
  S  S386  1  0.31477000  0.83516000  0.64429000  1
  S  S387  1  0.18523000  0.82952000  0.52039000  1
  S  S388  1  0.30913000  0.97961000  0.66484000  1
  S  S389  1  0.19087000  0.85571000  0.67048000  1
  S  S390  1  0.17048000  0.35571000  0.69087000  1
  S  S391  1  0.16484000  0.47961000  0.80913000  1
  S  S392  1  0.02039000  0.32952000  0.68523000  1
  S  S393  1  0.14429000  0.33516000  0.81477000  1
  S  S394  1  0.67048000  0.69087000  0.35571000  1
  S  S395  1  0.64429000  0.81477000  0.33516000  1
  S  S396  1  0.52039000  0.68523000  0.32952000  1
  S  S397  1  0.66484000  0.80913000  0.47961000  1
  S  S398  1  0.47961000  0.16484000  0.30913000  1
  S  S399  1  0.35571000  0.17048000  0.19087000  1
  S  S400  1  0.32952000  0.02039000  0.18523000  1
  S  S401  1  0.33516000  0.14429000  0.31477000  1
  Br  Br402  1  0.71243000  0.68196000  0.71813000  1
  Br  Br403  1  0.96383000  0.78187000  0.99430000  1
  Br  Br404  1  0.96953000  0.28757000  0.00570000  1
  Br  Br405  1  0.78757000  0.50570000  0.96953000  1
  Br  Br406  1  0.81804000  0.03617000  0.03047000  1
  Br  Br407  1  0.28757000  0.96953000  0.50570000  1
  Br  Br408  1  0.53617000  0.53047000  0.81804000  1
  Br  Br409  1  0.99430000  0.46383000  0.28187000  1
  Br  Br410  1  0.46383000  0.99430000  0.78187000  1
  Br  Br411  1  0.71813000  0.21243000  0.18196000  1
  Br  Br412  1  0.21243000  0.71813000  0.68196000  1
  Br  Br413  1  0.03617000  0.81804000  0.53047000  1
  Br  Br414  1  0.03047000  0.31804000  0.53617000  1
  Br  Br415  1  0.18196000  0.21813000  0.71243000  1
  Br  Br416  1  0.68196000  0.71243000  0.21813000  1
  Br  Br417  1  0.28187000  0.49430000  0.96383000  1
  Br  Br418  1  0.78187000  0.96383000  0.49430000  1
  Br  Br419  1  0.31804000  0.03047000  0.03617000  1
  Br  Br420  1  0.00570000  0.46953000  0.78757000  1
  Br  Br421  1  0.53047000  0.53617000  0.31804000  1
  Br  Br422  1  0.46953000  0.00570000  0.28757000  1
  Br  Br423  1  0.50570000  0.78757000  0.46953000  1
  Br  Br424  1  0.49430000  0.28187000  0.46383000  1
  Br  Br425  1  0.21813000  0.18196000  0.21243000  1
  N  N426  1  0.00990000  0.45570000  0.01460000  1
  N  N427  1  0.29380000  0.98850000  0.29910000  1
  N  N428  1  0.45280000  0.06620000  0.46120000  1
  N  N429  1  0.48540000  0.44110000  0.49530000  1
  N  N430  1  0.18940000  0.99470000  0.20090000  1
  N  N431  1  0.87340000  0.32550000  0.88670000  1
  N  N432  1  0.54430000  0.55420000  0.55890000  1
  N  N433  1  0.91770000  0.62280000  0.93630000  1
  N  N434  1  0.31190000  0.92900000  0.33270000  1
  N  N435  1  0.00840000  0.11340000  0.04720000  1
  N  N436  1  0.94580000  0.00470000  0.99010000  1
  N  N437  1  0.88660000  0.89500000  0.93380000  1
  N  N438  1  0.82550000  0.38670000  0.87340000  1
  N  N439  1  0.95570000  0.51460000  0.00990000  1
  N  N440  1  0.45570000  0.00990000  0.51460000  1
  N  N441  1  0.32550000  0.87340000  0.38670000  1
  N  N442  1  0.81350000  0.79490000  0.87720000  1
  N  N443  1  0.53880000  0.49160000  0.60500000  1
  N  N444  1  0.09630000  0.97920000  0.16730000  1
  N  N445  1  0.98140000  0.18650000  0.06370000  1
  N  N446  1  0.33270000  0.81190000  0.42900000  1
  N  N447  1  0.46120000  0.95280000  0.56620000  1
  N  N448  1  0.06120000  0.04790000  0.17450000  1
  N  N449  1  0.95280000  0.46120000  0.06620000  1
  N  N450  1  0.81190000  0.33270000  0.92900000  1
  N  N451  1  0.58230000  0.51860000  0.70510000  1
  N  N452  1  0.98670000  0.93880000  0.11330000  1
  N  N453  1  0.02080000  0.11710000  0.18810000  1
  N  N454  1  0.95210000  0.01330000  0.12660000  1
  N  N455  1  0.93630000  0.41770000  0.12280000  1
  N  N456  1  0.88290000  0.90370000  0.07100000  1
  N  N457  1  0.29910000  0.79380000  0.48850000  1
  N  N458  1  0.79380000  0.29910000  0.98850000  1
  N  N459  1  0.00530000  0.19470000  0.20620000  1
  N  N460  1  0.41770000  0.93630000  0.62280000  1
  N  N461  1  0.80530000  0.81060000  0.01150000  1
  N  N462  1  0.20090000  0.68940000  0.49470000  1
  N  N463  1  0.68650000  0.56370000  0.98140000  1
  N  N464  1  0.01150000  0.30530000  0.31060000  1
  N  N465  1  0.68940000  0.20090000  0.99470000  1
  N  N466  1  0.69470000  0.70620000  0.00530000  1
  N  N467  1  0.16730000  0.59630000  0.47920000  1
  N  N468  1  0.70510000  0.08230000  0.01860000  1
  N  N469  1  0.11330000  0.48670000  0.43880000  1
  N  N470  1  0.07100000  0.38290000  0.40370000  1
  N  N471  1  0.17450000  0.56120000  0.54790000  1
  N  N472  1  0.18650000  0.98140000  0.56370000  1
  N  N473  1  0.59630000  0.16730000  0.97920000  1
  N  N474  1  0.60500000  0.03880000  0.99160000  1
  N  N475  1  0.12660000  0.45210000  0.51330000  1
  N  N476  1  0.61340000  0.54720000  0.00840000  1
  N  N477  1  0.61710000  0.68810000  0.02080000  1
  N  N478  1  0.87720000  0.31350000  0.29490000  1
  N  N479  1  0.18810000  0.52080000  0.61710000  1
  N  N480  1  0.11340000  0.00840000  0.54720000  1
  N  N481  1  0.08230000  0.70510000  0.51860000  1
  N  N482  1  0.51330000  0.62660000  0.95210000  1
  N  N483  1  0.50470000  0.49010000  0.94580000  1
  N  N484  1  0.49530000  0.98540000  0.94110000  1
  N  N485  1  0.48670000  0.11330000  0.93880000  1
  N  N486  1  0.03880000  0.60500000  0.49160000  1
  N  N487  1  0.98540000  0.49530000  0.44110000  1
  N  N488  1  0.93380000  0.38660000  0.39500000  1
  N  N489  1  0.40370000  0.57100000  0.88290000  1
  N  N490  1  0.31350000  0.87720000  0.79490000  1
  N  N491  1  0.00470000  0.94580000  0.49010000  1
  N  N492  1  0.56120000  0.17450000  0.04790000  1
  N  N493  1  0.20620000  0.50530000  0.69470000  1
  N  N494  1  0.05420000  0.05890000  0.54430000  1
  N  N495  1  0.39500000  0.43380000  0.88660000  1
  N  N496  1  0.31060000  0.51150000  0.80530000  1
  N  N497  1  0.55890000  0.04430000  0.05420000  1
  N  N498  1  0.55420000  0.54430000  0.05890000  1
  N  N499  1  0.30530000  0.01150000  0.81060000  1
  N  N500  1  0.38660000  0.93380000  0.89500000  1
  N  N501  1  0.04430000  0.55890000  0.55420000  1
  N  N502  1  0.19470000  0.00530000  0.70620000  1
  N  N503  1  0.54790000  0.67450000  0.06120000  1
  N  N504  1  0.99010000  0.44580000  0.50470000  1
  N  N505  1  0.29490000  0.37720000  0.81350000  1
  N  N506  1  0.38290000  0.07100000  0.90370000  1
  N  N507  1  0.89500000  0.88660000  0.43380000  1
  N  N508  1  0.94110000  0.99530000  0.48540000  1
  N  N509  1  0.99160000  0.10500000  0.53880000  1
  N  N510  1  0.43880000  0.61330000  0.98670000  1
  N  N511  1  0.44110000  0.48540000  0.99530000  1
  N  N512  1  0.44580000  0.99010000  0.00470000  1
  N  N513  1  0.45210000  0.12660000  0.01330000  1
  N  N514  1  0.01860000  0.20510000  0.58230000  1
  N  N515  1  0.04720000  0.50840000  0.61340000  1
  N  N516  1  0.11710000  0.02080000  0.68810000  1
  N  N517  1  0.79490000  0.81350000  0.37720000  1
  N  N518  1  0.52080000  0.18810000  0.11710000  1
  N  N519  1  0.50840000  0.04720000  0.11340000  1
  N  N520  1  0.01330000  0.95210000  0.62660000  1
  N  N521  1  0.49160000  0.53880000  0.10500000  1
  N  N522  1  0.47920000  0.66730000  0.09630000  1
  N  N523  1  0.06370000  0.48140000  0.68650000  1
  N  N524  1  0.04790000  0.06120000  0.67450000  1
  N  N525  1  0.90370000  0.88290000  0.57100000  1
  N  N526  1  0.93880000  0.98670000  0.61330000  1
  N  N527  1  0.51860000  0.58230000  0.20510000  1
  N  N528  1  0.97920000  0.09630000  0.66730000  1
  N  N529  1  0.50530000  0.20620000  0.19470000  1
  N  N530  1  0.49470000  0.70090000  0.18940000  1
  N  N531  1  0.81060000  0.80530000  0.51150000  1
  N  N532  1  0.48140000  0.06370000  0.18650000  1
  N  N533  1  0.99470000  0.18940000  0.70090000  1
  N  N534  1  0.51150000  0.31060000  0.30530000  1
  N  N535  1  0.12280000  0.43630000  0.91770000  1
  N  N536  1  0.70620000  0.69470000  0.50530000  1
  N  N537  1  0.48850000  0.79910000  0.29380000  1
  N  N538  1  0.98850000  0.29380000  0.79910000  1
  N  N539  1  0.57100000  0.40370000  0.38290000  1
  N  N540  1  0.62280000  0.91770000  0.43630000  1
  N  N541  1  0.62660000  0.51330000  0.45210000  1
  N  N542  1  0.68810000  0.61710000  0.52080000  1
  N  N543  1  0.61330000  0.43880000  0.48670000  1
  N  N544  1  0.20510000  0.01860000  0.08230000  1
  N  N545  1  0.42900000  0.83270000  0.31190000  1
  N  N546  1  0.56620000  0.96120000  0.45280000  1
  N  N547  1  0.67450000  0.54790000  0.56120000  1
  N  N548  1  0.06620000  0.45280000  0.96120000  1
  N  N549  1  0.92900000  0.31190000  0.83270000  1
  N  N550  1  0.56370000  0.68650000  0.48140000  1
  N  N551  1  0.66730000  0.47920000  0.59630000  1
  N  N552  1  0.10500000  0.99160000  0.03880000  1
  N  N553  1  0.37720000  0.29490000  0.31350000  1
  N  N554  1  0.88670000  0.37340000  0.82550000  1
  N  N555  1  0.01460000  0.50990000  0.95570000  1
  N  N556  1  0.50990000  0.01460000  0.45570000  1
  N  N557  1  0.37340000  0.88670000  0.32550000  1
  N  N558  1  0.43380000  0.39500000  0.38660000  1
  N  N559  1  0.49010000  0.50470000  0.44580000  1
  N  N560  1  0.54720000  0.61340000  0.50840000  1
  N  N561  1  0.83270000  0.42900000  0.81190000  1
  N  N562  1  0.43630000  0.12280000  0.41770000  1
  N  N563  1  0.05890000  0.05420000  0.04430000  1
  N  N564  1  0.38670000  0.82550000  0.37340000  1
  N  N565  1  0.70090000  0.49470000  0.68940000  1
  N  N566  1  0.99530000  0.94110000  0.98540000  1
  N  N567  1  0.96120000  0.56620000  0.95280000  1
  N  N568  1  0.79910000  0.48850000  0.79380000  1
  N  N569  1  0.51460000  0.95570000  0.50990000  1
