# generated using pymatgen
data_NiH12C18(NO)4
_symmetry_space_group_name_H-M   'P 1'
_cell_length_a   14.49620000
_cell_length_b   14.49620000
_cell_length_c   16.11400000
_cell_angle_alpha   91.06980000
_cell_angle_beta   91.06980000
_cell_angle_gamma   94.76370000
_symmetry_Int_Tables_number   1
_chemical_formula_structural   NiH12C18(NO)4
_chemical_formula_sum   'Ni6 H72 C108 N24 O24'
_cell_volume   3373.21287489
_cell_formula_units_Z   6
loop_
 _symmetry_equiv_pos_site_id
 _symmetry_equiv_pos_as_xyz
  1  'x, y, z'
loop_
 _atom_site_type_symbol
 _atom_site_label
 _atom_site_symmetry_multiplicity
 _atom_site_fract_x
 _atom_site_fract_y
 _atom_site_fract_z
 _atom_site_occupancy
  Ni  Ni0  1  0.11660000  0.88340000  0.25000000  1
  Ni  Ni1  1  0.52031000  0.81317000  0.11428000  1
  Ni  Ni2  1  0.81317000  0.52031000  0.61428000  1
  Ni  Ni3  1  0.18683000  0.47969000  0.38572000  1
  Ni  Ni4  1  0.47969000  0.18683000  0.88572000  1
  Ni  Ni5  1  0.88340000  0.11660000  0.75000000  1
  H  H6  1  0.71980000  0.99560000  0.64370000  1
  H  H7  1  0.40610000  0.96750000  0.00750000  1
  H  H8  1  0.36420000  0.96140000  0.17660000  1
  H  H9  1  0.63060000  0.96080000  0.21530000  1
  H  H10  1  0.29560000  0.96060000  0.68330000  1
  H  H11  1  0.64320000  0.94140000  0.50530000  1
  H  H12  1  0.73800000  0.92780000  0.93210000  1
  H  H13  1  0.28290000  0.91930000  0.90580000  1
  H  H14  1  0.58600000  0.89660000  0.74440000  1
  H  H15  1  0.52390000  0.86550000  0.42790000  1
  H  H16  1  0.19560000  0.85520000  0.61000000  1
  H  H17  1  0.78520000  0.83040000  0.24050000  1
  H  H18  1  0.14480000  0.80440000  0.89000000  1
  H  H19  1  0.83040000  0.78520000  0.74050000  1
  H  H20  1  0.47060000  0.77020000  0.71400000  1
  H  H21  1  0.37470000  0.76690000  0.42320000  1
  H  H22  1  0.26460000  0.76120000  0.16850000  1
  H  H23  1  0.92780000  0.73800000  0.43210000  1
  H  H24  1  0.23880000  0.73540000  0.33150000  1
  H  H25  1  0.99560000  0.71980000  0.14370000  1
  H  H26  1  0.08070000  0.71710000  0.59420000  1
  H  H27  1  0.03940000  0.70440000  0.81670000  1
  H  H28  1  0.38810000  0.69830000  0.99440000  1
  H  H29  1  0.65470000  0.66970000  0.40920000  1
  H  H30  1  0.37170000  0.66650000  0.63820000  1
  H  H31  1  0.66970000  0.65470000  0.90920000  1
  H  H32  1  0.94140000  0.64320000  0.00530000  1
  H  H33  1  0.03860000  0.63580000  0.32340000  1
  H  H34  1  0.96080000  0.63060000  0.71530000  1
  H  H35  1  0.33350000  0.62830000  0.86180000  1
  H  H36  1  0.23310000  0.62530000  0.07680000  1
  H  H37  1  0.30170000  0.61190000  0.50560000  1
  H  H38  1  0.03250000  0.59390000  0.49250000  1
  H  H39  1  0.89660000  0.58600000  0.24440000  1
  H  H40  1  0.22980000  0.52940000  0.78600000  1
  H  H41  1  0.86550000  0.52390000  0.92790000  1
  H  H42  1  0.13450000  0.47610000  0.07210000  1
  H  H43  1  0.77020000  0.47060000  0.21400000  1
  H  H44  1  0.10340000  0.41400000  0.75560000  1
  H  H45  1  0.96750000  0.40610000  0.50750000  1
  H  H46  1  0.69830000  0.38810000  0.49440000  1
  H  H47  1  0.76690000  0.37470000  0.92320000  1
  H  H48  1  0.66650000  0.37170000  0.13820000  1
  H  H49  1  0.03920000  0.36940000  0.28470000  1
  H  H50  1  0.96140000  0.36420000  0.67660000  1
  H  H51  1  0.05860000  0.35680000  0.99470000  1
  H  H52  1  0.33030000  0.34530000  0.09080000  1
  H  H53  1  0.62830000  0.33350000  0.36180000  1
  H  H54  1  0.34530000  0.33030000  0.59080000  1
  H  H55  1  0.61190000  0.30170000  0.00560000  1
  H  H56  1  0.96060000  0.29560000  0.18330000  1
  H  H57  1  0.91930000  0.28290000  0.40580000  1
  H  H58  1  0.00440000  0.28020000  0.85630000  1
  H  H59  1  0.76120000  0.26460000  0.66850000  1
  H  H60  1  0.07220000  0.26200000  0.56790000  1
  H  H61  1  0.73540000  0.23880000  0.83150000  1
  H  H62  1  0.62530000  0.23310000  0.57680000  1
  H  H63  1  0.52940000  0.22980000  0.28600000  1
  H  H64  1  0.16960000  0.21480000  0.25950000  1
  H  H65  1  0.85520000  0.19560000  0.11000000  1
  H  H66  1  0.21480000  0.16960000  0.75950000  1
  H  H67  1  0.80440000  0.14480000  0.39000000  1
  H  H68  1  0.47610000  0.13450000  0.57210000  1
  H  H69  1  0.41400000  0.10340000  0.25560000  1
  H  H70  1  0.71710000  0.08070000  0.09420000  1
  H  H71  1  0.26200000  0.07220000  0.06790000  1
  H  H72  1  0.35680000  0.05860000  0.49470000  1
  H  H73  1  0.70440000  0.03940000  0.31670000  1
  H  H74  1  0.36940000  0.03920000  0.78470000  1
  H  H75  1  0.63580000  0.03860000  0.82340000  1
  H  H76  1  0.59390000  0.03250000  0.99250000  1
  H  H77  1  0.28020000  0.00440000  0.35630000  1
  C  C78  1  0.42450000  0.97910000  0.19460000  1
  C  C79  1  0.57030000  0.97830000  0.21550000  1
  C  C80  1  0.58550000  0.96510000  0.50330000  1
  C  C81  1  0.83500000  0.95900000  0.79870000  1
  C  C82  1  0.42860000  0.95420000  0.45320000  1
  C  C83  1  0.54870000  0.94210000  0.76190000  1
  C  C84  1  0.28710000  0.94130000  0.36050000  1
  C  C85  1  0.51410000  0.91970000  0.45690000  1
  C  C86  1  0.38690000  0.90670000  0.99230000  1
  C  C87  1  0.31180000  0.90060000  0.67430000  1
  C  C88  1  0.31870000  0.88070000  0.93570000  1
  C  C89  1  0.39300000  0.87600000  0.70420000  1
  C  C90  1  0.74050000  0.87230000  0.90270000  1
  C  C91  1  0.79140000  0.87040000  0.83140000  1
  C  C92  1  0.25180000  0.83740000  0.63010000  1
  C  C93  1  0.95900000  0.83500000  0.29870000  1
  C  C94  1  0.34010000  0.81070000  0.39860000  1
  C  C95  1  0.63230000  0.79730000  0.00460000  1
  C  C96  1  0.78700000  0.79640000  0.28880000  1
  C  C97  1  0.26500000  0.79380000  0.34760000  1
  C  C98  1  0.69290000  0.79230000  0.93140000  1
  C  C99  1  0.87040000  0.79140000  0.33140000  1
  C  C100  1  0.41530000  0.78870000  0.69220000  1
  C  C101  1  0.79640000  0.78700000  0.78880000  1
  C  C102  1  0.37730000  0.75970000  0.98520000  1
  C  C103  1  0.61730000  0.75330000  0.26830000  1
  C  C104  1  0.70690000  0.75130000  0.31740000  1
  C  C105  1  0.27480000  0.75120000  0.61640000  1
  C  C106  1  0.16260000  0.74820000  0.86990000  1
  C  C107  1  0.87230000  0.74050000  0.40270000  1
  C  C108  1  0.20620000  0.73500000  0.15240000  1
  C  C109  1  0.35560000  0.72660000  0.64730000  1
  C  C110  1  0.24880000  0.72520000  0.88360000  1
  C  C111  1  0.05870000  0.71290000  0.13950000  1
  C  C112  1  0.69950000  0.70890000  0.88940000  1
  C  C113  1  0.75130000  0.70690000  0.81740000  1
  C  C114  1  0.70890000  0.69950000  0.38940000  1
  C  C115  1  0.79230000  0.69290000  0.43140000  1
  C  C116  1  0.09940000  0.68820000  0.82570000  1
  C  C117  1  0.11930000  0.68130000  0.56430000  1
  C  C118  1  0.18930000  0.65990000  0.10140000  1
  C  C119  1  0.27340000  0.64440000  0.85270000  1
  C  C120  1  0.79730000  0.63230000  0.50460000  1
  C  C121  1  0.24030000  0.62270000  0.51480000  1
  C  C122  1  0.75330000  0.61730000  0.76830000  1
  C  C123  1  0.09330000  0.61310000  0.50770000  1
  C  C124  1  0.12400000  0.60700000  0.79580000  1
  C  C125  1  0.96510000  0.58550000  0.00330000  1
  C  C126  1  0.21130000  0.58470000  0.80780000  1
  C  C127  1  0.02090000  0.57550000  0.30540000  1
  C  C128  1  0.04580000  0.57140000  0.04680000  1
  C  C129  1  0.97830000  0.57030000  0.71550000  1
  C  C130  1  0.94210000  0.54870000  0.26190000  1
  C  C131  1  0.91970000  0.51410000  0.95690000  1
  C  C132  1  0.08030000  0.48590000  0.04310000  1
  C  C133  1  0.05790000  0.45130000  0.73810000  1
  C  C134  1  0.02170000  0.42970000  0.28450000  1
  C  C135  1  0.95420000  0.42860000  0.95320000  1
  C  C136  1  0.97910000  0.42450000  0.69460000  1
  C  C137  1  0.78870000  0.41530000  0.19220000  1
  C  C138  1  0.03490000  0.41450000  0.99670000  1
  C  C139  1  0.87600000  0.39300000  0.20420000  1
  C  C140  1  0.90670000  0.38690000  0.49230000  1
  C  C141  1  0.24670000  0.38270000  0.23170000  1
  C  C142  1  0.75970000  0.37730000  0.48520000  1
  C  C143  1  0.20270000  0.36770000  0.49540000  1
  C  C144  1  0.72660000  0.35560000  0.14730000  1
  C  C145  1  0.81070000  0.34010000  0.89860000  1
  C  C146  1  0.88070000  0.31870000  0.43570000  1
  C  C147  1  0.90060000  0.31180000  0.17430000  1
  C  C148  1  0.20770000  0.30710000  0.56860000  1
  C  C149  1  0.29110000  0.30050000  0.61060000  1
  C  C150  1  0.24870000  0.29310000  0.18260000  1
  C  C151  1  0.30050000  0.29110000  0.11060000  1
  C  C152  1  0.94130000  0.28710000  0.86050000  1
  C  C153  1  0.75120000  0.27480000  0.11640000  1
  C  C154  1  0.64440000  0.27340000  0.35270000  1
  C  C155  1  0.79380000  0.26500000  0.84760000  1
  C  C156  1  0.12770000  0.25950000  0.59730000  1
  C  C157  1  0.83740000  0.25180000  0.13010000  1
  C  C158  1  0.72520000  0.24880000  0.38360000  1
  C  C159  1  0.29310000  0.24870000  0.68260000  1
  C  C160  1  0.38270000  0.24670000  0.73170000  1
  C  C161  1  0.62270000  0.24030000  0.01480000  1
  C  C162  1  0.20360000  0.21300000  0.21120000  1
  C  C163  1  0.58470000  0.21130000  0.30780000  1
  C  C164  1  0.12960000  0.20860000  0.66860000  1
  C  C165  1  0.30710000  0.20770000  0.06860000  1
  C  C166  1  0.73500000  0.20620000  0.65240000  1
  C  C167  1  0.21300000  0.20360000  0.71120000  1
  C  C168  1  0.36770000  0.20270000  0.99540000  1
  C  C169  1  0.65990000  0.18930000  0.60140000  1
  C  C170  1  0.04100000  0.16500000  0.70130000  1
  C  C171  1  0.74820000  0.16260000  0.36990000  1
  C  C172  1  0.20860000  0.12960000  0.16860000  1
  C  C173  1  0.25950000  0.12770000  0.09730000  1
  C  C174  1  0.60700000  0.12400000  0.29580000  1
  C  C175  1  0.68130000  0.11930000  0.06430000  1
  C  C176  1  0.68820000  0.09940000  0.32570000  1
  C  C177  1  0.61310000  0.09330000  0.00770000  1
  C  C178  1  0.48590000  0.08030000  0.54310000  1
  C  C179  1  0.71290000  0.05870000  0.63950000  1
  C  C180  1  0.45130000  0.05790000  0.23810000  1
  C  C181  1  0.57140000  0.04580000  0.54680000  1
  C  C182  1  0.16500000  0.04100000  0.20130000  1
  C  C183  1  0.41450000  0.03490000  0.49670000  1
  C  C184  1  0.42970000  0.02170000  0.78450000  1
  C  C185  1  0.57550000  0.02090000  0.80540000  1
  N  N186  1  0.45500000  0.94300000  0.74910000  1
  N  N187  1  0.49850000  0.92970000  0.18130000  1
  N  N188  1  0.35470000  0.90530000  0.40660000  1
  N  N189  1  0.23310000  0.87630000  0.32310000  1
  N  N190  1  0.42270000  0.83030000  0.02350000  1
  N  N191  1  0.31340000  0.78580000  0.93140000  1
  N  N192  1  0.12370000  0.76690000  0.17690000  1
  N  N193  1  0.21420000  0.68660000  0.56860000  1
  N  N194  1  0.09470000  0.64530000  0.09340000  1
  N  N195  1  0.16970000  0.57730000  0.47650000  1
  N  N196  1  0.05700000  0.54500000  0.75090000  1
  N  N197  1  0.07030000  0.50150000  0.31870000  1
  N  N198  1  0.92970000  0.49850000  0.68130000  1
  N  N199  1  0.94300000  0.45500000  0.24910000  1
  N  N200  1  0.83030000  0.42270000  0.52350000  1
  N  N201  1  0.90530000  0.35470000  0.90660000  1
  N  N202  1  0.78580000  0.31340000  0.43140000  1
  N  N203  1  0.87630000  0.23310000  0.82310000  1
  N  N204  1  0.68660000  0.21420000  0.06860000  1
  N  N205  1  0.57730000  0.16970000  0.97650000  1
  N  N206  1  0.76690000  0.12370000  0.67690000  1
  N  N207  1  0.64530000  0.09470000  0.59340000  1
  N  N208  1  0.50150000  0.07030000  0.81870000  1
  N  N209  1  0.54500000  0.05700000  0.25090000  1
  O  O210  1  0.17203000  0.96673000  0.16020000  1
  O  O211  1  0.87410000  0.96196000  0.72960000  1
  O  O212  1  0.96196000  0.87410000  0.22960000  1
  O  O213  1  0.62568000  0.87336000  0.04060000  1
  O  O214  1  0.03327000  0.82797000  0.33980000  1
  O  O215  1  0.62269000  0.78601000  0.19770000  1
  O  O216  1  0.58422000  0.72524000  0.02780000  1
  O  O217  1  0.54290000  0.72390000  0.30130000  1
  O  O218  1  0.87336000  0.62568000  0.54060000  1
  O  O219  1  0.78601000  0.62269000  0.69770000  1
  O  O220  1  0.72524000  0.58422000  0.52780000  1
  O  O221  1  0.72390000  0.54290000  0.80130000  1
  O  O222  1  0.27610000  0.45710000  0.19870000  1
  O  O223  1  0.27476000  0.41578000  0.47220000  1
  O  O224  1  0.21399000  0.37731000  0.30230000  1
  O  O225  1  0.12664000  0.37432000  0.45940000  1
  O  O226  1  0.45710000  0.27610000  0.69870000  1
  O  O227  1  0.41578000  0.27476000  0.97220000  1
  O  O228  1  0.37731000  0.21399000  0.80230000  1
  O  O229  1  0.96673000  0.17203000  0.66020000  1
  O  O230  1  0.37432000  0.12664000  0.95940000  1
  O  O231  1  0.03804000  0.12590000  0.77040000  1
  O  O232  1  0.12590000  0.03804000  0.27040000  1
  O  O233  1  0.82797000  0.03327000  0.83980000  1
