# generated using pymatgen
data_Mn3H16C28(NO5)2
_symmetry_space_group_name_H-M   'P 1'
_cell_length_a   11.70560000
_cell_length_b   12.32160000
_cell_length_c   12.78120000
_cell_angle_alpha   90.00000000
_cell_angle_beta   98.15400000
_cell_angle_gamma   90.00000000
_symmetry_Int_Tables_number   1
_chemical_formula_structural   Mn3H16C28(NO5)2
_chemical_formula_sum   'Mn6 H32 C56 N4 O20'
_cell_volume   1824.81792470
_cell_formula_units_Z   2
loop_
 _symmetry_equiv_pos_site_id
 _symmetry_equiv_pos_as_xyz
  1  'x, y, z'
loop_
 _atom_site_type_symbol
 _atom_site_label
 _atom_site_symmetry_multiplicity
 _atom_site_fract_x
 _atom_site_fract_y
 _atom_site_fract_z
 _atom_site_occupancy
  Mn  Mn0  1  0.35960000  0.62380000  0.83510000  1
  Mn  Mn1  1  0.35960000  0.87620000  0.33510000  1
  Mn  Mn2  1  0.50000000  0.00000000  0.00000000  1
  Mn  Mn3  1  0.50000000  0.50000000  0.50000000  1
  Mn  Mn4  1  0.64040000  0.12380000  0.66490000  1
  Mn  Mn5  1  0.64040000  0.37620000  0.16490000  1
  H  H6  1  0.08290000  0.65480000  0.45630000  1
  H  H7  1  0.08290000  0.84520000  0.95630000  1
  H  H8  1  0.09320000  0.15570000  0.04350000  1
  H  H9  1  0.09320000  0.34430000  0.54350000  1
  H  H10  1  0.27800000  0.64780000  0.45970000  1
  H  H11  1  0.27800000  0.85220000  0.95970000  1
  H  H12  1  0.28770000  0.15180000  0.04410000  1
  H  H13  1  0.28770000  0.34820000  0.54410000  1
  H  H14  1  0.40750000  0.66360000  0.27650000  1
  H  H15  1  0.40750000  0.83640000  0.77650000  1
  H  H16  1  0.42040000  0.70780000  0.64720000  1
  H  H17  1  0.42040000  0.79220000  0.14720000  1
  H  H18  1  0.43910000  0.50150000  0.13110000  1
  H  H19  1  0.43910000  0.99850000  0.63110000  1
  H  H20  1  0.45270000  0.12580000  0.50230000  1
  H  H21  1  0.45270000  0.37420000  0.00230000  1
  H  H22  1  0.54730000  0.62580000  0.99770000  1
  H  H23  1  0.54730000  0.87420000  0.49770000  1
  H  H24  1  0.56090000  0.00150000  0.36890000  1
  H  H25  1  0.56090000  0.49850000  0.86890000  1
  H  H26  1  0.57960000  0.20780000  0.85280000  1
  H  H27  1  0.57960000  0.29220000  0.35280000  1
  H  H28  1  0.59250000  0.16360000  0.22350000  1
  H  H29  1  0.59250000  0.33640000  0.72350000  1
  H  H30  1  0.71230000  0.65180000  0.45590000  1
  H  H31  1  0.71230000  0.84820000  0.95590000  1
  H  H32  1  0.72200000  0.14780000  0.04030000  1
  H  H33  1  0.72200000  0.35220000  0.54030000  1
  H  H34  1  0.90680000  0.65570000  0.45650000  1
  H  H35  1  0.90680000  0.84430000  0.95650000  1
  H  H36  1  0.91710000  0.15480000  0.04370000  1
  H  H37  1  0.91710000  0.34520000  0.54370000  1
  C  C38  1  0.06390000  0.00030000  0.00060000  1
  C  C39  1  0.06390000  0.49970000  0.50060000  1
  C  C40  1  0.12240000  0.59070000  0.47490000  1
  C  C41  1  0.12240000  0.90930000  0.97490000  1
  C  C42  1  0.12850000  0.09190000  0.02620000  1
  C  C43  1  0.12850000  0.40810000  0.52620000  1
  C  C44  1  0.22800000  0.67520000  0.76250000  1
  C  C45  1  0.22800000  0.82480000  0.26250000  1
  C  C46  1  0.24020000  0.58530000  0.47710000  1
  C  C47  1  0.24020000  0.91470000  0.97710000  1
  C  C48  1  0.24590000  0.08870000  0.02610000  1
  C  C49  1  0.24590000  0.41130000  0.52610000  1
  C  C50  1  0.30050000  0.62890000  0.95680000  1
  C  C51  1  0.30050000  0.87110000  0.45680000  1
  C  C52  1  0.31590000  0.01470000  0.30910000  1
  C  C53  1  0.31590000  0.48530000  0.80910000  1
  C  C54  1  0.44600000  0.72820000  0.29550000  1
  C  C55  1  0.44600000  0.77180000  0.79550000  1
  C  C56  1  0.45460000  0.69320000  0.71600000  1
  C  C57  1  0.45460000  0.80680000  0.21600000  1
  C  C58  1  0.46180000  0.06860000  0.65150000  1
  C  C59  1  0.46180000  0.43140000  0.15150000  1
  C  C60  1  0.47070000  0.14600000  0.57290000  1
  C  C61  1  0.47070000  0.35400000  0.07290000  1
  C  C62  1  0.48650000  0.09290000  0.76260000  1
  C  C63  1  0.48650000  0.40710000  0.26260000  1
  C  C64  1  0.49330000  0.74390000  0.40240000  1
  C  C65  1  0.49330000  0.75610000  0.90240000  1
  C  C66  1  0.50670000  0.24390000  0.09760000  1
  C  C67  1  0.50670000  0.25610000  0.59760000  1
  C  C68  1  0.51350000  0.59290000  0.73740000  1
  C  C69  1  0.51350000  0.90710000  0.23740000  1
  C  C70  1  0.52930000  0.64600000  0.92710000  1
  C  C71  1  0.52930000  0.85400000  0.42710000  1
  C  C72  1  0.53820000  0.56860000  0.84850000  1
  C  C73  1  0.53820000  0.93140000  0.34850000  1
  C  C74  1  0.54540000  0.19320000  0.78400000  1
  C  C75  1  0.54540000  0.30680000  0.28400000  1
  C  C76  1  0.55400000  0.22820000  0.20450000  1
  C  C77  1  0.55400000  0.27180000  0.70450000  1
  C  C78  1  0.68410000  0.51470000  0.19090000  1
  C  C79  1  0.68410000  0.98530000  0.69090000  1
  C  C80  1  0.69950000  0.12890000  0.54320000  1
  C  C81  1  0.69950000  0.37110000  0.04320000  1
  C  C82  1  0.75410000  0.58870000  0.47390000  1
  C  C83  1  0.75410000  0.91130000  0.97390000  1
  C  C84  1  0.75980000  0.08530000  0.02290000  1
  C  C85  1  0.75980000  0.41470000  0.52290000  1
  C  C86  1  0.77200000  0.17520000  0.73750000  1
  C  C87  1  0.77200000  0.32480000  0.23750000  1
  C  C88  1  0.87150000  0.59190000  0.47380000  1
  C  C89  1  0.87150000  0.90810000  0.97380000  1
  C  C90  1  0.87760000  0.09070000  0.02510000  1
  C  C91  1  0.87760000  0.40930000  0.52510000  1
  C  C92  1  0.93610000  0.50030000  0.49940000  1
  C  C93  1  0.93610000  0.99970000  0.99940000  1
  N  N94  1  0.30350000  0.00190000  0.00210000  1
  N  N95  1  0.30350000  0.49810000  0.50210000  1
  N  N96  1  0.69650000  0.50190000  0.49790000  1
  N  N97  1  0.69650000  0.99810000  0.99790000  1
  O  O98  1  0.14690000  0.71080000  0.71560000  1
  O  O99  1  0.14690000  0.78920000  0.21560000  1
  O  O100  1  0.26710000  0.63420000  0.03660000  1
  O  O101  1  0.26710000  0.86580000  0.53660000  1
  O  O102  1  0.28990000  0.10300000  0.29330000  1
  O  O103  1  0.28990000  0.39700000  0.79330000  1
  O  O104  1  0.46440000  0.02440000  0.83160000  1
  O  O105  1  0.46440000  0.47560000  0.33160000  1
  O  O106  1  0.49550000  0.67310000  0.47550000  1
  O  O107  1  0.49550000  0.82690000  0.97550000  1
  O  O108  1  0.50450000  0.17310000  0.02450000  1
  O  O109  1  0.50450000  0.32690000  0.52450000  1
  O  O110  1  0.53560000  0.52440000  0.66840000  1
  O  O111  1  0.53560000  0.97560000  0.16840000  1
  O  O112  1  0.71010000  0.60300000  0.20670000  1
  O  O113  1  0.71010000  0.89700000  0.70670000  1
  O  O114  1  0.73290000  0.13420000  0.46340000  1
  O  O115  1  0.73290000  0.36580000  0.96340000  1
  O  O116  1  0.85310000  0.21080000  0.78440000  1
  O  O117  1  0.85310000  0.28920000  0.28440000  1
