# generated using pymatgen
data_Cd3H24(C3N2)4
_symmetry_space_group_name_H-M   'P 1'
_cell_length_a   34.60660000
_cell_length_b   34.60660000
_cell_length_c   34.60660000
_cell_angle_alpha   60.00000000
_cell_angle_beta   60.00000000
_cell_angle_gamma   60.00000000
_symmetry_Int_Tables_number   1
_chemical_formula_structural   Cd3H24(C3N2)4
_chemical_formula_sum   'Cd48 H384 C192 N128'
_cell_volume   29306.35470662
_cell_formula_units_Z   16
loop_
 _symmetry_equiv_pos_site_id
 _symmetry_equiv_pos_as_xyz
  1  'x, y, z'
loop_
 _atom_site_type_symbol
 _atom_site_label
 _atom_site_symmetry_multiplicity
 _atom_site_fract_x
 _atom_site_fract_y
 _atom_site_fract_z
 _atom_site_occupancy
  Cd  Cd0  1  0.68964000  0.31036000  0.00000000  1
  Cd  Cd1  1  0.31036000  1.00000000  0.00000000  1
  Cd  Cd2  1  0.00000000  0.31036000  0.00000000  1
  Cd  Cd3  1  0.68964000  1.00000000  0.00000000  1
  Cd  Cd4  1  0.00000000  0.68964000  0.00000000  1
  Cd  Cd5  1  0.50000000  0.68964000  0.81036000  1
  Cd  Cd6  1  0.68964000  0.50000000  0.81036000  1
  Cd  Cd7  1  0.50000000  1.00000000  0.81036000  1
  Cd  Cd8  1  0.00000000  0.50000000  0.81036000  1
  Cd  Cd9  1  0.68964000  1.00000000  0.81036000  1
  Cd  Cd10  1  0.00000000  0.68964000  0.81036000  1
  Cd  Cd11  1  0.10783000  0.29440000  0.79440000  1
  Cd  Cd12  1  0.29440000  0.10783000  0.79440000  1
  Cd  Cd13  1  0.10783000  0.80337000  0.79440000  1
  Cd  Cd14  1  0.80337000  0.10783000  0.79440000  1
  Cd  Cd15  1  0.29440000  0.80337000  0.79440000  1
  Cd  Cd16  1  0.80337000  0.29440000  0.79440000  1
  Cd  Cd17  1  0.70560000  0.70560000  0.69663000  1
  Cd  Cd18  1  0.70560000  0.89217000  0.69663000  1
  Cd  Cd19  1  0.89217000  0.70560000  0.69663000  1
  Cd  Cd20  1  0.29440000  0.29440000  0.60783000  1
  Cd  Cd21  1  0.29440000  0.80337000  0.60783000  1
  Cd  Cd22  1  0.80337000  0.29440000  0.60783000  1
  Cd  Cd23  1  0.31036000  0.50000000  0.50000000  1
  Cd  Cd24  1  0.50000000  0.31036000  0.50000000  1
  Cd  Cd25  1  0.31036000  0.68964000  0.50000000  1
  Cd  Cd26  1  0.68964000  0.31036000  0.50000000  1
  Cd  Cd27  1  0.50000000  0.68964000  0.50000000  1
  Cd  Cd28  1  0.68964000  0.50000000  0.50000000  1
  Cd  Cd29  1  0.19663000  0.70560000  0.39217000  1
  Cd  Cd30  1  0.70560000  0.19663000  0.39217000  1
  Cd  Cd31  1  0.70560000  0.70560000  0.39217000  1
  Cd  Cd32  1  0.10783000  0.29440000  0.30337000  1
  Cd  Cd33  1  0.29440000  0.10783000  0.30337000  1
  Cd  Cd34  1  0.29440000  0.29440000  0.30337000  1
  Cd  Cd35  1  0.19663000  0.70560000  0.20560000  1
  Cd  Cd36  1  0.70560000  0.19663000  0.20560000  1
  Cd  Cd37  1  0.19663000  0.89217000  0.20560000  1
  Cd  Cd38  1  0.89217000  0.19663000  0.20560000  1
  Cd  Cd39  1  0.70560000  0.89217000  0.20560000  1
  Cd  Cd40  1  0.89217000  0.70560000  0.20560000  1
  Cd  Cd41  1  0.31036000  0.50000000  0.18964000  1
  Cd  Cd42  1  0.50000000  0.31036000  0.18964000  1
  Cd  Cd43  1  0.31036000  1.00000000  0.18964000  1
  Cd  Cd44  1  0.00000000  0.31036000  0.18964000  1
  Cd  Cd45  1  0.50000000  1.00000000  0.18964000  1
  Cd  Cd46  1  0.00000000  0.50000000  0.18964000  1
  Cd  Cd47  1  0.31036000  0.68964000  0.00000000  1
  H  H48  1  0.36630000  0.77250000  0.93810000  1
  H  H49  1  0.77250000  0.36630000  0.93810000  1
  H  H50  1  0.36630000  0.92310000  0.93810000  1
  H  H51  1  0.92310000  0.36630000  0.93810000  1
  H  H52  1  0.77250000  0.92310000  0.93810000  1
  H  H53  1  0.92310000  0.77250000  0.93810000  1
  H  H54  1  0.31740000  0.79980000  0.92980000  1
  H  H55  1  0.79980000  0.31740000  0.92980000  1
  H  H56  1  0.31740000  0.95300000  0.92980000  1
  H  H57  1  0.95300000  0.31740000  0.92980000  1
  H  H58  1  0.79980000  0.95300000  0.92980000  1
  H  H59  1  0.95300000  0.79980000  0.92980000  1
  H  H60  1  0.41770000  0.69390000  0.91770000  1
  H  H61  1  0.69390000  0.41770000  0.91770000  1
  H  H62  1  0.41770000  0.97070000  0.91770000  1
  H  H63  1  0.97070000  0.41770000  0.91770000  1
  H  H64  1  0.69390000  0.97070000  0.91770000  1
  H  H65  1  0.97070000  0.69390000  0.91770000  1
  H  H66  1  0.03670000  0.28850000  0.90470000  1
  H  H67  1  0.28850000  0.03670000  0.90470000  1
  H  H68  1  0.03670000  0.77010000  0.90470000  1
  H  H69  1  0.77010000  0.03670000  0.90470000  1
  H  H70  1  0.28850000  0.77010000  0.90470000  1
  H  H71  1  0.77010000  0.28850000  0.90470000  1
  H  H72  1  0.02600000  0.39740000  0.89740000  1
  H  H73  1  0.39740000  0.02600000  0.89740000  1
  H  H74  1  0.02600000  0.67920000  0.89740000  1
  H  H75  1  0.67920000  0.02600000  0.89740000  1
  H  H76  1  0.39740000  0.67920000  0.89740000  1
  H  H77  1  0.67920000  0.39740000  0.89740000  1
  H  H78  1  0.06620000  0.31880000  0.89100000  1
  H  H79  1  0.31880000  0.06620000  0.89100000  1
  H  H80  1  0.06620000  0.72400000  0.89100000  1
  H  H81  1  0.72400000  0.06620000  0.89100000  1
  H  H82  1  0.31880000  0.72400000  0.89100000  1
  H  H83  1  0.72400000  0.31880000  0.89100000  1
  H  H84  1  0.43810000  0.77250000  0.86630000  1
  H  H85  1  0.77250000  0.43810000  0.86630000  1
  H  H86  1  0.43810000  0.92310000  0.86630000  1
  H  H87  1  0.92310000  0.43810000  0.86630000  1
  H  H88  1  0.77250000  0.92310000  0.86630000  1
  H  H89  1  0.92310000  0.77250000  0.86630000  1
  H  H90  1  0.30950000  0.84530000  0.85510000  1
  H  H91  1  0.84530000  0.30950000  0.85510000  1
  H  H92  1  0.30950000  0.99010000  0.85510000  1
  H  H93  1  0.99010000  0.30950000  0.85510000  1
  H  H94  1  0.84530000  0.99010000  0.85510000  1
  H  H95  1  0.99010000  0.84530000  0.85510000  1
  H  H96  1  0.60260000  0.60260000  0.82080000  1
  H  H97  1  0.60260000  0.97400000  0.82080000  1
  H  H98  1  0.97400000  0.60260000  0.82080000  1
  H  H99  1  0.06620000  0.39100000  0.81880000  1
  H  H100  1  0.39100000  0.06620000  0.81880000  1
  H  H101  1  0.06620000  0.72400000  0.81880000  1
  H  H102  1  0.72400000  0.06620000  0.81880000  1
  H  H103  1  0.39100000  0.72400000  0.81880000  1
  H  H104  1  0.72400000  0.39100000  0.81880000  1
  H  H105  1  0.42980000  0.79980000  0.81740000  1
  H  H106  1  0.79980000  0.42980000  0.81740000  1
  H  H107  1  0.42980000  0.95300000  0.81740000  1
  H  H108  1  0.95300000  0.42980000  0.81740000  1
  H  H109  1  0.79980000  0.95300000  0.81740000  1
  H  H110  1  0.95300000  0.79980000  0.81740000  1
  H  H111  1  0.35510000  0.84530000  0.80950000  1
  H  H112  1  0.84530000  0.35510000  0.80950000  1
  H  H113  1  0.35510000  0.99010000  0.80950000  1
  H  H114  1  0.99010000  0.35510000  0.80950000  1
  H  H115  1  0.84530000  0.99010000  0.80950000  1
  H  H116  1  0.99010000  0.84530000  0.80950000  1
  H  H117  1  0.02930000  0.58230000  0.80610000  1
  H  H118  1  0.58230000  0.02930000  0.80610000  1
  H  H119  1  0.58230000  0.58230000  0.80610000  1
  H  H120  1  0.18590000  0.18590000  0.80530000  1
  H  H121  1  0.18590000  0.82290000  0.80530000  1
  H  H122  1  0.82290000  0.18590000  0.80530000  1
  H  H123  1  0.21650000  0.21650000  0.78930000  1
  H  H124  1  0.21650000  0.77770000  0.78930000  1
  H  H125  1  0.77770000  0.21650000  0.78930000  1
  H  H126  1  0.03670000  0.40470000  0.78850000  1
  H  H127  1  0.40470000  0.03670000  0.78850000  1
  H  H128  1  0.03670000  0.77010000  0.78850000  1
  H  H129  1  0.77010000  0.03670000  0.78850000  1
  H  H130  1  0.40470000  0.77010000  0.78850000  1
  H  H131  1  0.77010000  0.40470000  0.78850000  1
  H  H132  1  0.60900000  0.68120000  0.77600000  1
  H  H133  1  0.68120000  0.60900000  0.77600000  1
  H  H134  1  0.60900000  0.93380000  0.77600000  1
  H  H135  1  0.93380000  0.60900000  0.77600000  1
  H  H136  1  0.68120000  0.93380000  0.77600000  1
  H  H137  1  0.93380000  0.68120000  0.77600000  1
  H  H138  1  0.14090000  0.20870000  0.75430000  1
  H  H139  1  0.20870000  0.14090000  0.75430000  1
  H  H140  1  0.14090000  0.89610000  0.75430000  1
  H  H141  1  0.89610000  0.14090000  0.75430000  1
  H  H142  1  0.20870000  0.89610000  0.75430000  1
  H  H143  1  0.89610000  0.20870000  0.75430000  1
  H  H144  1  0.59530000  0.71150000  0.72990000  1
  H  H145  1  0.71150000  0.59530000  0.72990000  1
  H  H146  1  0.59530000  0.96330000  0.72990000  1
  H  H147  1  0.96330000  0.59530000  0.72990000  1
  H  H148  1  0.71150000  0.96330000  0.72990000  1
  H  H149  1  0.96330000  0.71150000  0.72990000  1
  H  H150  1  0.07690000  0.56190000  0.72750000  1
  H  H151  1  0.56190000  0.07690000  0.72750000  1
  H  H152  1  0.07690000  0.63370000  0.72750000  1
  H  H153  1  0.63370000  0.07690000  0.72750000  1
  H  H154  1  0.56190000  0.63370000  0.72750000  1
  H  H155  1  0.63370000  0.56190000  0.72750000  1
  H  H156  1  0.71070000  0.78350000  0.72230000  1
  H  H157  1  0.78350000  0.71070000  0.72230000  1
  H  H158  1  0.78350000  0.78350000  0.72230000  1
  H  H159  1  0.21650000  0.28930000  0.71650000  1
  H  H160  1  0.28930000  0.21650000  0.71650000  1
  H  H161  1  0.21650000  0.77770000  0.71650000  1
  H  H162  1  0.77770000  0.21650000  0.71650000  1
  H  H163  1  0.28930000  0.77770000  0.71650000  1
  H  H164  1  0.77770000  0.28930000  0.71650000  1
  H  H165  1  0.14090000  0.25430000  0.70870000  1
  H  H166  1  0.25430000  0.14090000  0.70870000  1
  H  H167  1  0.14090000  0.89610000  0.70870000  1
  H  H168  1  0.89610000  0.14090000  0.70870000  1
  H  H169  1  0.25430000  0.89610000  0.70870000  1
  H  H170  1  0.89610000  0.25430000  0.70870000  1
  H  H171  1  0.04700000  0.57020000  0.70020000  1
  H  H172  1  0.57020000  0.04700000  0.70020000  1
  H  H173  1  0.04700000  0.68260000  0.70020000  1
  H  H174  1  0.68260000  0.04700000  0.70020000  1
  H  H175  1  0.57020000  0.68260000  0.70020000  1
  H  H176  1  0.68260000  0.57020000  0.70020000  1
  H  H177  1  0.18590000  0.30530000  0.68590000  1
  H  H178  1  0.30530000  0.18590000  0.68590000  1
  H  H179  1  0.18590000  0.82290000  0.68590000  1
  H  H180  1  0.82290000  0.18590000  0.68590000  1
  H  H181  1  0.30530000  0.82290000  0.68590000  1
  H  H182  1  0.82290000  0.30530000  0.68590000  1
  H  H183  1  0.69470000  0.81410000  0.67710000  1
  H  H184  1  0.81410000  0.69470000  0.67710000  1
  H  H185  1  0.81410000  0.81410000  0.67710000  1
  H  H186  1  0.00990000  0.64490000  0.65470000  1
  H  H187  1  0.64490000  0.00990000  0.65470000  1
  H  H188  1  0.00990000  0.69050000  0.65470000  1
  H  H189  1  0.69050000  0.00990000  0.65470000  1
  H  H190  1  0.64490000  0.69050000  0.65470000  1
  H  H191  1  0.69050000  0.64490000  0.65470000  1
  H  H192  1  0.20870000  0.25430000  0.64090000  1
  H  H193  1  0.25430000  0.20870000  0.64090000  1
  H  H194  1  0.20870000  0.89610000  0.64090000  1
  H  H195  1  0.89610000  0.20870000  0.64090000  1
  H  H196  1  0.25430000  0.89610000  0.64090000  1
  H  H197  1  0.89610000  0.25430000  0.64090000  1
  H  H198  1  0.74570000  0.79130000  0.60390000  1
  H  H199  1  0.79130000  0.74570000  0.60390000  1
  H  H200  1  0.74570000  0.85910000  0.60390000  1
  H  H201  1  0.85910000  0.74570000  0.60390000  1
  H  H202  1  0.79130000  0.85910000  0.60390000  1
  H  H203  1  0.85910000  0.79130000  0.60390000  1
  H  H204  1  0.22750000  0.56190000  0.57690000  1
  H  H205  1  0.56190000  0.22750000  0.57690000  1
  H  H206  1  0.22750000  0.63370000  0.57690000  1
  H  H207  1  0.63370000  0.22750000  0.57690000  1
  H  H208  1  0.56190000  0.63370000  0.57690000  1
  H  H209  1  0.63370000  0.56190000  0.57690000  1
  H  H210  1  0.31880000  0.39100000  0.56620000  1
  H  H211  1  0.39100000  0.31880000  0.56620000  1
  H  H212  1  0.31880000  0.72400000  0.56620000  1
  H  H213  1  0.72400000  0.31880000  0.56620000  1
  H  H214  1  0.39100000  0.72400000  0.56620000  1
  H  H215  1  0.72400000  0.39100000  0.56620000  1
  H  H216  1  0.20020000  0.57020000  0.54700000  1
  H  H217  1  0.57020000  0.20020000  0.54700000  1
  H  H218  1  0.20020000  0.68260000  0.54700000  1
  H  H219  1  0.68260000  0.20020000  0.54700000  1
  H  H220  1  0.57020000  0.68260000  0.54700000  1
  H  H221  1  0.68260000  0.57020000  0.54700000  1
  H  H222  1  0.28850000  0.40470000  0.53670000  1
  H  H223  1  0.40470000  0.28850000  0.53670000  1
  H  H224  1  0.28850000  0.77010000  0.53670000  1
  H  H225  1  0.77010000  0.28850000  0.53670000  1
  H  H226  1  0.40470000  0.77010000  0.53670000  1
  H  H227  1  0.77010000  0.40470000  0.53670000  1
  H  H228  1  0.30610000  0.58230000  0.52930000  1
  H  H229  1  0.58230000  0.30610000  0.52930000  1
  H  H230  1  0.58230000  0.58230000  0.52930000  1
  H  H231  1  0.39740000  0.39740000  0.52600000  1
  H  H232  1  0.39740000  0.67920000  0.52600000  1
  H  H233  1  0.67920000  0.39740000  0.52600000  1
  H  H234  1  0.15470000  0.64490000  0.50990000  1
  H  H235  1  0.64490000  0.15470000  0.50990000  1
  H  H236  1  0.15470000  0.69050000  0.50990000  1
  H  H237  1  0.69050000  0.15470000  0.50990000  1
  H  H238  1  0.64490000  0.69050000  0.50990000  1
  H  H239  1  0.69050000  0.64490000  0.50990000  1
  H  H240  1  0.30950000  0.35510000  0.49010000  1
  H  H241  1  0.35510000  0.30950000  0.49010000  1
  H  H242  1  0.30950000  0.84530000  0.49010000  1
  H  H243  1  0.84530000  0.30950000  0.49010000  1
  H  H244  1  0.35510000  0.84530000  0.49010000  1
  H  H245  1  0.84530000  0.35510000  0.49010000  1
  H  H246  1  0.32080000  0.60260000  0.47400000  1
  H  H247  1  0.60260000  0.32080000  0.47400000  1
  H  H248  1  0.60260000  0.60260000  0.47400000  1
  H  H249  1  0.41770000  0.41770000  0.47070000  1
  H  H250  1  0.41770000  0.69390000  0.47070000  1
  H  H251  1  0.69390000  0.41770000  0.47070000  1
  H  H252  1  0.22990000  0.59530000  0.46330000  1
  H  H253  1  0.59530000  0.22990000  0.46330000  1
  H  H254  1  0.22990000  0.71150000  0.46330000  1
  H  H255  1  0.71150000  0.22990000  0.46330000  1
  H  H256  1  0.59530000  0.71150000  0.46330000  1
  H  H257  1  0.71150000  0.59530000  0.46330000  1
  H  H258  1  0.31740000  0.42980000  0.45300000  1
  H  H259  1  0.42980000  0.31740000  0.45300000  1
  H  H260  1  0.31740000  0.79980000  0.45300000  1
  H  H261  1  0.79980000  0.31740000  0.45300000  1
  H  H262  1  0.42980000  0.79980000  0.45300000  1
  H  H263  1  0.79980000  0.42980000  0.45300000  1
  H  H264  1  0.27600000  0.60900000  0.43380000  1
  H  H265  1  0.60900000  0.27600000  0.43380000  1
  H  H266  1  0.27600000  0.68120000  0.43380000  1
  H  H267  1  0.68120000  0.27600000  0.43380000  1
  H  H268  1  0.60900000  0.68120000  0.43380000  1
  H  H269  1  0.68120000  0.60900000  0.43380000  1
  H  H270  1  0.36630000  0.43810000  0.42310000  1
  H  H271  1  0.43810000  0.36630000  0.42310000  1
  H  H272  1  0.36630000  0.77250000  0.42310000  1
  H  H273  1  0.77250000  0.36630000  0.42310000  1
  H  H274  1  0.43810000  0.77250000  0.42310000  1
  H  H275  1  0.77250000  0.43810000  0.42310000  1
  H  H276  1  0.14090000  0.20870000  0.39610000  1
  H  H277  1  0.20870000  0.14090000  0.39610000  1
  H  H278  1  0.14090000  0.25430000  0.39610000  1
  H  H279  1  0.25430000  0.14090000  0.39610000  1
  H  H280  1  0.20870000  0.25430000  0.39610000  1
  H  H281  1  0.25430000  0.20870000  0.39610000  1
  H  H282  1  0.10390000  0.74570000  0.35910000  1
  H  H283  1  0.74570000  0.10390000  0.35910000  1
  H  H284  1  0.10390000  0.79130000  0.35910000  1
  H  H285  1  0.79130000  0.10390000  0.35910000  1
  H  H286  1  0.74570000  0.79130000  0.35910000  1
  H  H287  1  0.79130000  0.74570000  0.35910000  1
  H  H288  1  0.30950000  0.35510000  0.34530000  1
  H  H289  1  0.35510000  0.30950000  0.34530000  1
  H  H290  1  0.30950000  0.99010000  0.34530000  1
  H  H291  1  0.99010000  0.30950000  0.34530000  1
  H  H292  1  0.35510000  0.99010000  0.34530000  1
  H  H293  1  0.99010000  0.35510000  0.34530000  1
  H  H294  1  0.18590000  0.18590000  0.32290000  1
  H  H295  1  0.18590000  0.30530000  0.32290000  1
  H  H296  1  0.30530000  0.18590000  0.32290000  1
  H  H297  1  0.17710000  0.69470000  0.31410000  1
  H  H298  1  0.69470000  0.17710000  0.31410000  1
  H  H299  1  0.17710000  0.81410000  0.31410000  1
  H  H300  1  0.81410000  0.17710000  0.31410000  1
  H  H301  1  0.69470000  0.81410000  0.31410000  1
  H  H302  1  0.81410000  0.69470000  0.31410000  1
  H  H303  1  0.31740000  0.42980000  0.29980000  1
  H  H304  1  0.42980000  0.31740000  0.29980000  1
  H  H305  1  0.31740000  0.95300000  0.29980000  1
  H  H306  1  0.95300000  0.31740000  0.29980000  1
  H  H307  1  0.42980000  0.95300000  0.29980000  1
  H  H308  1  0.95300000  0.42980000  0.29980000  1
  H  H309  1  0.10390000  0.74570000  0.29130000  1
  H  H310  1  0.74570000  0.10390000  0.29130000  1
  H  H311  1  0.10390000  0.85910000  0.29130000  1
  H  H312  1  0.85910000  0.10390000  0.29130000  1
  H  H313  1  0.74570000  0.85910000  0.29130000  1
  H  H314  1  0.85910000  0.74570000  0.29130000  1
  H  H315  1  0.22230000  0.71070000  0.28350000  1
  H  H316  1  0.71070000  0.22230000  0.28350000  1
  H  H317  1  0.22230000  0.78350000  0.28350000  1
  H  H318  1  0.78350000  0.22230000  0.28350000  1
  H  H319  1  0.71070000  0.78350000  0.28350000  1
  H  H320  1  0.78350000  0.71070000  0.28350000  1
  H  H321  1  0.21650000  0.21650000  0.27770000  1
  H  H322  1  0.21650000  0.28930000  0.27770000  1
  H  H323  1  0.28930000  0.21650000  0.27770000  1
  H  H324  1  0.36630000  0.43810000  0.27250000  1
  H  H325  1  0.43810000  0.36630000  0.27250000  1
  H  H326  1  0.36630000  0.92310000  0.27250000  1
  H  H327  1  0.92310000  0.36630000  0.27250000  1
  H  H328  1  0.43810000  0.92310000  0.27250000  1
  H  H329  1  0.92310000  0.43810000  0.27250000  1
  H  H330  1  0.03670000  0.28850000  0.27010000  1
  H  H331  1  0.28850000  0.03670000  0.27010000  1
  H  H332  1  0.03670000  0.40470000  0.27010000  1
  H  H333  1  0.40470000  0.03670000  0.27010000  1
  H  H334  1  0.28850000  0.40470000  0.27010000  1
  H  H335  1  0.40470000  0.28850000  0.27010000  1
  H  H336  1  0.10390000  0.79130000  0.24570000  1
  H  H337  1  0.79130000  0.10390000  0.24570000  1
  H  H338  1  0.10390000  0.85910000  0.24570000  1
  H  H339  1  0.85910000  0.10390000  0.24570000  1
  H  H340  1  0.79130000  0.85910000  0.24570000  1
  H  H341  1  0.85910000  0.79130000  0.24570000  1
  H  H342  1  0.06620000  0.31880000  0.22400000  1
  H  H343  1  0.31880000  0.06620000  0.22400000  1
  H  H344  1  0.06620000  0.39100000  0.22400000  1
  H  H345  1  0.39100000  0.06620000  0.22400000  1
  H  H346  1  0.31880000  0.39100000  0.22400000  1
  H  H347  1  0.39100000  0.31880000  0.22400000  1
  H  H348  1  0.22990000  0.59530000  0.21150000  1
  H  H349  1  0.59530000  0.22990000  0.21150000  1
  H  H350  1  0.22990000  0.96330000  0.21150000  1
  H  H351  1  0.96330000  0.22990000  0.21150000  1
  H  H352  1  0.59530000  0.96330000  0.21150000  1
  H  H353  1  0.96330000  0.59530000  0.21150000  1
  H  H354  1  0.22230000  0.78350000  0.21070000  1
  H  H355  1  0.78350000  0.22230000  0.21070000  1
  H  H356  1  0.78350000  0.78350000  0.21070000  1
  H  H357  1  0.17710000  0.81410000  0.19470000  1
  H  H358  1  0.81410000  0.17710000  0.19470000  1
  H  H359  1  0.81410000  0.81410000  0.19470000  1
  H  H360  1  0.41770000  0.41770000  0.19390000  1
  H  H361  1  0.41770000  0.97070000  0.19390000  1
  H  H362  1  0.97070000  0.41770000  0.19390000  1
  H  H363  1  0.00990000  0.15470000  0.19050000  1
  H  H364  1  0.15470000  0.00990000  0.19050000  1
  H  H365  1  0.00990000  0.64490000  0.19050000  1
  H  H366  1  0.64490000  0.00990000  0.19050000  1
  H  H367  1  0.15470000  0.64490000  0.19050000  1
  H  H368  1  0.64490000  0.15470000  0.19050000  1
  H  H369  1  0.04700000  0.20020000  0.18260000  1
  H  H370  1  0.20020000  0.04700000  0.18260000  1
  H  H371  1  0.04700000  0.57020000  0.18260000  1
  H  H372  1  0.57020000  0.04700000  0.18260000  1
  H  H373  1  0.20020000  0.57020000  0.18260000  1
  H  H374  1  0.57020000  0.20020000  0.18260000  1
  H  H375  1  0.27600000  0.60900000  0.18120000  1
  H  H376  1  0.60900000  0.27600000  0.18120000  1
  H  H377  1  0.27600000  0.93380000  0.18120000  1
  H  H378  1  0.93380000  0.27600000  0.18120000  1
  H  H379  1  0.60900000  0.93380000  0.18120000  1
  H  H380  1  0.93380000  0.60900000  0.18120000  1
  H  H381  1  0.02600000  0.39740000  0.17920000  1
  H  H382  1  0.39740000  0.02600000  0.17920000  1
  H  H383  1  0.39740000  0.39740000  0.17920000  1
  H  H384  1  0.00990000  0.15470000  0.14490000  1
  H  H385  1  0.15470000  0.00990000  0.14490000  1
  H  H386  1  0.00990000  0.69050000  0.14490000  1
  H  H387  1  0.69050000  0.00990000  0.14490000  1
  H  H388  1  0.15470000  0.69050000  0.14490000  1
  H  H389  1  0.69050000  0.15470000  0.14490000  1
  H  H390  1  0.07690000  0.22750000  0.13370000  1
  H  H391  1  0.22750000  0.07690000  0.13370000  1
  H  H392  1  0.07690000  0.56190000  0.13370000  1
  H  H393  1  0.56190000  0.07690000  0.13370000  1
  H  H394  1  0.22750000  0.56190000  0.13370000  1
  H  H395  1  0.56190000  0.22750000  0.13370000  1
  H  H396  1  0.27600000  0.68120000  0.10900000  1
  H  H397  1  0.68120000  0.27600000  0.10900000  1
  H  H398  1  0.27600000  0.93380000  0.10900000  1
  H  H399  1  0.93380000  0.27600000  0.10900000  1
  H  H400  1  0.68120000  0.93380000  0.10900000  1
  H  H401  1  0.93380000  0.68120000  0.10900000  1
  H  H402  1  0.32080000  0.60260000  0.10260000  1
  H  H403  1  0.60260000  0.32080000  0.10260000  1
  H  H404  1  0.32080000  0.97400000  0.10260000  1
  H  H405  1  0.97400000  0.32080000  0.10260000  1
  H  H406  1  0.60260000  0.97400000  0.10260000  1
  H  H407  1  0.97400000  0.60260000  0.10260000  1
  H  H408  1  0.22990000  0.71150000  0.09530000  1
  H  H409  1  0.71150000  0.22990000  0.09530000  1
  H  H410  1  0.22990000  0.96330000  0.09530000  1
  H  H411  1  0.96330000  0.22990000  0.09530000  1
  H  H412  1  0.71150000  0.96330000  0.09530000  1
  H  H413  1  0.96330000  0.71150000  0.09530000  1
  H  H414  1  0.02930000  0.30610000  0.08230000  1
  H  H415  1  0.30610000  0.02930000  0.08230000  1
  H  H416  1  0.02930000  0.58230000  0.08230000  1
  H  H417  1  0.58230000  0.02930000  0.08230000  1
  H  H418  1  0.30610000  0.58230000  0.08230000  1
  H  H419  1  0.58230000  0.30610000  0.08230000  1
  H  H420  1  0.04700000  0.20020000  0.07020000  1
  H  H421  1  0.20020000  0.04700000  0.07020000  1
  H  H422  1  0.04700000  0.68260000  0.07020000  1
  H  H423  1  0.68260000  0.04700000  0.07020000  1
  H  H424  1  0.20020000  0.68260000  0.07020000  1
  H  H425  1  0.68260000  0.20020000  0.07020000  1
  H  H426  1  0.07690000  0.22750000  0.06190000  1
  H  H427  1  0.22750000  0.07690000  0.06190000  1
  H  H428  1  0.07690000  0.63370000  0.06190000  1
  H  H429  1  0.63370000  0.07690000  0.06190000  1
  H  H430  1  0.22750000  0.63370000  0.06190000  1
  H  H431  1  0.63370000  0.22750000  0.06190000  1
  C  C432  1  0.34972000  0.78028000  0.91808000  1
  C  C433  1  0.78028000  0.34972000  0.91808000  1
  C  C434  1  0.34972000  0.95192000  0.91808000  1
  C  C435  1  0.95192000  0.34972000  0.91808000  1
  C  C436  1  0.78028000  0.95192000  0.91808000  1
  C  C437  1  0.95192000  0.78028000  0.91808000  1
  C  C438  1  0.39857000  0.70595000  0.89857000  1
  C  C439  1  0.70595000  0.39857000  0.89857000  1
  C  C440  1  0.39857000  0.99691000  0.89857000  1
  C  C441  1  0.99691000  0.39857000  0.89857000  1
  C  C442  1  0.70595000  0.99691000  0.89857000  1
  C  C443  1  0.99691000  0.70595000  0.89857000  1
  C  C444  1  0.03760000  0.32040000  0.89072000  1
  C  C445  1  0.32040000  0.03760000  0.89072000  1
  C  C446  1  0.03760000  0.75128000  0.89072000  1
  C  C447  1  0.75128000  0.03760000  0.89072000  1
  C  C448  1  0.32040000  0.75128000  0.89072000  1
  C  C449  1  0.75128000  0.32040000  0.89072000  1
  C  C450  1  0.41808000  0.78028000  0.84972000  1
  C  C451  1  0.78028000  0.41808000  0.84972000  1
  C  C452  1  0.41808000  0.95192000  0.84972000  1
  C  C453  1  0.95192000  0.41808000  0.84972000  1
  C  C454  1  0.78028000  0.95192000  0.84972000  1
  C  C455  1  0.95192000  0.78028000  0.84972000  1
  C  C456  1  0.34130000  0.82610000  0.84130000  1
  C  C457  1  0.82610000  0.34130000  0.84130000  1
  C  C458  1  0.34130000  0.99130000  0.84130000  1
  C  C459  1  0.99130000  0.34130000  0.84130000  1
  C  C460  1  0.82610000  0.99130000  0.84130000  1
  C  C461  1  0.99130000  0.82610000  0.84130000  1
  C  C462  1  0.03760000  0.39072000  0.82040000  1
  C  C463  1  0.39072000  0.03760000  0.82040000  1
  C  C464  1  0.03760000  0.75128000  0.82040000  1
  C  C465  1  0.75128000  0.03760000  0.82040000  1
  C  C466  1  0.39072000  0.75128000  0.82040000  1
  C  C467  1  0.75128000  0.39072000  0.82040000  1
  C  C468  1  0.00309000  0.60143000  0.79405000  1
  C  C469  1  0.60143000  0.00309000  0.79405000  1
  C  C470  1  0.60143000  0.60143000  0.79405000  1
  C  C471  1  0.20490000  0.20490000  0.77812000  1
  C  C472  1  0.20490000  0.81208000  0.77812000  1
  C  C473  1  0.81208000  0.20490000  0.77812000  1
  C  C474  1  0.60928000  0.67960000  0.74872000  1
  C  C475  1  0.67960000  0.60928000  0.74872000  1
  C  C476  1  0.60928000  0.96240000  0.74872000  1
  C  C477  1  0.96240000  0.60928000  0.74872000  1
  C  C478  1  0.67960000  0.96240000  0.74872000  1
  C  C479  1  0.96240000  0.67960000  0.74872000  1
  C  C480  1  0.15990000  0.22810000  0.72810000  1
  C  C481  1  0.22810000  0.15990000  0.72810000  1
  C  C482  1  0.15990000  0.88390000  0.72810000  1
  C  C483  1  0.88390000  0.15990000  0.72810000  1
  C  C484  1  0.22810000  0.88390000  0.72810000  1
  C  C485  1  0.88390000  0.22810000  0.72810000  1
  C  C486  1  0.04808000  0.58192000  0.71972000  1
  C  C487  1  0.58192000  0.04808000  0.71972000  1
  C  C488  1  0.04808000  0.65028000  0.71972000  1
  C  C489  1  0.65028000  0.04808000  0.71972000  1
  C  C490  1  0.58192000  0.65028000  0.71972000  1
  C  C491  1  0.65028000  0.58192000  0.71972000  1
  C  C492  1  0.20490000  0.27812000  0.70490000  1
  C  C493  1  0.27812000  0.20490000  0.70490000  1
  C  C494  1  0.20490000  0.81208000  0.70490000  1
  C  C495  1  0.81208000  0.20490000  0.70490000  1
  C  C496  1  0.27812000  0.81208000  0.70490000  1
  C  C497  1  0.81208000  0.27812000  0.70490000  1
  C  C498  1  0.72188000  0.79510000  0.68792000  1
  C  C499  1  0.79510000  0.72188000  0.68792000  1
  C  C500  1  0.79510000  0.79510000  0.68792000  1
  C  C501  1  0.00870000  0.65870000  0.67390000  1
  C  C502  1  0.65870000  0.00870000  0.67390000  1
  C  C503  1  0.65870000  0.65870000  0.67390000  1
  C  C504  1  0.22810000  0.22810000  0.65990000  1
  C  C505  1  0.22810000  0.88390000  0.65990000  1
  C  C506  1  0.88390000  0.22810000  0.65990000  1
  C  C507  1  0.77190000  0.77190000  0.61610000  1
  C  C508  1  0.77190000  0.84010000  0.61610000  1
  C  C509  1  0.84010000  0.77190000  0.61610000  1
  C  C510  1  0.21972000  0.58192000  0.54808000  1
  C  C511  1  0.58192000  0.21972000  0.54808000  1
  C  C512  1  0.21972000  0.65028000  0.54808000  1
  C  C513  1  0.65028000  0.21972000  0.54808000  1
  C  C514  1  0.58192000  0.65028000  0.54808000  1
  C  C515  1  0.65028000  0.58192000  0.54808000  1
  C  C516  1  0.32040000  0.39072000  0.53760000  1
  C  C517  1  0.39072000  0.32040000  0.53760000  1
  C  C518  1  0.32040000  0.75128000  0.53760000  1
  C  C519  1  0.75128000  0.32040000  0.53760000  1
  C  C520  1  0.39072000  0.75128000  0.53760000  1
  C  C521  1  0.75128000  0.39072000  0.53760000  1
  C  C522  1  0.17390000  0.65870000  0.50870000  1
  C  C523  1  0.65870000  0.17390000  0.50870000  1
  C  C524  1  0.65870000  0.65870000  0.50870000  1
  C  C525  1  0.29405000  0.60143000  0.50309000  1
  C  C526  1  0.60143000  0.29405000  0.50309000  1
  C  C527  1  0.60143000  0.60143000  0.50309000  1
  C  C528  1  0.39857000  0.39857000  0.49691000  1
  C  C529  1  0.39857000  0.70595000  0.49691000  1
  C  C530  1  0.70595000  0.39857000  0.49691000  1
  C  C531  1  0.34130000  0.34130000  0.49130000  1
  C  C532  1  0.34130000  0.82610000  0.49130000  1
  C  C533  1  0.82610000  0.34130000  0.49130000  1
  C  C534  1  0.24872000  0.60928000  0.46240000  1
  C  C535  1  0.60928000  0.24872000  0.46240000  1
  C  C536  1  0.24872000  0.67960000  0.46240000  1
  C  C537  1  0.67960000  0.24872000  0.46240000  1
  C  C538  1  0.60928000  0.67960000  0.46240000  1
  C  C539  1  0.67960000  0.60928000  0.46240000  1
  C  C540  1  0.34972000  0.41808000  0.45192000  1
  C  C541  1  0.41808000  0.34972000  0.45192000  1
  C  C542  1  0.34972000  0.78028000  0.45192000  1
  C  C543  1  0.78028000  0.34972000  0.45192000  1
  C  C544  1  0.41808000  0.78028000  0.45192000  1
  C  C545  1  0.78028000  0.41808000  0.45192000  1
  C  C546  1  0.15990000  0.22810000  0.38390000  1
  C  C547  1  0.22810000  0.15990000  0.38390000  1
  C  C548  1  0.22810000  0.22810000  0.38390000  1
  C  C549  1  0.11610000  0.77190000  0.34010000  1
  C  C550  1  0.77190000  0.11610000  0.34010000  1
  C  C551  1  0.77190000  0.77190000  0.34010000  1
  C  C552  1  0.34130000  0.34130000  0.32610000  1
  C  C553  1  0.34130000  0.99130000  0.32610000  1
  C  C554  1  0.99130000  0.34130000  0.32610000  1
  C  C555  1  0.20490000  0.20490000  0.31208000  1
  C  C556  1  0.20490000  0.27812000  0.31208000  1
  C  C557  1  0.27812000  0.20490000  0.31208000  1
  C  C558  1  0.18792000  0.72188000  0.29510000  1
  C  C559  1  0.72188000  0.18792000  0.29510000  1
  C  C560  1  0.18792000  0.79510000  0.29510000  1
  C  C561  1  0.79510000  0.18792000  0.29510000  1
  C  C562  1  0.72188000  0.79510000  0.29510000  1
  C  C563  1  0.79510000  0.72188000  0.29510000  1
  C  C564  1  0.34972000  0.41808000  0.28028000  1
  C  C565  1  0.41808000  0.34972000  0.28028000  1
  C  C566  1  0.34972000  0.95192000  0.28028000  1
  C  C567  1  0.95192000  0.34972000  0.28028000  1
  C  C568  1  0.41808000  0.95192000  0.28028000  1
  C  C569  1  0.95192000  0.41808000  0.28028000  1
  C  C570  1  0.11610000  0.77190000  0.27190000  1
  C  C571  1  0.77190000  0.11610000  0.27190000  1
  C  C572  1  0.11610000  0.84010000  0.27190000  1
  C  C573  1  0.84010000  0.11610000  0.27190000  1
  C  C574  1  0.77190000  0.84010000  0.27190000  1
  C  C575  1  0.84010000  0.77190000  0.27190000  1
  C  C576  1  0.03760000  0.32040000  0.25128000  1
  C  C577  1  0.32040000  0.03760000  0.25128000  1
  C  C578  1  0.03760000  0.39072000  0.25128000  1
  C  C579  1  0.39072000  0.03760000  0.25128000  1
  C  C580  1  0.32040000  0.39072000  0.25128000  1
  C  C581  1  0.39072000  0.32040000  0.25128000  1
  C  C582  1  0.18792000  0.79510000  0.22188000  1
  C  C583  1  0.79510000  0.18792000  0.22188000  1
  C  C584  1  0.79510000  0.79510000  0.22188000  1
  C  C585  1  0.39857000  0.39857000  0.20595000  1
  C  C586  1  0.39857000  0.99691000  0.20595000  1
  C  C587  1  0.99691000  0.39857000  0.20595000  1
  C  C588  1  0.24872000  0.60928000  0.17960000  1
  C  C589  1  0.60928000  0.24872000  0.17960000  1
  C  C590  1  0.24872000  0.96240000  0.17960000  1
  C  C591  1  0.96240000  0.24872000  0.17960000  1
  C  C592  1  0.60928000  0.96240000  0.17960000  1
  C  C593  1  0.96240000  0.60928000  0.17960000  1
  C  C594  1  0.00870000  0.17390000  0.15870000  1
  C  C595  1  0.17390000  0.00870000  0.15870000  1
  C  C596  1  0.00870000  0.65870000  0.15870000  1
  C  C597  1  0.65870000  0.00870000  0.15870000  1
  C  C598  1  0.17390000  0.65870000  0.15870000  1
  C  C599  1  0.65870000  0.17390000  0.15870000  1
  C  C600  1  0.04808000  0.21972000  0.15028000  1
  C  C601  1  0.21972000  0.04808000  0.15028000  1
  C  C602  1  0.04808000  0.58192000  0.15028000  1
  C  C603  1  0.58192000  0.04808000  0.15028000  1
  C  C604  1  0.21972000  0.58192000  0.15028000  1
  C  C605  1  0.58192000  0.21972000  0.15028000  1
  C  C606  1  0.24872000  0.67960000  0.10928000  1
  C  C607  1  0.67960000  0.24872000  0.10928000  1
  C  C608  1  0.24872000  0.96240000  0.10928000  1
  C  C609  1  0.96240000  0.24872000  0.10928000  1
  C  C610  1  0.67960000  0.96240000  0.10928000  1
  C  C611  1  0.96240000  0.67960000  0.10928000  1
  C  C612  1  0.00309000  0.29405000  0.10143000  1
  C  C613  1  0.29405000  0.00309000  0.10143000  1
  C  C614  1  0.00309000  0.60143000  0.10143000  1
  C  C615  1  0.60143000  0.00309000  0.10143000  1
  C  C616  1  0.29405000  0.60143000  0.10143000  1
  C  C617  1  0.60143000  0.29405000  0.10143000  1
  C  C618  1  0.04808000  0.21972000  0.08192000  1
  C  C619  1  0.21972000  0.04808000  0.08192000  1
  C  C620  1  0.04808000  0.65028000  0.08192000  1
  C  C621  1  0.65028000  0.04808000  0.08192000  1
  C  C622  1  0.21972000  0.65028000  0.08192000  1
  C  C623  1  0.65028000  0.21972000  0.08192000  1
  N  N624  1  0.35010000  0.73452000  0.92054000  1
  N  N625  1  0.73452000  0.35010000  0.92054000  1
  N  N626  1  0.35010000  0.99484000  0.92054000  1
  N  N627  1  0.99484000  0.35010000  0.92054000  1
  N  N628  1  0.73452000  0.99484000  0.92054000  1
  N  N629  1  0.99484000  0.73452000  0.92054000  1
  N  N630  1  0.37138000  0.80614000  0.87138000  1
  N  N631  1  0.80614000  0.37138000  0.87138000  1
  N  N632  1  0.37138000  0.95110000  0.87138000  1
  N  N633  1  0.95110000  0.37138000  0.87138000  1
  N  N634  1  0.80614000  0.95110000  0.87138000  1
  N  N635  1  0.95110000  0.80614000  0.87138000  1
  N  N636  1  0.42054000  0.73452000  0.85010000  1
  N  N637  1  0.73452000  0.42054000  0.85010000  1
  N  N638  1  0.42054000  0.99484000  0.85010000  1
  N  N639  1  0.99484000  0.42054000  0.85010000  1
  N  N640  1  0.73452000  0.99484000  0.85010000  1
  N  N641  1  0.99484000  0.73452000  0.85010000  1
  N  N642  1  0.03875000  0.34051000  0.84051000  1
  N  N643  1  0.34051000  0.03875000  0.84051000  1
  N  N644  1  0.03875000  0.78023000  0.84051000  1
  N  N645  1  0.78023000  0.03875000  0.84051000  1
  N  N646  1  0.34051000  0.78023000  0.84051000  1
  N  N647  1  0.78023000  0.34051000  0.84051000  1
  N  N648  1  0.00516000  0.57946000  0.76548000  1
  N  N649  1  0.57946000  0.00516000  0.76548000  1
  N  N650  1  0.00516000  0.64990000  0.76548000  1
  N  N651  1  0.64990000  0.00516000  0.76548000  1
  N  N652  1  0.57946000  0.64990000  0.76548000  1
  N  N653  1  0.64990000  0.57946000  0.76548000  1
  N  N654  1  0.17563000  0.24645000  0.74645000  1
  N  N655  1  0.24645000  0.17563000  0.74645000  1
  N  N656  1  0.17563000  0.83147000  0.74645000  1
  N  N657  1  0.83147000  0.17563000  0.74645000  1
  N  N658  1  0.24645000  0.83147000  0.74645000  1
  N  N659  1  0.83147000  0.24645000  0.74645000  1
  N  N660  1  0.65949000  0.65949000  0.71977000  1
  N  N661  1  0.65949000  0.96125000  0.71977000  1
  N  N662  1  0.96125000  0.65949000  0.71977000  1
  N  N663  1  0.20040000  0.20040000  0.70040000  1
  N  N664  1  0.20040000  0.89880000  0.70040000  1
  N  N665  1  0.89880000  0.20040000  0.70040000  1
  N  N666  1  0.04890000  0.62862000  0.69386000  1
  N  N667  1  0.62862000  0.04890000  0.69386000  1
  N  N668  1  0.62862000  0.62862000  0.69386000  1
  N  N669  1  0.24645000  0.24645000  0.67563000  1
  N  N670  1  0.24645000  0.83147000  0.67563000  1
  N  N671  1  0.83147000  0.24645000  0.67563000  1
  N  N672  1  0.75355000  0.75355000  0.66853000  1
  N  N673  1  0.75355000  0.82437000  0.66853000  1
  N  N674  1  0.82437000  0.75355000  0.66853000  1
  N  N675  1  0.79960000  0.79960000  0.60120000  1
  N  N676  1  0.19386000  0.62862000  0.54890000  1
  N  N677  1  0.62862000  0.19386000  0.54890000  1
  N  N678  1  0.62862000  0.62862000  0.54890000  1
  N  N679  1  0.34051000  0.34051000  0.53875000  1
  N  N680  1  0.34051000  0.78023000  0.53875000  1
  N  N681  1  0.78023000  0.34051000  0.53875000  1
  N  N682  1  0.26548000  0.57946000  0.50516000  1
  N  N683  1  0.57946000  0.26548000  0.50516000  1
  N  N684  1  0.26548000  0.64990000  0.50516000  1
  N  N685  1  0.64990000  0.26548000  0.50516000  1
  N  N686  1  0.57946000  0.64990000  0.50516000  1
  N  N687  1  0.64990000  0.57946000  0.50516000  1
  N  N688  1  0.35010000  0.42054000  0.49484000  1
  N  N689  1  0.42054000  0.35010000  0.49484000  1
  N  N690  1  0.35010000  0.73452000  0.49484000  1
  N  N691  1  0.73452000  0.35010000  0.49484000  1
  N  N692  1  0.42054000  0.73452000  0.49484000  1
  N  N693  1  0.73452000  0.42054000  0.49484000  1
  N  N694  1  0.21977000  0.65949000  0.46125000  1
  N  N695  1  0.65949000  0.21977000  0.46125000  1
  N  N696  1  0.65949000  0.65949000  0.46125000  1
  N  N697  1  0.37138000  0.37138000  0.45110000  1
  N  N698  1  0.37138000  0.80614000  0.45110000  1
  N  N699  1  0.80614000  0.37138000  0.45110000  1
  N  N700  1  0.20040000  0.20040000  0.39880000  1
  N  N701  1  0.17563000  0.24645000  0.33147000  1
  N  N702  1  0.24645000  0.17563000  0.33147000  1
  N  N703  1  0.24645000  0.24645000  0.33147000  1
  N  N704  1  0.16853000  0.75355000  0.32437000  1
  N  N705  1  0.75355000  0.16853000  0.32437000  1
  N  N706  1  0.75355000  0.75355000  0.32437000  1
  N  N707  1  0.37138000  0.37138000  0.30614000  1
  N  N708  1  0.37138000  0.95110000  0.30614000  1
  N  N709  1  0.95110000  0.37138000  0.30614000  1
  N  N710  1  0.10120000  0.79960000  0.29960000  1
  N  N711  1  0.79960000  0.10120000  0.29960000  1
  N  N712  1  0.79960000  0.79960000  0.29960000  1
  N  N713  1  0.03875000  0.34051000  0.28023000  1
  N  N714  1  0.34051000  0.03875000  0.28023000  1
  N  N715  1  0.34051000  0.34051000  0.28023000  1
  N  N716  1  0.16853000  0.75355000  0.25355000  1
  N  N717  1  0.75355000  0.16853000  0.25355000  1
  N  N718  1  0.16853000  0.82437000  0.25355000  1
  N  N719  1  0.82437000  0.16853000  0.25355000  1
  N  N720  1  0.75355000  0.82437000  0.25355000  1
  N  N721  1  0.82437000  0.75355000  0.25355000  1
  N  N722  1  0.35010000  0.42054000  0.23452000  1
  N  N723  1  0.42054000  0.35010000  0.23452000  1
  N  N724  1  0.35010000  0.99484000  0.23452000  1
  N  N725  1  0.99484000  0.35010000  0.23452000  1
  N  N726  1  0.42054000  0.99484000  0.23452000  1
  N  N727  1  0.99484000  0.42054000  0.23452000  1
  N  N728  1  0.21977000  0.65949000  0.15949000  1
  N  N729  1  0.65949000  0.21977000  0.15949000  1
  N  N730  1  0.21977000  0.96125000  0.15949000  1
  N  N731  1  0.96125000  0.21977000  0.15949000  1
  N  N732  1  0.65949000  0.96125000  0.15949000  1
  N  N733  1  0.96125000  0.65949000  0.15949000  1
  N  N734  1  0.00516000  0.26548000  0.14990000  1
  N  N735  1  0.26548000  0.00516000  0.14990000  1
  N  N736  1  0.00516000  0.57946000  0.14990000  1
  N  N737  1  0.57946000  0.00516000  0.14990000  1
  N  N738  1  0.26548000  0.57946000  0.14990000  1
  N  N739  1  0.57946000  0.26548000  0.14990000  1
  N  N740  1  0.04890000  0.19386000  0.12862000  1
  N  N741  1  0.19386000  0.04890000  0.12862000  1
  N  N742  1  0.04890000  0.62862000  0.12862000  1
  N  N743  1  0.62862000  0.04890000  0.12862000  1
  N  N744  1  0.19386000  0.62862000  0.12862000  1
  N  N745  1  0.62862000  0.19386000  0.12862000  1
  N  N746  1  0.00516000  0.26548000  0.07946000  1
  N  N747  1  0.26548000  0.00516000  0.07946000  1
  N  N748  1  0.00516000  0.64990000  0.07946000  1
  N  N749  1  0.64990000  0.00516000  0.07946000  1
  N  N750  1  0.26548000  0.64990000  0.07946000  1
  N  N751  1  0.64990000  0.26548000  0.07946000  1
