# generated using pymatgen
data_MnH4C7O5
_symmetry_space_group_name_H-M   'P 1'
_cell_length_a   9.06590000
_cell_length_b   9.06590000
_cell_length_c   21.72730000
_cell_angle_alpha   90.00000000
_cell_angle_beta   90.00000000
_cell_angle_gamma   120.00000000
_symmetry_Int_Tables_number   1
_chemical_formula_structural   MnH4C7O5
_chemical_formula_sum   'Mn6 H24 C42 O30'
_cell_volume   1546.52961650
_cell_formula_units_Z   6
loop_
 _symmetry_equiv_pos_site_id
 _symmetry_equiv_pos_as_xyz
  1  'x, y, z'
loop_
 _atom_site_type_symbol
 _atom_site_label
 _atom_site_symmetry_multiplicity
 _atom_site_fract_x
 _atom_site_fract_y
 _atom_site_fract_z
 _atom_site_occupancy
  Mn  Mn0  1  0.98276000  0.96081000  0.41627000  1
  Mn  Mn1  1  0.97805000  0.01724000  0.08294000  1
  Mn  Mn2  1  0.96081000  0.98276000  0.58373000  1
  Mn  Mn3  1  0.03919000  0.02195000  0.74961000  1
  Mn  Mn4  1  0.02195000  0.03919000  0.25039000  1
  Mn  Mn5  1  0.01724000  0.97805000  0.91706000  1
  H  H6  1  0.93880000  0.53460000  0.07570000  1
  H  H7  1  0.91490000  0.49610000  0.57797000  1
  H  H8  1  0.89900000  0.27300000  0.03050000  1
  H  H9  1  0.86800000  0.23200000  0.53427000  1
  H  H10  1  0.76800000  0.63600000  0.86760000  1
  H  H11  1  0.72700000  0.62600000  0.36383000  1
  H  H12  1  0.63600000  0.76800000  0.13240000  1
  H  H13  1  0.62600000  0.72700000  0.63617000  1
  H  H14  1  0.59580000  0.06120000  0.74237000  1
  H  H15  1  0.58120000  0.08510000  0.24463000  1
  H  H16  1  0.53460000  0.93880000  0.92430000  1
  H  H17  1  0.50390000  0.41880000  0.91130000  1
  H  H18  1  0.49610000  0.91490000  0.42203000  1
  H  H19  1  0.46540000  0.40420000  0.40903000  1
  H  H20  1  0.41880000  0.50390000  0.08870000  1
  H  H21  1  0.40420000  0.46540000  0.59097000  1
  H  H22  1  0.37400000  0.10100000  0.69717000  1
  H  H23  1  0.36400000  0.13200000  0.20093000  1
  H  H24  1  0.27300000  0.89900000  0.96950000  1
  H  H25  1  0.23200000  0.86800000  0.46573000  1
  H  H26  1  0.13200000  0.36400000  0.79907000  1
  H  H27  1  0.10100000  0.37400000  0.30283000  1
  H  H28  1  0.08510000  0.58120000  0.75537000  1
  H  H29  1  0.06120000  0.59580000  0.25763000  1
  C  C30  1  0.00000000  0.25570000  0.66666667  1
  C  C31  1  0.00000000  0.28270000  0.16667000  1
  C  C32  1  0.00000000  0.56300000  0.66666667  1
  C  C33  1  0.00000000  0.58910000  0.16667000  1
  C  C34  1  0.00000000  0.72570000  0.66666667  1
  C  C35  1  0.96200000  0.49390000  0.11260000  1
  C  C36  1  0.95840000  0.33970000  0.11332000  1
  C  C37  1  0.94790000  0.46050000  0.61401000  1
  C  C38  1  0.94500000  0.30720000  0.61516000  1
  C  C39  1  0.75270000  0.00000000  0.83333000  1
  C  C40  1  0.74430000  0.74430000  0.00000000  1
  C  C41  1  0.72570000  0.00000000  0.33333333  1
  C  C42  1  0.71730000  0.71730000  0.50000000  1
  C  C43  1  0.69280000  0.63780000  0.94849000  1
  C  C44  1  0.66030000  0.61870000  0.44665000  1
  C  C45  1  0.63780000  0.69280000  0.05151000  1
  C  C46  1  0.61870000  0.66030000  0.55335000  1
  C  C47  1  0.58910000  1.00000000  0.83333000  1
  C  C48  1  0.56300000  0.00000000  0.33333333  1
  C  C49  1  0.53950000  0.48740000  0.94734000  1
  C  C50  1  0.53190000  0.03800000  0.77927000  1
  C  C51  1  0.51260000  0.05210000  0.28067000  1
  C  C52  1  0.50610000  0.46810000  0.44593000  1
  C  C53  1  0.49390000  0.96200000  0.88740000  1
  C  C54  1  0.48740000  0.53950000  0.05266000  1
  C  C55  1  0.46810000  0.50610000  0.55407000  1
  C  C56  1  0.46050000  0.94790000  0.38599000  1
  C  C57  1  0.43700000  0.43700000  0.00000000  1
  C  C58  1  0.41090000  0.41090000  0.50000000  1
  C  C59  1  0.38130000  0.04160000  0.77999000  1
  C  C60  1  0.36220000  0.05500000  0.28182000  1
  C  C61  1  0.33970000  0.95840000  0.88668000  1
  C  C62  1  0.30720000  0.94500000  0.38484000  1
  C  C63  1  0.28270000  1.00000000  0.83333000  1
  C  C64  1  0.27430000  0.27430000  0.00000000  1
  C  C65  1  0.25570000  1.00000000  0.33333333  1
  C  C66  1  0.24730000  0.24730000  0.50000000  1
  C  C67  1  0.05500000  0.36220000  0.71818000  1
  C  C68  1  0.05210000  0.51260000  0.71933000  1
  C  C69  1  0.04160000  0.38130000  0.22001000  1
  C  C70  1  0.03800000  0.53190000  0.22073000  1
  C  C71  1  0.00000000  0.75270000  0.16667000  1
  O  O72  1  0.00000000  0.10900000  0.66666667  1
  O  O73  1  0.00000000  0.13510000  0.16667000  1
  O  O74  1  0.95920000  0.77100000  0.71619000  1
  O  O75  1  0.94810000  0.79190000  0.21474000  1
  O  O76  1  0.91680000  0.23140000  0.06368000  1
  O  O77  1  0.89100000  0.89100000  0.00000000  1
  O  O78  1  0.89040000  0.19200000  0.56691000  1
  O  O79  1  0.86490000  0.86490000  0.50000000  1
  O  O80  1  0.84380000  0.05190000  0.88141000  1
  O  O81  1  0.81180000  0.04080000  0.38285000  1
  O  O82  1  0.80800000  0.69840000  0.90024000  1
  O  O83  1  0.79190000  0.94810000  0.78526000  1
  O  O84  1  0.77100000  0.95920000  0.28381000  1
  O  O85  1  0.76860000  0.68540000  0.39701000  1
  O  O86  1  0.69840000  0.80800000  0.09976000  1
  O  O87  1  0.68540000  0.76860000  0.60299000  1
  O  O88  1  0.31460000  0.08320000  0.73035000  1
  O  O89  1  0.30160000  0.10960000  0.23357000  1
  O  O90  1  0.23140000  0.91680000  0.93632000  1
  O  O91  1  0.22900000  0.18820000  0.04952000  1
  O  O92  1  0.20810000  0.15620000  0.54808000  1
  O  O93  1  0.19200000  0.89040000  0.43309000  1
  O  O94  1  0.18820000  0.22900000  0.95048000  1
  O  O95  1  0.15620000  0.20810000  0.45192000  1
  O  O96  1  0.13510000  1.00000000  0.83333000  1
  O  O97  1  0.10960000  0.30160000  0.76643000  1
  O  O98  1  0.10900000  0.00000000  0.33333333  1
  O  O99  1  0.08320000  0.31460000  0.26965000  1
  O  O100  1  0.05190000  0.84380000  0.11859000  1
  O  O101  1  0.04080000  0.81180000  0.61715000  1
