# generated using pymatgen
data_Zn4H24C51(O7F9)2
_symmetry_space_group_name_H-M   'P 1'
_cell_length_a   7.52800000
_cell_length_b   17.85300000
_cell_length_c   23.75700000
_cell_angle_alpha   92.53400000
_cell_angle_beta   90.00000000
_cell_angle_gamma   90.00000000
_symmetry_Int_Tables_number   1
_chemical_formula_structural   Zn4H24C51(O7F9)2
_chemical_formula_sum   'Zn8 H48 C102 O28 F36'
_cell_volume   3189.75653175
_cell_formula_units_Z   2
loop_
 _symmetry_equiv_pos_site_id
 _symmetry_equiv_pos_as_xyz
  1  'x, y, z'
loop_
 _atom_site_type_symbol
 _atom_site_label
 _atom_site_symmetry_multiplicity
 _atom_site_fract_x
 _atom_site_fract_y
 _atom_site_fract_z
 _atom_site_occupancy
  Zn  Zn0  1  0.02626000  0.57831000  0.03157000  1
  Zn  Zn1  1  0.02626000  0.92169000  0.46843000  1
  Zn  Zn2  1  0.29499000  0.00941000  0.58730000  1
  Zn  Zn3  1  0.29499000  0.49059000  0.91270000  1
  Zn  Zn4  1  0.70501000  0.50941000  0.08730000  1
  Zn  Zn5  1  0.70501000  0.99059000  0.41270000  1
  Zn  Zn6  1  0.97374000  0.07831000  0.53157000  1
  Zn  Zn7  1  0.97374000  0.42169000  0.96843000  1
  H  H8  1  0.06540000  0.00940000  0.16970000  1
  H  H9  1  0.06540000  0.49060000  0.33030000  1
  H  H10  1  0.06680000  0.50470000  0.75810000  1
  H  H11  1  0.06680000  0.99530000  0.74190000  1
  H  H12  1  0.07830000  0.71340000  0.86070000  1
  H  H13  1  0.07830000  0.78660000  0.63930000  1
  H  H14  1  0.11140000  0.14760000  0.41740000  1
  H  H15  1  0.11140000  0.35240000  0.08260000  1
  H  H16  1  0.16480000  0.20160000  0.92910000  1
  H  H17  1  0.16480000  0.29840000  0.57090000  1
  H  H18  1  0.25440000  0.17580000  0.22890000  1
  H  H19  1  0.25440000  0.32420000  0.27110000  1
  H  H20  1  0.25910000  0.67340000  0.35950000  1
  H  H21  1  0.25910000  0.82660000  0.14050000  1
  H  H22  1  0.27580000  0.08180000  0.90800000  1
  H  H23  1  0.27580000  0.41820000  0.59200000  1
  H  H24  1  0.36960000  0.70740000  0.11770000  1
  H  H25  1  0.36960000  0.79260000  0.38230000  1
  H  H26  1  0.37570000  0.59000000  0.18050000  1
  H  H27  1  0.37570000  0.91000000  0.31950000  1
  H  H28  1  0.44400000  0.10920000  0.28570000  1
  H  H29  1  0.44400000  0.39080000  0.21430000  1
  H  H30  1  0.49480000  0.08920000  0.76920000  1
  H  H31  1  0.49480000  0.41080000  0.73080000  1
  H  H32  1  0.50520000  0.58920000  0.26920000  1
  H  H33  1  0.50520000  0.91080000  0.23080000  1
  H  H34  1  0.55600000  0.60920000  0.78570000  1
  H  H35  1  0.55600000  0.89080000  0.71430000  1
  H  H36  1  0.62430000  0.09000000  0.68050000  1
  H  H37  1  0.62430000  0.41000000  0.81950000  1
  H  H38  1  0.63040000  0.20740000  0.61770000  1
  H  H39  1  0.63040000  0.29260000  0.88230000  1
  H  H40  1  0.72420000  0.58180000  0.40800000  1
  H  H41  1  0.72420000  0.91820000  0.09200000  1
  H  H42  1  0.74090000  0.17340000  0.85950000  1
  H  H43  1  0.74090000  0.32660000  0.64050000  1
  H  H44  1  0.74560000  0.67580000  0.72890000  1
  H  H45  1  0.74560000  0.82420000  0.77110000  1
  H  H46  1  0.83520000  0.70160000  0.42910000  1
  H  H47  1  0.83520000  0.79840000  0.07090000  1
  H  H48  1  0.88860000  0.64760000  0.91740000  1
  H  H49  1  0.88860000  0.85240000  0.58260000  1
  H  H50  1  0.92170000  0.21340000  0.36070000  1
  H  H51  1  0.92170000  0.28660000  0.13930000  1
  H  H52  1  0.93320000  0.00470000  0.25810000  1
  H  H53  1  0.93320000  0.49530000  0.24190000  1
  H  H54  1  0.93460000  0.50940000  0.66970000  1
  H  H55  1  0.93460000  0.99060000  0.83030000  1
  C  C56  1  0.02930000  0.19343000  0.34554000  1
  C  C57  1  0.02930000  0.30657000  0.15446000  1
  C  C58  1  0.04450000  0.75000000  0.75000000  1
  C  C59  1  0.05050000  0.51390000  0.24742000  1
  C  C60  1  0.05050000  0.98610000  0.25258000  1
  C  C61  1  0.05410000  0.54285000  0.14585000  1
  C  C62  1  0.05410000  0.95715000  0.35415000  1
  C  C63  1  0.07230000  0.20411000  0.28951000  1
  C  C64  1  0.07230000  0.29589000  0.21049000  1
  C  C65  1  0.12820000  0.51164000  0.30016000  1
  C  C66  1  0.12820000  0.98836000  0.19984000  1
  C  C67  1  0.14130000  0.54278000  0.20275000  1
  C  C68  1  0.14130000  0.95722000  0.29725000  1
  C  C69  1  0.14190000  0.15410000  0.37912000  1
  C  C70  1  0.14190000  0.34590000  0.12088000  1
  C  C71  1  0.16480000  0.69283000  0.71766000  1
  C  C72  1  0.16480000  0.80717000  0.78234000  1
  C  C73  1  0.22630000  0.17103000  0.26755000  1
  C  C74  1  0.22630000  0.32897000  0.23245000  1
  C  C75  1  0.27150000  0.52003000  0.41516000  1
  C  C76  1  0.27150000  0.97997000  0.08484000  1
  C  C77  1  0.28200000  0.19586000  0.91480000  1
  C  C78  1  0.28200000  0.30414000  0.58520000  1
  C  C79  1  0.29860000  0.54024000  0.30886000  1
  C  C80  1  0.29860000  0.95976000  0.19114000  1
  C  C81  1  0.29950000  0.12370000  0.35777000  1
  C  C82  1  0.29950000  0.37630000  0.14223000  1
  C  C83  1  0.30890000  0.16390000  0.58039000  1
  C  C84  1  0.30890000  0.33610000  0.91961000  1
  C  C85  1  0.31190000  0.57045000  0.21110000  1
  C  C86  1  0.31190000  0.92955000  0.28890000  1
  C  C87  1  0.33910000  0.13132000  0.30126000  1
  C  C88  1  0.33910000  0.36868000  0.19874000  1
  C  C89  1  0.34770000  0.12449000  0.90223000  1
  C  C90  1  0.34770000  0.37551000  0.59777000  1
  C  C91  1  0.37650000  0.67895000  0.37372000  1
  C  C92  1  0.37650000  0.82105000  0.12628000  1
  C  C93  1  0.38470000  0.24113000  0.59326000  1
  C  C94  1  0.38470000  0.25887000  0.90674000  1
  C  C95  1  0.38890000  0.56957000  0.26369000  1
  C  C96  1  0.38890000  0.93043000  0.23631000  1
  C  C97  1  0.39680000  0.53837000  0.36606000  1
  C  C98  1  0.39680000  0.96163000  0.13394000  1
  C  C99  1  0.42480000  0.08321000  0.39498000  1
  C  C100  1  0.42480000  0.41679000  0.10502000  1
  C  C101  1  0.44250000  0.74990000  0.38686000  1
  C  C102  1  0.44250000  0.75010000  0.11314000  1
  C  C103  1  0.46440000  0.52507000  0.64025000  1
  C  C104  1  0.46440000  0.97493000  0.85975000  1
  C  C105  1  0.48020000  0.61564000  0.38116000  1
  C  C106  1  0.48020000  0.88436000  0.11884000  1
  C  C107  1  0.51980000  0.11564000  0.88116000  1
  C  C108  1  0.51980000  0.38436000  0.61884000  1
  C  C109  1  0.53560000  0.02507000  0.14025000  1
  C  C110  1  0.53560000  0.47493000  0.35975000  1
  C  C111  1  0.55750000  0.24990000  0.88686000  1
  C  C112  1  0.55750000  0.25010000  0.61314000  1
  C  C113  1  0.57520000  0.58321000  0.89498000  1
  C  C114  1  0.57520000  0.91679000  0.60502000  1
  C  C115  1  0.60320000  0.03837000  0.86606000  1
  C  C116  1  0.60320000  0.46163000  0.63394000  1
  C  C117  1  0.61110000  0.06957000  0.76369000  1
  C  C118  1  0.61110000  0.43043000  0.73631000  1
  C  C119  1  0.61530000  0.74113000  0.09326000  1
  C  C120  1  0.61530000  0.75887000  0.40674000  1
  C  C121  1  0.62350000  0.17895000  0.87372000  1
  C  C122  1  0.62350000  0.32105000  0.62628000  1
  C  C123  1  0.65230000  0.62449000  0.40223000  1
  C  C124  1  0.65230000  0.87551000  0.09777000  1
  C  C125  1  0.66090000  0.63132000  0.80126000  1
  C  C126  1  0.66090000  0.86868000  0.69874000  1
  C  C127  1  0.68810000  0.07045000  0.71110000  1
  C  C128  1  0.68810000  0.42955000  0.78890000  1
  C  C129  1  0.69110000  0.66390000  0.08039000  1
  C  C130  1  0.69110000  0.83610000  0.41961000  1
  C  C131  1  0.70050000  0.62370000  0.85777000  1
  C  C132  1  0.70050000  0.87630000  0.64223000  1
  C  C133  1  0.70140000  0.04024000  0.80886000  1
  C  C134  1  0.70140000  0.45976000  0.69114000  1
  C  C135  1  0.71800000  0.69586000  0.41480000  1
  C  C136  1  0.71800000  0.80414000  0.08520000  1
  C  C137  1  0.72850000  0.02003000  0.91516000  1
  C  C138  1  0.72850000  0.47997000  0.58484000  1
  C  C139  1  0.77370000  0.67103000  0.76755000  1
  C  C140  1  0.77370000  0.82897000  0.73245000  1
  C  C141  1  0.83520000  0.19283000  0.21766000  1
  C  C142  1  0.83520000  0.30717000  0.28234000  1
  C  C143  1  0.85810000  0.65410000  0.87912000  1
  C  C144  1  0.85810000  0.84590000  0.62088000  1
  C  C145  1  0.85870000  0.04278000  0.70275000  1
  C  C146  1  0.85870000  0.45722000  0.79725000  1
  C  C147  1  0.87180000  0.01164000  0.80016000  1
  C  C148  1  0.87180000  0.48836000  0.69984000  1
  C  C149  1  0.92770000  0.70411000  0.78951000  1
  C  C150  1  0.92770000  0.79589000  0.71049000  1
  C  C151  1  0.94590000  0.04285000  0.64585000  1
  C  C152  1  0.94590000  0.45715000  0.85415000  1
  C  C153  1  0.94950000  0.01390000  0.74742000  1
  C  C154  1  0.94950000  0.48610000  0.75258000  1
  C  C155  1  0.95550000  0.25000000  0.25000000  1
  C  C156  1  0.97070000  0.69343000  0.84554000  1
  C  C157  1  0.97070000  0.80657000  0.65446000  1
  O  O158  1  0.10150000  0.01780000  0.64296000  1
  O  O159  1  0.10150000  0.48220000  0.85704000  1
  O  O160  1  0.14080000  0.56726000  0.10526000  1
  O  O161  1  0.14080000  0.93274000  0.39474000  1
  O  O162  1  0.15390000  0.16016000  0.56192000  1
  O  O163  1  0.15390000  0.33984000  0.93808000  1
  O  O164  1  0.17470000  0.00288000  0.51379000  1
  O  O165  1  0.17470000  0.49712000  0.98621000  1
  O  O166  1  0.38900000  0.07532000  0.44525000  1
  O  O167  1  0.38900000  0.42468000  0.05475000  1
  O  O168  1  0.40750000  0.10886000  0.59030000  1
  O  O169  1  0.40750000  0.39114000  0.90970000  1
  O  O170  1  0.43140000  0.56045000  0.87173000  1
  O  O171  1  0.43140000  0.93955000  0.62827000  1
  O  O172  1  0.56860000  0.06045000  0.37173000  1
  O  O173  1  0.56860000  0.43955000  0.12827000  1
  O  O174  1  0.59250000  0.60886000  0.09030000  1
  O  O175  1  0.59250000  0.89114000  0.40970000  1
  O  O176  1  0.61100000  0.57532000  0.94525000  1
  O  O177  1  0.61100000  0.92468000  0.55475000  1
  O  O178  1  0.82530000  0.50288000  0.01379000  1
  O  O179  1  0.82530000  0.99712000  0.48621000  1
  O  O180  1  0.84610000  0.66016000  0.06192000  1
  O  O181  1  0.84610000  0.83984000  0.43808000  1
  O  O182  1  0.85920000  0.06726000  0.60526000  1
  O  O183  1  0.85920000  0.43274000  0.89474000  1
  O  O184  1  0.89850000  0.51780000  0.14296000  1
  O  O185  1  0.89850000  0.98220000  0.35704000  1
  F  F186  1  0.07080000  0.65197000  0.67919000  1
  F  F187  1  0.07080000  0.84803000  0.82081000  1
  F  F188  1  0.12980000  0.56471000  0.41753000  1
  F  F189  1  0.12980000  0.93529000  0.08247000  1
  F  F190  1  0.21160000  0.05098000  0.08780000  1
  F  F191  1  0.21160000  0.44902000  0.41220000  1
  F  F192  1  0.23920000  0.64510000  0.75164000  1
  F  F193  1  0.23920000  0.85490000  0.74836000  1
  F  F194  1  0.29760000  0.72520000  0.68957000  1
  F  F195  1  0.29760000  0.77480000  0.81043000  1
  F  F196  1  0.33160000  0.50725000  0.67451000  1
  F  F197  1  0.33160000  0.99275000  0.82549000  1
  F  F198  1  0.35380000  0.52916000  0.46499000  1
  F  F199  1  0.35380000  0.97084000  0.03501000  1
  F  F200  1  0.38850000  0.54195000  0.59090000  1
  F  F201  1  0.38850000  0.95805000  0.90910000  1
  F  F202  1  0.46430000  0.08856000  0.16133000  1
  F  F203  1  0.46430000  0.41144000  0.33867000  1
  F  F204  1  0.53570000  0.58856000  0.66133000  1
  F  F205  1  0.53570000  0.91144000  0.83867000  1
  F  F206  1  0.61150000  0.04195000  0.09090000  1
  F  F207  1  0.61150000  0.45805000  0.40910000  1
  F  F208  1  0.64620000  0.02916000  0.96499000  1
  F  F209  1  0.64620000  0.47084000  0.53501000  1
  F  F210  1  0.66840000  0.00725000  0.17451000  1
  F  F211  1  0.66840000  0.49275000  0.32549000  1
  F  F212  1  0.70240000  0.22520000  0.18957000  1
  F  F213  1  0.70240000  0.27480000  0.31043000  1
  F  F214  1  0.76080000  0.14510000  0.25164000  1
  F  F215  1  0.76080000  0.35490000  0.24836000  1
  F  F216  1  0.78840000  0.55098000  0.58780000  1
  F  F217  1  0.78840000  0.94902000  0.91220000  1
  F  F218  1  0.87020000  0.06471000  0.91753000  1
  F  F219  1  0.87020000  0.43529000  0.58247000  1
  F  F220  1  0.92920000  0.15197000  0.17919000  1
  F  F221  1  0.92920000  0.34803000  0.32081000  1
