# generated using pymatgen
data_Cr3C24O13
_symmetry_space_group_name_H-M   'P 1'
_cell_length_a   11.02820000
_cell_length_b   11.02820000
_cell_length_c   18.97170000
_cell_angle_alpha   90.00000000
_cell_angle_beta   90.00000000
_cell_angle_gamma   120.00000000
_symmetry_Int_Tables_number   1
_chemical_formula_structural   Cr3C24O13
_chemical_formula_sum   'Cr6 C48 O26'
_cell_volume   1998.23309425
_cell_formula_units_Z   2
loop_
 _symmetry_equiv_pos_site_id
 _symmetry_equiv_pos_as_xyz
  1  'x, y, z'
loop_
 _atom_site_type_symbol
 _atom_site_label
 _atom_site_symmetry_multiplicity
 _atom_site_fract_x
 _atom_site_fract_y
 _atom_site_fract_z
 _atom_site_occupancy
  Cr  Cr0  1  0.77640000  0.53920000  0.25000000  1
  Cr  Cr1  1  0.76280000  0.22360000  0.25000000  1
  Cr  Cr2  1  0.53920000  0.77640000  0.75000000  1
  Cr  Cr3  1  0.46080000  0.23720000  0.25000000  1
  Cr  Cr4  1  0.23720000  0.46080000  0.75000000  1
  Cr  Cr5  1  0.22360000  0.76280000  0.75000000  1
  C  C6  1  0.99940000  0.60260000  0.46350000  1
  C  C7  1  0.99940000  0.60260000  0.03650000  1
  C  C8  1  0.98640000  0.37710000  0.46370000  1
  C  C9  1  0.98640000  0.37710000  0.03630000  1
  C  C10  1  0.98540000  0.48410000  0.42720000  1
  C  C11  1  0.98540000  0.48410000  0.07280000  1
  C  C12  1  0.91940000  0.44440000  0.35840000  1
  C  C13  1  0.91940000  0.44440000  0.14160000  1
  C  C14  1  0.62290000  0.60930000  0.46370000  1
  C  C15  1  0.62290000  0.60930000  0.03630000  1
  C  C16  1  0.60930000  0.62290000  0.96370000  1
  C  C17  1  0.60930000  0.62290000  0.53630000  1
  C  C18  1  0.60320000  0.00060000  0.46350000  1
  C  C19  1  0.60320000  0.00060000  0.03650000  1
  C  C20  1  0.60260000  0.99940000  0.96350000  1
  C  C21  1  0.60260000  0.99940000  0.53650000  1
  C  C22  1  0.55560000  0.47500000  0.35840000  1
  C  C23  1  0.55560000  0.47500000  0.14160000  1
  C  C24  1  0.52500000  0.08060000  0.35840000  1
  C  C25  1  0.52500000  0.08060000  0.14160000  1
  C  C26  1  0.51590000  0.50130000  0.42720000  1
  C  C27  1  0.51590000  0.50130000  0.07280000  1
  C  C28  1  0.50130000  0.51590000  0.92720000  1
  C  C29  1  0.50130000  0.51590000  0.57280000  1
  C  C30  1  0.49870000  0.01460000  0.42720000  1
  C  C31  1  0.49870000  0.01460000  0.07280000  1
  C  C32  1  0.48410000  0.98540000  0.92720000  1
  C  C33  1  0.48410000  0.98540000  0.57280000  1
  C  C34  1  0.47500000  0.55560000  0.85840000  1
  C  C35  1  0.47500000  0.55560000  0.64160000  1
  C  C36  1  0.44440000  0.91940000  0.85840000  1
  C  C37  1  0.44440000  0.91940000  0.64160000  1
  C  C38  1  0.39740000  0.39680000  0.46350000  1
  C  C39  1  0.39740000  0.39680000  0.03650000  1
  C  C40  1  0.39680000  0.39740000  0.96350000  1
  C  C41  1  0.39680000  0.39740000  0.53650000  1
  C  C42  1  0.39070000  0.01360000  0.46370000  1
  C  C43  1  0.39070000  0.01360000  0.03630000  1
  C  C44  1  0.37710000  0.98640000  0.96370000  1
  C  C45  1  0.37710000  0.98640000  0.53630000  1
  C  C46  1  0.08060000  0.52500000  0.85840000  1
  C  C47  1  0.08060000  0.52500000  0.64160000  1
  C  C48  1  0.01460000  0.49870000  0.92720000  1
  C  C49  1  0.01460000  0.49870000  0.57280000  1
  C  C50  1  0.01360000  0.39070000  0.96370000  1
  C  C51  1  0.01360000  0.39070000  0.53630000  1
  C  C52  1  0.00060000  0.60320000  0.96350000  1
  C  C53  1  0.00060000  0.60320000  0.53650000  1
  O  O54  1  0.90400000  0.33000000  0.32800000  1
  O  O55  1  0.90400000  0.33000000  0.17200000  1
  O  O56  1  0.88950000  0.52260000  0.32230000  1
  O  O57  1  0.88950000  0.52260000  0.17770000  1
  O  O58  1  0.67000000  0.57400000  0.32800000  1
  O  O59  1  0.67000000  0.57400000  0.17200000  1
  O  O60  1  0.66666667  0.33333333  0.25000000  1
  O  O61  1  0.63310000  0.11050000  0.32230000  1
  O  O62  1  0.63310000  0.11050000  0.17770000  1
  O  O63  1  0.57400000  0.67000000  0.82800000  1
  O  O64  1  0.57400000  0.67000000  0.67200000  1
  O  O65  1  0.52260000  0.88950000  0.82230000  1
  O  O66  1  0.52260000  0.88950000  0.67770000  1
  O  O67  1  0.47740000  0.36690000  0.32230000  1
  O  O68  1  0.47740000  0.36690000  0.17770000  1
  O  O69  1  0.42600000  0.09600000  0.32800000  1
  O  O70  1  0.42600000  0.09600000  0.17200000  1
  O  O71  1  0.36690000  0.47740000  0.82230000  1
  O  O72  1  0.36690000  0.47740000  0.67770000  1
  O  O73  1  0.33333333  0.66666667  0.75000000  1
  O  O74  1  0.33000000  0.90400000  0.82800000  1
  O  O75  1  0.33000000  0.90400000  0.67200000  1
  O  O76  1  0.11050000  0.63310000  0.82230000  1
  O  O77  1  0.11050000  0.63310000  0.67770000  1
  O  O78  1  0.09600000  0.42600000  0.82800000  1
  O  O79  1  0.09600000  0.42600000  0.67200000  1
