# generated using pymatgen
data_ZnH4C6N3O2
_symmetry_space_group_name_H-M   'P 1'
_cell_length_a   7.79700000
_cell_length_b   10.04700000
_cell_length_c   13.57700000
_cell_angle_alpha   110.18000000
_cell_angle_beta   105.46000000
_cell_angle_gamma   93.90000000
_symmetry_Int_Tables_number   1
_chemical_formula_structural   ZnH4C6N3O2
_chemical_formula_sum   'Zn4 H16 C24 N12 O8'
_cell_volume   947.00091866
_cell_formula_units_Z   4
loop_
 _symmetry_equiv_pos_site_id
 _symmetry_equiv_pos_as_xyz
  1  'x, y, z'
loop_
 _atom_site_type_symbol
 _atom_site_label
 _atom_site_symmetry_multiplicity
 _atom_site_fract_x
 _atom_site_fract_y
 _atom_site_fract_z
 _atom_site_occupancy
  Zn  Zn0  1  0.36918000  0.12226000  0.74478000  1
  Zn  Zn1  1  0.50000000  0.50000000  0.50000000  1
  Zn  Zn2  1  0.63082000  0.87774000  0.25522000  1
  Zn  Zn3  1  0.00000000  0.50000000  0.50000000  1
  H  H4  1  0.03220000  0.70920000  0.15470000  1
  H  H5  1  0.04010000  0.26670000  0.62560000  1
  H  H6  1  0.08500000  0.84250000  0.63220000  1
  H  H7  1  0.13770000  0.94420000  0.15280000  1
  H  H8  1  0.25500000  0.42890000  0.94910000  1
  H  H9  1  0.31300000  0.00290000  0.05320000  1
  H  H10  1  0.40980000  0.14220000  0.36330000  1
  H  H11  1  0.46100000  0.72940000  0.38030000  1
  H  H12  1  0.53900000  0.27060000  0.61970000  1
  H  H13  1  0.59020000  0.85780000  0.63670000  1
  H  H14  1  0.68700000  0.99710000  0.94680000  1
  H  H15  1  0.74500000  0.57110000  0.05090000  1
  H  H16  1  0.86230000  0.05580000  0.84720000  1
  H  H17  1  0.91500000  0.15750000  0.36780000  1
  H  H18  1  0.95990000  0.73330000  0.37440000  1
  H  H19  1  0.96780000  0.29080000  0.84530000  1
  C  C20  1  0.01880000  0.62440000  0.09200000  1
  C  C21  1  0.08180000  0.96660000  0.09060000  1
  C  C22  1  0.10390000  0.03610000  0.94060000  1
  C  C23  1  0.15150000  0.28820000  0.61350000  1
  C  C24  1  0.15190000  0.45760000  0.96970000  1
  C  C25  1  0.17150000  0.58270000  0.06200000  1
  C  C26  1  0.18640000  0.00200000  0.03170000  1
  C  C27  1  0.19490000  0.81520000  0.62130000  1
  C  C28  1  0.21770000  0.07550000  0.87790000  1
  C  C29  1  0.35670000  0.67150000  0.12760000  1
  C  C30  1  0.41950000  0.29020000  0.61030000  1
  C  C31  1  0.46650000  0.82350000  0.62390000  1
  C  C32  1  0.53350000  0.17650000  0.37610000  1
  C  C33  1  0.58050000  0.70980000  0.38970000  1
  C  C34  1  0.64330000  0.32850000  0.87240000  1
  C  C35  1  0.78230000  0.92450000  0.12210000  1
  C  C36  1  0.80510000  0.18480000  0.37870000  1
  C  C37  1  0.81360000  0.99800000  0.96830000  1
  C  C38  1  0.82850000  0.41730000  0.93800000  1
  C  C39  1  0.84810000  0.54240000  0.03030000  1
  C  C40  1  0.84850000  0.71180000  0.38650000  1
  C  C41  1  0.89610000  0.96390000  0.05940000  1
  C  C42  1  0.91820000  0.03340000  0.90940000  1
  C  C43  1  0.98120000  0.37560000  0.90800000  1
  N  N44  1  0.17930000  0.37810000  0.56500000  1
  N  N45  1  0.21140000  0.68150000  0.56970000  1
  N  N46  1  0.29780000  0.23050000  0.64380000  1
  N  N47  1  0.35110000  0.90960000  0.65710000  1
  N  N48  1  0.35540000  0.37890000  0.56300000  1
  N  N49  1  0.38930000  0.68590000  0.57140000  1
  N  N50  1  0.61070000  0.31410000  0.42860000  1
  N  N51  1  0.64460000  0.62110000  0.43700000  1
  N  N52  1  0.64890000  0.09040000  0.34290000  1
  N  N53  1  0.70220000  0.76950000  0.35620000  1
  N  N54  1  0.78860000  0.31850000  0.43030000  1
  N  N55  1  0.82070000  0.62190000  0.43500000  1
  O  O56  1  0.14070000  0.09360000  0.79020000  1
  O  O57  1  0.36420000  0.79670000  0.19910000  1
  O  O58  1  0.38520000  0.09290000  0.91300000  1
  O  O59  1  0.49320000  0.61980000  0.11260000  1
  O  O60  1  0.50680000  0.38020000  0.88740000  1
  O  O61  1  0.61480000  0.90710000  0.08700000  1
  O  O62  1  0.63580000  0.20330000  0.80090000  1
  O  O63  1  0.85930000  0.90640000  0.20980000  1
