# generated using pymatgen
data_In3AgH9C21N3O13
_symmetry_space_group_name_H-M   'P 1'
_cell_length_a   13.63600000
_cell_length_b   13.63600000
_cell_length_c   14.92220000
_cell_angle_alpha   90.00000000
_cell_angle_beta   90.00000000
_cell_angle_gamma   120.00000000
_symmetry_Int_Tables_number   1
_chemical_formula_structural   In3AgH9C21N3O13
_chemical_formula_sum   'In6 Ag2 H18 C42 N6 O26'
_cell_volume   2402.90982570
_cell_formula_units_Z   2
loop_
 _symmetry_equiv_pos_site_id
 _symmetry_equiv_pos_as_xyz
  1  'x, y, z'
loop_
 _atom_site_type_symbol
 _atom_site_label
 _atom_site_symmetry_multiplicity
 _atom_site_fract_x
 _atom_site_fract_y
 _atom_site_fract_z
 _atom_site_occupancy
  In  In0  1  0.82733000  0.46860000  0.75000000  1
  In  In1  1  0.64127000  0.17267000  0.75000000  1
  In  In2  1  0.53140000  0.35873000  0.75000000  1
  In  In3  1  0.46860000  0.82733000  0.25000000  1
  In  In4  1  0.35873000  0.53140000  0.25000000  1
  In  In5  1  0.17267000  0.64127000  0.25000000  1
  Ag  Ag6  1  0.00000000  0.00000000  0.00000000  1
  Ag  Ag7  1  0.00000000  0.00000000  0.50000000  1
  H  H8  1  1.00000000  0.43920000  0.00000000  1
  H  H9  1  1.00000000  0.43920000  0.50000000  1
  H  H10  1  0.88660000  0.12470000  0.90630000  1
  H  H11  1  0.88660000  0.12470000  0.59370000  1
  H  H12  1  0.87530000  0.76190000  0.90630000  1
  H  H13  1  0.87530000  0.76190000  0.59370000  1
  H  H14  1  0.76190000  0.87530000  0.40630000  1
  H  H15  1  0.76190000  0.87530000  0.09370000  1
  H  H16  1  0.56080000  0.56080000  0.00000000  1
  H  H17  1  0.56080000  0.56080000  0.50000000  1
  H  H18  1  0.43920000  0.00000000  1.00000000  1
  H  H19  1  0.43920000  0.00000000  0.50000000  1
  H  H20  1  0.23810000  0.11340000  0.90630000  1
  H  H21  1  0.23810000  0.11340000  0.59370000  1
  H  H22  1  0.12470000  0.88660000  0.40630000  1
  H  H23  1  0.12470000  0.88660000  0.09370000  1
  H  H24  1  0.11340000  0.23810000  0.40630000  1
  H  H25  1  0.11340000  0.23810000  0.09370000  1
  C  C26  1  1.00000000  0.37100000  0.00000000  1
  C  C27  1  1.00000000  0.37100000  0.50000000  1
  C  C28  1  0.93320000  0.18290000  0.94510000  1
  C  C29  1  0.93320000  0.18290000  0.55490000  1
  C  C30  1  0.92880000  0.28190000  0.94230000  1
  C  C31  1  0.92880000  0.28190000  0.55770000  1
  C  C32  1  0.85470000  0.29680000  0.87570000  1
  C  C33  1  0.85470000  0.29680000  0.62430000  1
  C  C34  1  0.81710000  0.75030000  0.94510000  1
  C  C35  1  0.81710000  0.75030000  0.55490000  1
  C  C36  1  0.75030000  0.81710000  0.44510000  1
  C  C37  1  0.75030000  0.81710000  0.05490000  1
  C  C38  1  0.71810000  0.64690000  0.94230000  1
  C  C39  1  0.71810000  0.64690000  0.55770000  1
  C  C40  1  0.70320000  0.55790000  0.87570000  1
  C  C41  1  0.70320000  0.55790000  0.62430000  1
  C  C42  1  0.64690000  0.71810000  0.44230000  1
  C  C43  1  0.64690000  0.71810000  0.05770000  1
  C  C44  1  0.62900000  0.62900000  1.00000000  1
  C  C45  1  0.62900000  0.62900000  0.50000000  1
  C  C46  1  0.55790000  0.70320000  0.37570000  1
  C  C47  1  0.55790000  0.70320000  0.12430000  1
  C  C48  1  0.44210000  0.14530000  0.87570000  1
  C  C49  1  0.44210000  0.14530000  0.62430000  1
  C  C50  1  0.37100000  0.00000000  0.00000000  1
  C  C51  1  0.37100000  0.00000000  0.50000000  1
  C  C52  1  0.35310000  0.07120000  0.94230000  1
  C  C53  1  0.35310000  0.07120000  0.55770000  1
  C  C54  1  0.29680000  0.85470000  0.37570000  1
  C  C55  1  0.29680000  0.85470000  0.12430000  1
  C  C56  1  0.28190000  0.92880000  0.44230000  1
  C  C57  1  0.28190000  0.92880000  0.05770000  1
  C  C58  1  0.24970000  0.06680000  0.94510000  1
  C  C59  1  0.24970000  0.06680000  0.55490000  1
  C  C60  1  0.18290000  0.93320000  0.44510000  1
  C  C61  1  0.18290000  0.93320000  0.05490000  1
  C  C62  1  0.14530000  0.44210000  0.37570000  1
  C  C63  1  0.14530000  0.44210000  0.12430000  1
  C  C64  1  0.07120000  0.35310000  0.44230000  1
  C  C65  1  0.07120000  0.35310000  0.05770000  1
  C  C66  1  0.06680000  0.24970000  0.44510000  1
  C  C67  1  0.06680000  0.24970000  0.05490000  1
  N  N68  1  0.83400000  0.83400000  0.00000000  1
  N  N69  1  0.83400000  0.83400000  0.50000000  1
  N  N70  1  0.16600000  1.00000000  0.00000000  1
  N  N71  1  0.16600000  1.00000000  0.50000000  1
  N  N72  1  1.00000000  0.16600000  1.00000000  1
  N  N73  1  1.00000000  0.16600000  0.50000000  1
  O  O74  1  0.88560000  0.39780000  0.85310000  1
  O  O75  1  0.88560000  0.39780000  0.64690000  1
  O  O76  1  0.79130000  0.56310000  0.84850000  1
  O  O77  1  0.79130000  0.56310000  0.65150000  1
  O  O78  1  0.77180000  0.20870000  0.84850000  1
  O  O79  1  0.77180000  0.20870000  0.65150000  1
  O  O80  1  0.66666667  0.33333333  0.75000000  1
  O  O81  1  0.60220000  0.48780000  0.85310000  1
  O  O82  1  0.60220000  0.48780000  0.64690000  1
  O  O83  1  0.56310000  0.79130000  0.34850000  1
  O  O84  1  0.56310000  0.79130000  0.15150000  1
  O  O85  1  0.51220000  0.11440000  0.85310000  1
  O  O86  1  0.51220000  0.11440000  0.64690000  1
  O  O87  1  0.48780000  0.60220000  0.35310000  1
  O  O88  1  0.48780000  0.60220000  0.14690000  1
  O  O89  1  0.43690000  0.22820000  0.84850000  1
  O  O90  1  0.43690000  0.22820000  0.65150000  1
  O  O91  1  0.39780000  0.88560000  0.35310000  1
  O  O92  1  0.39780000  0.88560000  0.14690000  1
  O  O93  1  0.33333333  0.66666667  0.25000000  1
  O  O94  1  0.22820000  0.43690000  0.34850000  1
  O  O95  1  0.22820000  0.43690000  0.15150000  1
  O  O96  1  0.20870000  0.77180000  0.34850000  1
  O  O97  1  0.20870000  0.77180000  0.15150000  1
  O  O98  1  0.11440000  0.51220000  0.35310000  1
  O  O99  1  0.11440000  0.51220000  0.14690000  1
