# generated using pymatgen
data_Cu2P2C5O6
_symmetry_space_group_name_H-M   'P 1'
_cell_length_a   4.35290000
_cell_length_b   6.76330000
_cell_length_c   22.37730000
_cell_angle_alpha   90.00000000
_cell_angle_beta   90.00000000
_cell_angle_gamma   90.00000000
_symmetry_Int_Tables_number   1
_chemical_formula_structural   Cu2P2C5O6
_chemical_formula_sum   'Cu4 P4 C10 O12'
_cell_volume   658.78700868
_cell_formula_units_Z   2
loop_
 _symmetry_equiv_pos_site_id
 _symmetry_equiv_pos_as_xyz
  1  'x, y, z'
loop_
 _atom_site_type_symbol
 _atom_site_label
 _atom_site_symmetry_multiplicity
 _atom_site_fract_x
 _atom_site_fract_y
 _atom_site_fract_z
 _atom_site_occupancy
  Cu  Cu0  1  0.00000000  0.00000000  0.00000000  1
  Cu  Cu1  1  1.00000000  0.50000000  0.00000000  1
  Cu  Cu2  1  0.00000000  0.00000000  0.50000000  1
  Cu  Cu3  1  1.00000000  0.50000000  0.50000000  1
  P  P4  1  0.50010000  0.25000000  0.93340000  1
  P  P5  1  0.50010000  0.25000000  0.56660000  1
  P  P6  1  0.49990000  0.75000000  0.43340000  1
  P  P7  1  0.49990000  0.75000000  0.06660000  1
  C  C8  1  0.69200000  0.25000000  0.86120000  1
  C  C9  1  0.45600000  0.25000000  0.80680000  1
  C  C10  1  0.63400000  0.25000000  0.75000000  1
  C  C11  1  0.45600000  0.25000000  0.69320000  1
  C  C12  1  0.69200000  0.25000000  0.63880000  1
  C  C13  1  0.30800000  0.75000000  0.36120000  1
  C  C14  1  0.54400000  0.75000000  0.30680000  1
  C  C15  1  0.36600000  0.75000000  0.25000000  1
  C  C16  1  0.54400000  0.75000000  0.19320000  1
  C  C17  1  0.30800000  0.75000000  0.13880000  1
  O  O18  1  0.76320000  0.25000000  0.98140000  1
  O  O19  1  0.30950000  0.43630000  0.94040000  1
  O  O20  1  0.30950000  0.06370000  0.94040000  1
  O  O21  1  0.30950000  0.43630000  0.55960000  1
  O  O22  1  0.30950000  0.06370000  0.55960000  1
  O  O23  1  0.76320000  0.25000000  0.51860000  1
  O  O24  1  0.23680000  0.75000000  0.48140000  1
  O  O25  1  0.69050000  0.93630000  0.44040000  1
  O  O26  1  0.69050000  0.56370000  0.44040000  1
  O  O27  1  0.69050000  0.93630000  0.05960000  1
  O  O28  1  0.69050000  0.56370000  0.05960000  1
  O  O29  1  0.23680000  0.75000000  0.01860000  1
