# generated using pymatgen
data_La2Cu7H32C42I6N7O16
_symmetry_space_group_name_H-M   'P 1'
_cell_length_a   7.12090000
_cell_length_b   18.30230000
_cell_length_c   24.98330000
_cell_angle_alpha   90.00000000
_cell_angle_beta   90.00000000
_cell_angle_gamma   99.60600000
_symmetry_Int_Tables_number   1
_chemical_formula_structural   La2Cu7H32C42I6N7O16
_chemical_formula_sum   'La4 Cu14 H64 C84 I12 N14 O32'
_cell_volume   3210.39029946
_cell_formula_units_Z   2
loop_
 _symmetry_equiv_pos_site_id
 _symmetry_equiv_pos_as_xyz
  1  'x, y, z'
loop_
 _atom_site_type_symbol
 _atom_site_label
 _atom_site_symmetry_multiplicity
 _atom_site_fract_x
 _atom_site_fract_y
 _atom_site_fract_z
 _atom_site_occupancy
  La  La0  1  0.27768000  0.48356000  0.09894000  1
  La  La1  1  0.27768000  0.48356000  0.40106000  1
  La  La2  1  0.72232000  0.51644000  0.59894000  1
  La  La3  1  0.72232000  0.51644000  0.90106000  1
  Cu  Cu4  1  0.12200000  0.95588000  0.00758000  1
  Cu  Cu5  1  0.12200000  0.95588000  0.49242000  1
  Cu  Cu6  1  0.24790000  0.94631000  0.68298000  1
  Cu  Cu7  1  0.24790000  0.94631000  0.81702000  1
  Cu  Cu8  1  0.26820000  0.06531000  0.75000000  1
  Cu  Cu9  1  0.32650000  0.06086000  0.58008000  1
  Cu  Cu10  1  0.32650000  0.06086000  0.91992000  1
  Cu  Cu11  1  0.67350000  0.93914000  0.08008000  1
  Cu  Cu12  1  0.67350000  0.93914000  0.41992000  1
  Cu  Cu13  1  0.73180000  0.93469000  0.25000000  1
  Cu  Cu14  1  0.75210000  0.05369000  0.18298000  1
  Cu  Cu15  1  0.75210000  0.05369000  0.31702000  1
  Cu  Cu16  1  0.87800000  0.04412000  0.50758000  1
  Cu  Cu17  1  0.87800000  0.04412000  0.99242000  1
  H  H18  1  0.08760000  0.85830000  0.10430000  1
  H  H19  1  0.08760000  0.85830000  0.39570000  1
  H  H20  1  0.09480000  0.78280000  0.67390000  1
  H  H21  1  0.09480000  0.78280000  0.82610000  1
  H  H22  1  0.11060000  0.73920000  0.12730000  1
  H  H23  1  0.11060000  0.73920000  0.37270000  1
  H  H24  1  0.11530000  0.89240000  0.25000000  1
  H  H25  1  0.11600000  0.55820000  0.60250000  1
  H  H26  1  0.11600000  0.55820000  0.89750000  1
  H  H27  1  0.11680000  0.56370000  0.54060000  1
  H  H28  1  0.11680000  0.56370000  0.95940000  1
  H  H29  1  0.17180000  0.81780000  0.54560000  1
  H  H30  1  0.17180000  0.81780000  0.95440000  1
  H  H31  1  0.19770000  0.69650000  0.52710000  1
  H  H32  1  0.19770000  0.69650000  0.97290000  1
  H  H33  1  0.20250000  0.67450000  0.65880000  1
  H  H34  1  0.20250000  0.67450000  0.84120000  1
  H  H35  1  0.24500000  0.33670000  0.75000000  1
  H  H36  1  0.26930000  0.79210000  0.25000000  1
  H  H37  1  0.27790000  0.21080000  0.13810000  1
  H  H38  1  0.27790000  0.21080000  0.36190000  1
  H  H39  1  0.30080000  0.28030000  0.03430000  1
  H  H40  1  0.30080000  0.28030000  0.46570000  1
  H  H41  1  0.30830000  0.16080000  0.01420000  1
  H  H42  1  0.30830000  0.16080000  0.48580000  1
  H  H43  1  0.38140000  0.23030000  0.75000000  1
  H  H44  1  0.39260000  0.20640000  0.63630000  1
  H  H45  1  0.39260000  0.20640000  0.86370000  1
  H  H46  1  0.39800000  0.10630000  0.15520000  1
  H  H47  1  0.39800000  0.10630000  0.34480000  1
  H  H48  1  0.39900000  0.33100000  0.62060000  1
  H  H49  1  0.39900000  0.33100000  0.87940000  1
  H  H50  1  0.60100000  0.66900000  0.12060000  1
  H  H51  1  0.60100000  0.66900000  0.37940000  1
  H  H52  1  0.60200000  0.89370000  0.65520000  1
  H  H53  1  0.60200000  0.89370000  0.84480000  1
  H  H54  1  0.60740000  0.79360000  0.13630000  1
  H  H55  1  0.60740000  0.79360000  0.36370000  1
  H  H56  1  0.61860000  0.76970000  0.25000000  1
  H  H57  1  0.69170000  0.83920000  0.51420000  1
  H  H58  1  0.69170000  0.83920000  0.98580000  1
  H  H59  1  0.69920000  0.71970000  0.53430000  1
  H  H60  1  0.69920000  0.71970000  0.96570000  1
  H  H61  1  0.72210000  0.78920000  0.63810000  1
  H  H62  1  0.72210000  0.78920000  0.86190000  1
  H  H63  1  0.73070000  0.20790000  0.75000000  1
  H  H64  1  0.75500000  0.66330000  0.25000000  1
  H  H65  1  0.79750000  0.32550000  0.15880000  1
  H  H66  1  0.79750000  0.32550000  0.34120000  1
  H  H67  1  0.80230000  0.30350000  0.02710000  1
  H  H68  1  0.80230000  0.30350000  0.47290000  1
  H  H69  1  0.82820000  0.18220000  0.04560000  1
  H  H70  1  0.82820000  0.18220000  0.45440000  1
  H  H71  1  0.88320000  0.43630000  0.04060000  1
  H  H72  1  0.88320000  0.43630000  0.45940000  1
  H  H73  1  0.88400000  0.44180000  0.10250000  1
  H  H74  1  0.88400000  0.44180000  0.39750000  1
  H  H75  1  0.88470000  0.10760000  0.75000000  1
  H  H76  1  0.88940000  0.26080000  0.62730000  1
  H  H77  1  0.88940000  0.26080000  0.87270000  1
  H  H78  1  0.90520000  0.21720000  0.17390000  1
  H  H79  1  0.90520000  0.21720000  0.32610000  1
  H  H80  1  0.91240000  0.14170000  0.60430000  1
  H  H81  1  0.91240000  0.14170000  0.89570000  1
  C  C82  1  0.03000000  0.71460000  0.25000000  1
  C  C83  1  0.04200000  0.84540000  0.25000000  1
  C  C84  1  0.10980000  0.82550000  0.07750000  1
  C  C85  1  0.10980000  0.82550000  0.42250000  1
  C  C86  1  0.12280000  0.75380000  0.09160000  1
  C  C87  1  0.12280000  0.75380000  0.40840000  1
  C  C88  1  0.13000000  0.64600000  0.25000000  1
  C  C89  1  0.13700000  0.78530000  0.25000000  1
  C  C90  1  0.15410000  0.70350000  0.05260000  1
  C  C91  1  0.15410000  0.70350000  0.44740000  1
  C  C92  1  0.15920000  0.80150000  0.51030000  1
  C  C93  1  0.15920000  0.80150000  0.98970000  1
  C  C94  1  0.16700000  0.29040000  0.75000000  1
  C  C95  1  0.17110000  0.62480000  0.06660000  1
  C  C96  1  0.17110000  0.62480000  0.43340000  1
  C  C97  1  0.17440000  0.72820000  0.00030000  1
  C  C98  1  0.17440000  0.72820000  0.49970000  1
  C  C99  1  0.22400000  0.78430000  0.66710000  1
  C  C100  1  0.22400000  0.78430000  0.83290000  1
  C  C101  1  0.24900000  0.22580000  0.75000000  1
  C  C102  1  0.28800000  0.71880000  0.65840000  1
  C  C103  1  0.28800000  0.71880000  0.84160000  1
  C  C104  1  0.32190000  0.26710000  0.50080000  1
  C  C105  1  0.32190000  0.26710000  0.99920000  1
  C  C106  1  0.32380000  0.19530000  0.51350000  1
  C  C107  1  0.32380000  0.19530000  0.98650000  1
  C  C108  1  0.35140000  0.32090000  0.54040000  1
  C  C109  1  0.35140000  0.32090000  0.95960000  1
  C  C110  1  0.35460000  0.40160000  0.52860000  1
  C  C111  1  0.35460000  0.40160000  0.97140000  1
  C  C112  1  0.37460000  0.22180000  0.60150000  1
  C  C113  1  0.37460000  0.22180000  0.89850000  1
  C  C114  1  0.37860000  0.29720000  0.59250000  1
  C  C115  1  0.37860000  0.29720000  0.90750000  1
  C  C116  1  0.40630000  0.21410000  0.14640000  1
  C  C117  1  0.40630000  0.21410000  0.35360000  1
  C  C118  1  0.44670000  0.35300000  0.13780000  1
  C  C119  1  0.44670000  0.35300000  0.36220000  1
  C  C120  1  0.47890000  0.71780000  0.64920000  1
  C  C121  1  0.47890000  0.71780000  0.85080000  1
  C  C122  1  0.48030000  0.15150000  0.15590000  1
  C  C123  1  0.48030000  0.15150000  0.34410000  1
  C  C124  1  0.51970000  0.84850000  0.65590000  1
  C  C125  1  0.51970000  0.84850000  0.84410000  1
  C  C126  1  0.52110000  0.28220000  0.14920000  1
  C  C127  1  0.52110000  0.28220000  0.35080000  1
  C  C128  1  0.55330000  0.64700000  0.63780000  1
  C  C129  1  0.55330000  0.64700000  0.86220000  1
  C  C130  1  0.59370000  0.78590000  0.64640000  1
  C  C131  1  0.59370000  0.78590000  0.85360000  1
  C  C132  1  0.62140000  0.70280000  0.09250000  1
  C  C133  1  0.62140000  0.70280000  0.40750000  1
  C  C134  1  0.62540000  0.77820000  0.10150000  1
  C  C135  1  0.62540000  0.77820000  0.39850000  1
  C  C136  1  0.64540000  0.59840000  0.02860000  1
  C  C137  1  0.64540000  0.59840000  0.47140000  1
  C  C138  1  0.64860000  0.67910000  0.04040000  1
  C  C139  1  0.64860000  0.67910000  0.45960000  1
  C  C140  1  0.67620000  0.80470000  0.01350000  1
  C  C141  1  0.67620000  0.80470000  0.48650000  1
  C  C142  1  0.67810000  0.73290000  0.00080000  1
  C  C143  1  0.67810000  0.73290000  0.49920000  1
  C  C144  1  0.71200000  0.28120000  0.15840000  1
  C  C145  1  0.71200000  0.28120000  0.34160000  1
  C  C146  1  0.75100000  0.77420000  0.25000000  1
  C  C147  1  0.77600000  0.21570000  0.16710000  1
  C  C148  1  0.77600000  0.21570000  0.33290000  1
  C  C149  1  0.82560000  0.27180000  0.50030000  1
  C  C150  1  0.82560000  0.27180000  0.99970000  1
  C  C151  1  0.82890000  0.37520000  0.56660000  1
  C  C152  1  0.82890000  0.37520000  0.93340000  1
  C  C153  1  0.83300000  0.70960000  0.25000000  1
  C  C154  1  0.84080000  0.19850000  0.01030000  1
  C  C155  1  0.84080000  0.19850000  0.48970000  1
  C  C156  1  0.84590000  0.29650000  0.55260000  1
  C  C157  1  0.84590000  0.29650000  0.94740000  1
  C  C158  1  0.86300000  0.21470000  0.75000000  1
  C  C159  1  0.87000000  0.35400000  0.75000000  1
  C  C160  1  0.87720000  0.24620000  0.59160000  1
  C  C161  1  0.87720000  0.24620000  0.90840000  1
  C  C162  1  0.89020000  0.17450000  0.57750000  1
  C  C163  1  0.89020000  0.17450000  0.92250000  1
  C  C164  1  0.95800000  0.15460000  0.75000000  1
  C  C165  1  0.97000000  0.28540000  0.75000000  1
  I  I166  1  0.00938000  0.02950000  0.08917000  1
  I  I167  1  0.00938000  0.02950000  0.41083000  1
  I  I168  1  0.02562000  0.05863000  0.25000000  1
  I  I169  1  0.48300000  0.94315000  0.17021000  1
  I  I170  1  0.48300000  0.94315000  0.32979000  1
  I  I171  1  0.50000000  0.00000000  0.00000000  1
  I  I172  1  0.50000000  0.00000000  0.50000000  1
  I  I173  1  0.51700000  0.05685000  0.67021000  1
  I  I174  1  0.51700000  0.05685000  0.82979000  1
  I  I175  1  0.97438000  0.94137000  0.75000000  1
  I  I176  1  0.99062000  0.97050000  0.58917000  1
  I  I177  1  0.99062000  0.97050000  0.91083000  1
  N  N178  1  0.12770000  0.84990000  0.02720000  1
  N  N179  1  0.12770000  0.84990000  0.47280000  1
  N  N180  1  0.14560000  0.15880000  0.75000000  1
  N  N181  1  0.33560000  0.84900000  0.66630000  1
  N  N182  1  0.33560000  0.84900000  0.83370000  1
  N  N183  1  0.34660000  0.17020000  0.56330000  1
  N  N184  1  0.34660000  0.17020000  0.93670000  1
  N  N185  1  0.65340000  0.82980000  0.06330000  1
  N  N186  1  0.65340000  0.82980000  0.43670000  1
  N  N187  1  0.66440000  0.15100000  0.16630000  1
  N  N188  1  0.66440000  0.15100000  0.33370000  1
  N  N189  1  0.85440000  0.84120000  0.25000000  1
  N  N190  1  0.87230000  0.15010000  0.52720000  1
  N  N191  1  0.87230000  0.15010000  0.97280000  1
  O  O192  1  0.02410000  0.58440000  0.25000000  1
  O  O193  1  0.06650000  0.55870000  0.57150000  1
  O  O194  1  0.06650000  0.55870000  0.92850000  1
  O  O195  1  0.16480000  0.60740000  0.11520000  1
  O  O196  1  0.16480000  0.60740000  0.38480000  1
  O  O197  1  0.20000000  0.58080000  0.03000000  1
  O  O198  1  0.20000000  0.58080000  0.47000000  1
  O  O199  1  0.26760000  0.34900000  0.13610000  1
  O  O200  1  0.26760000  0.34900000  0.36390000  1
  O  O201  1  0.29060000  0.41660000  0.01660000  1
  O  O202  1  0.29060000  0.41660000  0.48340000  1
  O  O203  1  0.30710000  0.65780000  0.25000000  1
  O  O204  1  0.41870000  0.44880000  0.56420000  1
  O  O205  1  0.41870000  0.44880000  0.93580000  1
  O  O206  1  0.43930000  0.58750000  0.63070000  1
  O  O207  1  0.43930000  0.58750000  0.86930000  1
  O  O208  1  0.56070000  0.41250000  0.13070000  1
  O  O209  1  0.56070000  0.41250000  0.36930000  1
  O  O210  1  0.58130000  0.55120000  0.06420000  1
  O  O211  1  0.58130000  0.55120000  0.43580000  1
  O  O212  1  0.69290000  0.34220000  0.75000000  1
  O  O213  1  0.70940000  0.58340000  0.51660000  1
  O  O214  1  0.70940000  0.58340000  0.98340000  1
  O  O215  1  0.73240000  0.65100000  0.63610000  1
  O  O216  1  0.73240000  0.65100000  0.86390000  1
  O  O217  1  0.80000000  0.41920000  0.53000000  1
  O  O218  1  0.80000000  0.41920000  0.97000000  1
  O  O219  1  0.83520000  0.39260000  0.61520000  1
  O  O220  1  0.83520000  0.39260000  0.88480000  1
  O  O221  1  0.93350000  0.44130000  0.07150000  1
  O  O222  1  0.93350000  0.44130000  0.42850000  1
  O  O223  1  0.97590000  0.41560000  0.75000000  1
