# generated using pymatgen
data_Mn3H36C41N8O9
_symmetry_space_group_name_H-M   'P 1'
_cell_length_a   17.60550000
_cell_length_b   29.98777484
_cell_length_c   29.98777484
_cell_angle_alpha   85.05678165
_cell_angle_beta   72.92971302
_cell_angle_gamma   72.92971302
_symmetry_Int_Tables_number   1
_chemical_formula_structural   Mn3H36C41N8O9
_chemical_formula_sum   'Mn24 H288 C328 N64 O72'
_cell_volume   14467.81666911
_cell_formula_units_Z   8
loop_
 _symmetry_equiv_pos_site_id
 _symmetry_equiv_pos_as_xyz
  1  'x, y, z'
loop_
 _atom_site_type_symbol
 _atom_site_label
 _atom_site_symmetry_multiplicity
 _atom_site_fract_x
 _atom_site_fract_y
 _atom_site_fract_z
 _atom_site_occupancy
  C  C0  1  0.98150000  0.60758000  0.38662000  1
  C  C1  1  0.02430000  0.10758000  0.88662000  1
  C  C2  1  0.92923000  0.90207000  0.07767000  1
  C  C3  1  0.09103000  0.40207000  0.57767000  1
  C  C4  1  0.88766000  0.55526000  0.41522000  1
  C  C5  1  0.14186000  0.05526000  0.91522000  1
  C  C6  1  0.73745000  0.49813000  0.45097000  1
  C  C7  1  0.31345000  0.99813000  0.95097000  1
  C  C8  1  0.13463000  0.93909000  0.00245000  1
  C  C9  1  0.92383000  0.43909000  0.50245000  1
  C  C10  1  0.43793000  0.94967000  0.96687000  1
  C  C11  1  0.64553000  0.44967000  0.46687000  1
  C  C12  1  0.72149000  0.45497000  0.44305000  1
  C  C13  1  0.38049000  0.95497000  0.94305000  1
  C  C14  1  0.20570000  0.44828000  0.43052000  1
  C  C15  1  0.91550000  0.94828000  0.93052000  1
  C  C16  1  0.12867000  0.91551000  0.96235000  1
  C  C17  1  0.99347000  0.41551000  0.46235000  1
  C  C18  1  0.42110000  0.45610000  0.41730000  1
  C  C19  1  0.70550000  0.95610000  0.91730000  1
  C  C20  1  0.17064000  0.47844000  0.39428000  1
  C  C21  1  0.95664000  0.97844000  0.89428000  1
  C  C22  1  0.50650000  0.90880000  0.96160000  1
  C  C23  1  0.62310000  0.40880000  0.46160000  1
  C  C24  1  0.22760000  0.49650000  0.35990000  1
  C  C25  1  0.91600000  0.99650000  0.85990000  1
  C  C26  1  0.80496000  0.82644000  0.02844000  1
  C  C27  1  0.34016000  0.32644000  0.52844000  1
  C  C28  1  0.76274000  0.79552000  0.05500000  1
  C  C29  1  0.38674000  0.29552000  0.55500000  1
  C  C30  1  0.78327000  0.41873000  0.41293000  1
  C  C31  1  0.38507000  0.91873000  0.91293000  1
  C  C32  1  0.48770000  0.45540000  0.37580000  1
  C  C33  1  0.68110000  0.95540000  0.87580000  1
  C  C34  1  0.88946000  0.80820000  0.00308000  1
  C  C35  1  0.29926000  0.30820000  0.50308000  1
  C  C36  1  0.93908000  0.83681000  0.97263000  1
  C  C37  1  0.25148000  0.33681000  0.47263000  1
  C  C38  1  0.14105000  0.55646000  0.25084000  1
  C  C39  1  0.05165000  0.05646000  0.75084000  1
  C  C40  1  0.50400000  0.87130000  0.93530000  1
  C  C41  1  0.68940000  0.37130000  0.43530000  1
  C  C42  1  0.80249000  0.74916000  0.05646000  1
  C  C43  1  0.39189000  0.24916000  0.55646000  1
  C  C44  1  0.08355000  0.53194000  0.26896000  1
  C  C45  1  0.11555000  0.03194000  0.76896000  1
  C  C46  1  0.76234000  0.88286000  0.91046000  1
  C  C47  1  0.44434000  0.38286000  0.41046000  1
  C  C48  1  0.44735000  0.87744000  0.91186000  1
  C  C49  1  0.76335000  0.37744000  0.41186000  1
  C  C50  1  0.54209000  0.41051000  0.35911000  1
  C  C51  1  0.68829000  0.91051000  0.85911000  1
  C  C52  1  0.92698000  0.76032000  0.00552000  1
  C  C53  1  0.30718000  0.26032000  0.50552000  1
  C  C54  1  0.88451000  0.73104000  0.03194000  1
  C  C55  1  0.35251000  0.23104000  0.53194000  1
  C  C56  1  0.18226000  0.55500000  0.20448000  1
  C  C57  1  0.05826000  0.05500000  0.70448000  1
  C  C58  1  0.06116000  0.40767000  0.34381000  1
  C  C59  1  0.18736000  0.90767000  0.84381000  1
  C  C60  1  0.66270000  0.43470000  0.31630000  1
  C  C61  1  0.58630000  0.93470000  0.81630000  1
  C  C62  1  0.51041000  0.37989000  0.37069000  1
  C  C63  1  0.73901000  0.87989000  0.87069000  1
  C  C64  1  0.06750000  0.50552000  0.23968000  1
  C  C65  1  0.18730000  0.00552000  0.73968000  1
  C  C66  1  0.26296000  0.80610000  0.92778000  1
  C  C67  1  0.00316000  0.30610000  0.42778000  1
  C  C68  1  0.61890000  0.40590000  0.31690000  1
  C  C69  1  0.65830000  0.90590000  0.81690000  1
  C  C70  1  0.91092000  0.61338000  0.10758000  1
  C  C71  1  0.36812000  0.11338000  0.60758000  1
  C  C72  1  0.32937000  0.77021000  0.93285000  1
  C  C73  1  0.96757000  0.27021000  0.43285000  1
  C  C74  1  0.74081000  0.42758000  0.27500000  1
  C  C75  1  0.55661000  0.92758000  0.77500000  1
  C  C76  1  0.16660000  0.52844000  0.17356000  1
  C  C77  1  0.13140000  0.02844000  0.67356000  1
  C  C78  1  0.81706000  0.41630000  0.28258000  1
  C  C79  1  0.48406000  0.91630000  0.78258000  1
  C  C80  1  0.10746000  0.50308000  0.19180000  1
  C  C81  1  0.19766000  0.00308000  0.69180000  1
  C  C82  1  0.13010000  0.37967000  0.30673000  1
  C  C83  1  0.18350000  0.87967000  0.80673000  1
  C  C84  1  0.99310000  0.57767000  0.09793000  1
  C  C85  1  0.33130000  0.07767000  0.59793000  1
  C  C86  1  0.20195333  0.75436667  0.91232667  1
  C  C87  1  0.13135333  0.25436667  0.41232667  1
  C  C88  1  0.20215000  0.34817000  0.31593000  1
  C  C89  1  0.13375000  0.84817000  0.81593000  1
  C  C90  1  0.73778000  0.43285000  0.22979000  1
  C  C91  1  0.59958000  0.93285000  0.72979000  1
  C  C92  1  0.88572000  0.41234000  0.24562000  1
  C  C93  1  0.45632000  0.91234000  0.74562000  1
  C  C94  1  0.33161000  0.72500000  0.92758000  1
  C  C95  1  0.01581000  0.22500000  0.42758000  1
  C  C96  1  0.12438000  0.38459000  0.26105000  1
  C  C97  1  0.22998000  0.88459000  0.76105000  1
  C  C98  1  0.05708000  0.58478000  0.05526000  1
  C  C99  1  0.30288000  0.08478000  0.55526000  1
  C  C100  1  0.77590000  0.64010000  0.99650000  1
  C  C101  1  0.58750000  0.14010000  0.49650000  1
  C  C102  1  0.08829000  0.47263000  0.16319000  1
  C  C103  1  0.27589000  0.97263000  0.66319000  1
  C  C104  1  0.95575000  0.77533000  0.85877000  1
  C  C105  1  0.41015000  0.27533000  0.35877000  1
  C  C106  1  0.26664000  0.71742000  0.91630000  1
  C  C107  1  0.09964000  0.21742000  0.41630000  1
  C  C108  1  0.99103000  0.73895000  0.88459000  1
  C  C109  1  0.38543000  0.23895000  0.38459000  1
  C  C110  1  0.80926000  0.42778000  0.19390000  1
  C  C111  1  0.56906000  0.92778000  0.69390000  1
  C  C112  1  0.40260000  0.68370000  0.93470000  1
  C  C113  1  0.97900000  0.18370000  0.43470000  1
  C  C114  1  0.26258000  0.32312000  0.27832000  1
  C  C115  1  0.13598000  0.82312000  0.77832000  1
  C  C116  1  0.91629000  0.76600000  0.82882000  1
  C  C117  1  0.48889000  0.26600000  0.32882000  1
  C  C118  1  0.47520000  0.68310000  0.90590000  1
  C  C119  1  0.93580000  0.18310000  0.40590000  1
  C  C120  1  0.85092000  0.60572000  0.97844000  1
  C  C121  1  0.56492000  0.10572000  0.47844000  1
  C  C122  1  0.18548000  0.35877000  0.22467000  1
  C  C123  1  0.23108000  0.85877000  0.72467000  1
  C  C124  1  0.55690000  0.62420000  0.95540000  1
  C  C125  1  0.86350000  0.12420000  0.45540000  1
  C  C126  1  0.99023000  0.69327000  0.87967000  1
  C  C127  1  0.43683000  0.19327000  0.37967000  1
  C  C128  1  0.56070000  0.43530000  0.12870000  1
  C  C129  1  0.87530000  0.93530000  0.62870000  1
  C  C130  1  0.03117000  0.65619000  0.90767000  1
  C  C131  1  0.40497000  0.15619000  0.40767000  1
  C  C132  1  0.86292000  0.50245000  0.06091000  1
  C  C133  1  0.57372000  0.00245000  0.56091000  1
  C  C134  1  0.25489000  0.32882000  0.23400000  1
  C  C135  1  0.18229000  0.82882000  0.73400000  1
  C  C136  1  0.53190000  0.46160000  0.09120000  1
  C  C137  1  0.91530000  0.96160000  0.59120000  1
  C  C138  1  0.54740000  0.64089000  0.91051000  1
  C  C139  1  0.90120000  0.14089000  0.41051000  1
  C  C140  1  0.26442000  0.54903000  0.99813000  1
  C  C141  1  0.18842000  0.04903000  0.49813000  1
  C  C142  1  0.90898000  0.46235000  0.08449000  1
  C  C143  1  0.54418000  0.96235000  0.58449000  1
  C  C144  1  0.91430000  0.72168000  0.82312000  1
  C  C145  1  0.54090000  0.22168000  0.32312000  1
  C  C146  1  0.62280000  0.58270000  0.95610000  1
  C  C147  1  0.83840000  0.08270000  0.45610000  1
  C  C148  1  0.64079000  0.41186000  0.12256000  1
  C  C149  1  0.82479000  0.91186000  0.62256000  1
  C  C150  1  0.94968000  0.68407000  0.84817000  1
  C  C151  1  0.51808000  0.18407000  0.34817000  1
  C  C152  1  0.32720000  0.41046000  0.11714000  1
  C  C153  1  0.14520000  0.91046000  0.61714000  1
  C  C154  1  0.84602000  0.56948000  0.94828000  1
  C  C155  1  0.63622000  0.06948000  0.44828000  1
  C  C156  1  0.59520000  0.46687000  0.05033000  1
  C  C157  1  0.88760000  0.96687000  0.55033000  1
  C  C158  1  0.32354000  0.55695000  0.95497000  1
  C  C159  1  0.16454000  0.05695000  0.45497000  1
  C  C160  1  0.60970000  0.62931000  0.87989000  1
  C  C161  1  0.88110000  0.12931000  0.37989000  1
  C  C162  1  0.29800000  0.58707000  0.91873000  1
  C  C163  1  0.19620000  0.08707000  0.41873000  1
  C  C164  1  0.70200000  0.41293000  0.08127000  1
  C  C165  1  0.80380000  0.91293000  0.58127000  1
  C  C166  1  0.39030000  0.37069000  0.12011000  1
  C  C167  1  0.11890000  0.87069000  0.62011000  1
  C  C168  1  0.67646000  0.44305000  0.04503000  1
  C  C169  1  0.83546000  0.94305000  0.54503000  1
  C  C170  1  0.40480000  0.53313000  0.94967000  1
  C  C171  1  0.11240000  0.03313000  0.44967000  1
  C  C172  1  0.15398000  0.43052000  0.05172000  1
  C  C173  1  0.36378000  0.93052000  0.55172000  1
  C  C174  1  0.67280000  0.58954000  0.88286000  1
  C  C175  1  0.85480000  0.08954000  0.38286000  1
  C  C176  1  0.05032000  0.31593000  0.15183000  1
  C  C177  1  0.48192000  0.81593000  0.65183000  1
  C  C178  1  0.35921000  0.58814000  0.87744000  1
  C  C179  1  0.17521000  0.08814000  0.37744000  1
  C  C180  1  0.37720000  0.41730000  0.04390000  1
  C  C181  1  0.16160000  0.91730000  0.54390000  1
  C  C182  1  0.08570000  0.27832000  0.17688000  1
  C  C183  1  0.45910000  0.77832000  0.67688000  1
  C  C184  1  0.09102000  0.53765000  0.91551000  1
  C  C185  1  0.45582000  0.03765000  0.41551000  1
  C  C186  1  0.73558000  0.45097000  0.00187000  1
  C  C187  1  0.81158000  0.95097000  0.50187000  1
  C  C188  1  0.45260000  0.35911000  0.08949000  1
  C  C189  1  0.09880000  0.85911000  0.58949000  1
  C  C190  1  0.46810000  0.53840000  0.90880000  1
  C  C191  1  0.08470000  0.03840000  0.40880000  1
  C  C192  1  0.74511000  0.67118000  0.76600000  1
  C  C193  1  0.81771000  0.17118000  0.26600000  1
  C  C194  1  0.13708000  0.49755000  0.93909000  1
  C  C195  1  0.42628000  0.99755000  0.43909000  1
  C  C196  1  0.96883000  0.34381000  0.09233000  1
  C  C197  1  0.59503000  0.84381000  0.59233000  1
  C  C198  1  0.43930000  0.56470000  0.87130000  1
  C  C199  1  0.12470000  0.06470000  0.37130000  1
  C  C200  1  0.00977000  0.30673000  0.12033000  1
  C  C201  1  0.56317000  0.80673000  0.62033000  1
  C  C202  1  0.44310000  0.37580000  0.04460000  1
  C  C203  1  0.13650000  0.87580000  0.54460000  1
  C  C204  1  0.81452000  0.64123000  0.77533000  1
  C  C205  1  0.76892000  0.14123000  0.27533000  1
  C  C206  1  0.14908000  0.39428000  0.02156000  1
  C  C207  1  0.43508000  0.89428000  0.52156000  1
  C  C208  1  0.52480000  0.31690000  0.09410000  1
  C  C209  1  0.06420000  0.81690000  0.59410000  1
  C  C210  1  0.08371000  0.23400000  0.17118000  1
  C  C211  1  0.51111000  0.73400000  0.67118000  1
  C  C212  1  0.73742000  0.67688000  0.72168000  1
  C  C213  1  0.86402000  0.17688000  0.22168000  1
  C  C214  1  0.59740000  0.31630000  0.06530000  1
  C  C215  1  0.02100000  0.81630000  0.56530000  1
  C  C216  1  0.19074000  0.57222000  0.80610000  1
  C  C217  1  0.43094000  0.07222000  0.30610000  1
  C  C218  1  0.00897000  0.26105000  0.11541000  1
  C  C219  1  0.61457000  0.76105000  0.61541000  1
  C  C220  1  0.73336000  0.28258000  0.08370000  1
  C  C221  1  0.90036000  0.78258000  0.58370000  1
  C  C222  1  0.04425000  0.22467000  0.14123000  1
  C  C223  1  0.58985000  0.72467000  0.64123000  1
  C  C224  1  0.91171000  0.52737000  0.83681000  1
  C  C225  1  0.72411000  0.02737000  0.33681000  1
  C  C226  1  0.22410000  0.35990000  0.00350000  1
  C  C227  1  0.41250000  0.85990000  0.50350000  1
  C  C228  1  0.94292000  0.41522000  0.94474000  1
  C  C229  1  0.69712000  0.91522000  0.44474000  1
  C  C230  1  0.87562000  0.61541000  0.73895000  1
  C  C231  1  0.77002000  0.11541000  0.23895000  1
  C  C232  1  0.66839000  0.27500000  0.07242000  1
  C  C233  1  0.98419000  0.77500000  0.57242000  1
  C  C234  1  0.11428000  0.58766000  0.75438000  1
  C  C235  1  0.54368000  0.08766000  0.25438000  1
  C  C236  1  0.26222000  0.56715000  0.77021000  1
  C  C237  1  0.40042000  0.06715000  0.27021000  1
  C  C238  1  0.79785000  0.65183000  0.68407000  1
  C  C239  1  0.86625000  0.15183000  0.18407000  1
  C  C240  1  0.79804667  0.24563333  0.08767333  1
  C  C241  1  0.86864667  0.74563333  0.58767333  1
  C  C242  1  0.00690000  0.42233000  0.90207000  1
  C  C243  1  0.66870000  0.92233000  0.40207000  1
  C  C244  1  0.86990000  0.62033000  0.69327000  1
  C  C245  1  0.81650000  0.12033000  0.19327000  1
  C  C246  1  0.89254000  0.49692000  0.80820000  1
  C  C247  1  0.80234000  0.99692000  0.30820000  1
  C  C248  1  0.18294000  0.58370000  0.71742000  1
  C  C249  1  0.51594000  0.08370000  0.21742000  1
  C  C250  1  0.83340000  0.47156000  0.82644000  1
  C  C251  1  0.86860000  0.97156000  0.32644000  1
  C  C252  1  0.25919000  0.57242000  0.72500000  1
  C  C253  1  0.44339000  0.07242000  0.22500000  1
  C  C254  1  0.67063000  0.22979000  0.06715000  1
  C  C255  1  0.03243000  0.72979000  0.56715000  1
  C  C256  1  0.08908000  0.38662000  0.89242000  1
  C  C257  1  0.63188000  0.88662000  0.39242000  1
  C  C258  1  0.38110000  0.59410000  0.68310000  1
  C  C259  1  0.34170000  0.09410000  0.18310000  1
  C  C260  1  0.73704000  0.19390000  0.07222000  1
  C  C261  1  0.99684000  0.69390000  0.57222000  1
  C  C262  1  0.93250000  0.49448000  0.76032000  1
  C  C263  1  0.81270000  0.99448000  0.26032000  1
  C  C264  1  0.48959000  0.62011000  0.62931000  1
  C  C265  1  0.26099000  0.12011000  0.12931000  1
  C  C266  1  0.33730000  0.56530000  0.68370000  1
  C  C267  1  0.41370000  0.06530000  0.18370000  1
  C  C268  1  0.93884000  0.59233000  0.65619000  1
  C  C269  1  0.81264000  0.09233000  0.15619000  1
  C  C270  1  0.81774000  0.44500000  0.79552000  1
  C  C271  1  0.94174000  0.94500000  0.29552000  1
  C  C272  1  0.11549000  0.26896000  0.96806000  1
  C  C273  1  0.64749000  0.76896000  0.46806000  1
  C  C274  1  0.07302000  0.23968000  0.99448000  1
  C  C275  1  0.69282000  0.73968000  0.49448000  1
  C  C276  1  0.45791000  0.58949000  0.64089000  1
  C  C277  1  0.31171000  0.08949000  0.14089000  1
  C  C278  1  0.55265000  0.12256000  0.08814000  1
  C  C279  1  0.23665000  0.62256000  0.58814000  1
  C  C280  1  0.23766000  0.11714000  0.08954000  1
  C  C281  1  0.55566000  0.61714000  0.58954000  1
  C  C282  1  0.91645000  0.46806000  0.73104000  1
  C  C283  1  0.88445000  0.96806000  0.23104000  1
  C  C284  1  0.19751000  0.25084000  0.94354000  1
  C  C285  1  0.60811000  0.75084000  0.44354000  1
  C  C286  1  0.49600000  0.12870000  0.06470000  1
  C  C287  1  0.31060000  0.62870000  0.56470000  1
  C  C288  1  0.85895000  0.44354000  0.74916000  1
  C  C289  1  0.94835000  0.94354000  0.24916000  1
  C  C290  1  0.06092000  0.16319000  0.02737000  1
  C  C291  1  0.74852000  0.66319000  0.52737000  1
  C  C292  1  0.11054000  0.19180000  0.99692000  1
  C  C293  1  0.70074000  0.69180000  0.49692000  1
  C  C294  1  0.51230000  0.54460000  0.62420000  1
  C  C295  1  0.31890000  0.04460000  0.12420000  1
  C  C296  1  0.21673000  0.58127000  0.58707000  1
  C  C297  1  0.61493000  0.08127000  0.08707000  1
  C  C298  1  0.23726000  0.20448000  0.94500000  1
  C  C299  1  0.61326000  0.70448000  0.44500000  1
  C  C300  1  0.19504000  0.17356000  0.97156000  1
  C  C301  1  0.65984000  0.67356000  0.47156000  1
  C  C302  1  0.77240000  0.50350000  0.64010000  1
  C  C303  1  0.08400000  0.00350000  0.14010000  1
  C  C304  1  0.49350000  0.09120000  0.03840000  1
  C  C305  1  0.37690000  0.59120000  0.53840000  1
  C  C306  1  0.82936000  0.52156000  0.60572000  1
  C  C307  1  0.04336000  0.02156000  0.10572000  1
  C  C308  1  0.57890000  0.54390000  0.58270000  1
  C  C309  1  0.29450000  0.04390000  0.08270000  1
  C  C310  1  0.87133000  0.08449000  0.03765000  1
  C  C311  1  0.00653000  0.58449000  0.53765000  1
  C  C312  1  0.79430000  0.55172000  0.56948000  1
  C  C313  1  0.08450000  0.05172000  0.06948000  1
  C  C314  1  0.27851000  0.54503000  0.55695000  1
  C  C315  1  0.61951000  0.04503000  0.05695000  1
  C  C316  1  0.56207000  0.05033000  0.03313000  1
  C  C317  1  0.35447000  0.55033000  0.53313000  1
  C  C318  1  0.86537000  0.06091000  0.99755000  1
  C  C319  1  0.07617000  0.56091000  0.49755000  1
  C  C320  1  0.26255000  0.50187000  0.54903000  1
  C  C321  1  0.68655000  0.00187000  0.04903000  1
  C  C322  1  0.11234000  0.44474000  0.58478000  1
  C  C323  1  0.85814000  0.94474000  0.08478000  1
  C  C324  1  0.07077000  0.09793000  0.92233000  1
  C  C325  1  0.90897000  0.59793000  0.42233000  1
  C  C326  1  0.01850000  0.39242000  0.61338000  1
  C  C327  1  0.97570000  0.89242000  0.11338000  1
  H  H328  1  0.08060000  0.94740000  0.02660000  1
  H  H329  1  0.94540000  0.44740000  0.52660000  1
  H  H330  1  0.03210000  0.58330000  0.38810000  1
  H  H331  1  0.99650000  0.08330000  0.88810000  1
  H  H332  1  0.01710000  0.86190000  0.10730000  1
  H  H333  1  0.01370000  0.36190000  0.60730000  1
  H  H334  1  0.97390000  0.60770000  0.35550000  1
  H  H335  1  0.06290000  0.10770000  0.85550000  1
  H  H336  1  0.43200000  0.97350000  0.98750000  1
  H  H337  1  0.60700000  0.47350000  0.48750000  1
  H  H338  1  0.15100000  0.96800000  0.99200000  1
  H  H339  1  0.88900000  0.46800000  0.49200000  1
  H  H340  1  0.90860000  0.87490000  0.07650000  1
  H  H341  1  0.14000000  0.37490000  0.57650000  1
  H  H342  1  0.96850000  0.90440000  0.04680000  1
  H  H343  1  0.08030000  0.40440000  0.54680000  1
  H  H344  1  0.38560000  0.48510000  0.43110000  1
  H  H345  1  0.69820000  0.98510000  0.93110000  1
  H  H346  1  0.12430000  0.50490000  0.41030000  1
  H  H347  1  0.96050000  0.00490000  0.91030000  1
  H  H348  1  0.21600000  0.52990000  0.36530000  1
  H  H349  1  0.88880000  0.02990000  0.86530000  1
  H  H350  1  0.55090000  0.90640000  0.97440000  1
  H  H351  1  0.56830000  0.40640000  0.47440000  1
  H  H352  1  0.70620000  0.80700000  0.07200000  1
  H  H353  1  0.41480000  0.30700000  0.57200000  1
  H  H354  1  0.15220000  0.57480000  0.27120000  1
  H  H355  1  0.00180000  0.07480000  0.77120000  1
  H  H356  1  0.49530000  0.48350000  0.36010000  1
  H  H357  1  0.66110000  0.98350000  0.86010000  1
  H  H358  1  0.28390000  0.48030000  0.36130000  1
  H  H359  1  0.87450000  0.98030000  0.86130000  1
  H  H360  1  0.14760000  0.45980000  0.37880000  1
  H  H361  1  0.01380000  0.95980000  0.87880000  1
  H  H362  1  0.05530000  0.53340000  0.30140000  1
  H  H363  1  0.10990000  0.03340000  0.80140000  1
  H  H364  1  0.22260000  0.49180000  0.32900000  1
  H  H365  1  0.95660000  0.99180000  0.82900000  1
  H  H366  1  0.77300000  0.72880000  0.07480000  1
  H  H367  1  0.42340000  0.22880000  0.57480000  1
  H  H368  1  0.62740000  0.46710000  0.31530000  1
  H  H369  1  0.59020000  0.96710000  0.81530000  1
  H  H370  1  0.67890000  0.43100000  0.34560000  1
  H  H371  1  0.54450000  0.93100000  0.84560000  1
  H  H372  1  0.54330000  0.84170000  0.93470000  1
  H  H373  1  0.68030000  0.34170000  0.43470000  1
  H  H374  1  0.80200000  0.85590000  0.91710000  1
  H  H375  1  0.42500000  0.35590000  0.41710000  1
  H  H376  1  0.26300000  0.83730000  0.93110000  1
  H  H377  1  0.96860000  0.33730000  0.43110000  1
  H  H378  1  0.22180000  0.57200000  0.19300000  1
  H  H379  1  0.01320000  0.07200000  0.69300000  1
  H  H380  1  0.91840000  0.64450000  0.10770000  1
  H  H381  1  0.32940000  0.14450000  0.60770000  1
  H  H382  1  0.45010000  0.85230000  0.89370000  1
  H  H383  1  0.80390000  0.35230000  0.39370000  1
  H  H384  1  0.87560000  0.60730000  0.13810000  1
  H  H385  1  0.37900000  0.10730000  0.63810000  1
  H  H386  1  0.02830000  0.48840000  0.25220000  1
  H  H387  1  0.23110000  0.98840000  0.75220000  1
  H  H388  1  0.98330000  0.74780000  0.98840000  1
  H  H389  1  0.28050000  0.24780000  0.48840000  1
  H  H390  1  0.91130000  0.69860000  0.03340000  1
  H  H391  1  0.35670000  0.19860000  0.53340000  1
  H  H392  1  0.82210000  0.41120000  0.31340000  1
  H  H393  1  0.45330000  0.91120000  0.81340000  1
  H  H394  1  0.37390000  0.77690000  0.94010000  1
  H  H395  1  0.90910000  0.27690000  0.44010000  1
  H  H396  1  0.53080000  0.35250000  0.35210000  1
  H  H397  1  0.76460000  0.85250000  0.85210000  1
  H  H398  1  0.01490000  0.57650000  0.12510000  1
  H  H399  1  0.28350000  0.07650000  0.62510000  1
  H  H400  1  0.60080000  0.41070000  0.28810000  1
  H  H401  1  0.70040000  0.91070000  0.78810000  1
  H  H402  1  0.88460000  0.61190000  0.08330000  1
  H  H403  1  0.42020000  0.11190000  0.58330000  1
  H  H404  1  0.65530000  0.37360000  0.31600000  1
  H  H405  1  0.65510000  0.87360000  0.81600000  1
  H  H406  1  0.95860000  0.80610000  0.86170000  1
  H  H407  1  0.37360000  0.30610000  0.36170000  1
  H  H408  1  0.75410000  0.63470000  0.02990000  1
  H  H409  1  0.58130000  0.13470000  0.52990000  1
  H  H410  1  0.68600000  0.44010000  0.22310000  1
  H  H411  1  0.65080000  0.94010000  0.72310000  1
  H  H412  1  0.78560000  0.67100000  0.99180000  1
  H  H413  1  0.55160000  0.17100000  0.49180000  1
  H  H414  1  0.07720000  0.40630000  0.25470000  1
  H  H415  1  0.26180000  0.90630000  0.75470000  1
  H  H416  1  0.93810000  0.40490000  0.25170000  1
  H  H417  1  0.40530000  0.90490000  0.75170000  1
  H  H418  1  0.15700000  0.74830000  0.90490000  1
  H  H419  1  0.18980000  0.24830000  0.40490000  1
  H  H420  1  0.40550000  0.68470000  0.96710000  1
  H  H421  1  0.94270000  0.18470000  0.46710000  1
  H  H422  1  0.01650000  0.74530000  0.90630000  1
  H  H423  1  0.33190000  0.24530000  0.40630000  1
  H  H424  1  0.98470000  0.54680000  0.09560000  1
  H  H425  1  0.37290000  0.04680000  0.59560000  1
  H  H426  1  0.52120000  0.63990000  0.98350000  1
  H  H427  1  0.85540000  0.13990000  0.48350000  1
  H  H428  1  0.48850000  0.71190000  0.91070000  1
  H  H429  1  0.88890000  0.21190000  0.41070000  1
  H  H430  1  0.73580000  0.63870000  0.98030000  1
  H  H431  1  0.64520000  0.13870000  0.48030000  1
  H  H432  1  0.89000000  0.79080000  0.81180000  1
  H  H433  1  0.50740000  0.29080000  0.31180000  1
  H  H434  1  0.26670000  0.68660000  0.91120000  1
  H  H435  1  0.13550000  0.18660000  0.41120000  1
  H  H436  1  0.87080000  0.58970000  0.00490000  1
  H  H437  1  0.53460000  0.08970000  0.50490000  1
  H  H438  1  0.80590000  0.43110000  0.16270000  1
  H  H439  1  0.60030000  0.93110000  0.66270000  1
  H  H440  1  0.52200000  0.43470000  0.15830000  1
  H  H441  1  0.88500000  0.93470000  0.65830000  1
  H  H442  1  0.39010000  0.65440000  0.93100000  1
  H  H443  1  0.02450000  0.15440000  0.43100000  1
  H  H444  1  0.31070000  0.30140000  0.28360000  1
  H  H445  1  0.10430000  0.80140000  0.78360000  1
  H  H446  1  0.89260000  0.62120000  0.95980000  1
  H  H447  1  0.52640000  0.12120000  0.45980000  1
  H  H448  1  0.89280000  0.52660000  0.05260000  1
  H  H449  1  0.52800000  0.02660000  0.55260000  1
  H  H450  1  0.47470000  0.47440000  0.09360000  1
  H  H451  1  0.95730000  0.97440000  0.59360000  1
  H  H452  1  0.28090000  0.41710000  0.14410000  1
  H  H453  1  0.15790000  0.91710000  0.64410000  1
  H  H454  1  0.47110000  0.68400000  0.87360000  1
  H  H455  1  0.97130000  0.18400000  0.37360000  1
  H  H456  1  0.17970000  0.36170000  0.19390000  1
  H  H457  1  0.26470000  0.86170000  0.69390000  1
  H  H458  1  0.62930000  0.56890000  0.98510000  1
  H  H459  1  0.81670000  0.06890000  0.48510000  1
  H  H460  1  0.65620000  0.39370000  0.14770000  1
  H  H461  1  0.80240000  0.89370000  0.64770000  1
  H  H462  1  0.85700000  0.49200000  0.03200000  1
  H  H463  1  0.61900000  0.99200000  0.53200000  1
  H  H464  1  0.29820000  0.31180000  0.20920000  1
  H  H465  1  0.18080000  0.81180000  0.70920000  1
  H  H466  1  0.88790000  0.71640000  0.80140000  1
  H  H467  1  0.59430000  0.21640000  0.30140000  1
  H  H468  1  0.58050000  0.48750000  0.02650000  1
  H  H469  1  0.90550000  0.98750000  0.52650000  1
  H  H470  1  0.61670000  0.64790000  0.85250000  1
  H  H471  1  0.88290000  0.14790000  0.35250000  1
  H  H472  1  0.38330000  0.35210000  0.14750000  1
  H  H473  1  0.11710000  0.85210000  0.64750000  1
  H  H474  1  0.41950000  0.51250000  0.97350000  1
  H  H475  1  0.09450000  0.01250000  0.47350000  1
  H  H476  1  0.11210000  0.28360000  0.19860000  1
  H  H477  1  0.40570000  0.78360000  0.69860000  1
  H  H478  1  0.70180000  0.68820000  0.79080000  1
  H  H479  1  0.81920000  0.18820000  0.29080000  1
  H  H480  1  0.14300000  0.50800000  0.96800000  1
  H  H481  1  0.38100000  0.00800000  0.46800000  1
  H  H482  1  0.34380000  0.60630000  0.85230000  1
  H  H483  1  0.19760000  0.10630000  0.35230000  1
  H  H484  1  0.37070000  0.43110000  0.01490000  1
  H  H485  1  0.18330000  0.93110000  0.51490000  1
  H  H486  1  0.82030000  0.63830000  0.80610000  1
  H  H487  1  0.73530000  0.13830000  0.30610000  1
  H  H488  1  0.52890000  0.31600000  0.12640000  1
  H  H489  1  0.02870000  0.81600000  0.62640000  1
  H  H490  1  0.71910000  0.58290000  0.85590000  1
  H  H491  1  0.84210000  0.08290000  0.35590000  1
  H  H492  1  0.52530000  0.52560000  0.90640000  1
  H  H493  1  0.04270000  0.02560000  0.40640000  1
  H  H494  1  0.10720000  0.47340000  0.94740000  1
  H  H495  1  0.47200000  0.97340000  0.44740000  1
  H  H496  1  0.10740000  0.37880000  0.04020000  1
  H  H497  1  0.47360000  0.87880000  0.54020000  1
  H  H498  1  0.68930000  0.69860000  0.71640000  1
  H  H499  1  0.89570000  0.19860000  0.21640000  1
  H  H500  1  0.60990000  0.34560000  0.06900000  1
  H  H501  1  0.97550000  0.84560000  0.56900000  1
  H  H502  1  0.47800000  0.56530000  0.84170000  1
  H  H503  1  0.11500000  0.06530000  0.34170000  1
  H  H504  1  0.19410000  0.56890000  0.83730000  1
  H  H505  1  0.39970000  0.06890000  0.33730000  1
  H  H506  1  0.12920000  0.41030000  0.99510000  1
  H  H507  1  0.46540000  0.91030000  0.49510000  1
  H  H508  1  0.73330000  0.31340000  0.08880000  1
  H  H509  1  0.86450000  0.81340000  0.58880000  1
  H  H510  1  0.11000000  0.20920000  0.18820000  1
  H  H511  1  0.49260000  0.70920000  0.68820000  1
  H  H512  1  0.26420000  0.36130000  0.01970000  1
  H  H513  1  0.35480000  0.86130000  0.51970000  1
  H  H514  1  0.51150000  0.28810000  0.08930000  1
  H  H515  1  0.11110000  0.78810000  0.58930000  1
  H  H516  1  0.47880000  0.36010000  0.01650000  1
  H  H517  1  0.14460000  0.86010000  0.51650000  1
  H  H518  1  0.01530000  0.45320000  0.90440000  1
  H  H519  1  0.62710000  0.95320000  0.40440000  1
  H  H520  1  0.98350000  0.25470000  0.09370000  1
  H  H521  1  0.66810000  0.75470000  0.59370000  1
  H  H522  1  0.59450000  0.31530000  0.03290000  1
  H  H523  1  0.05730000  0.81530000  0.53290000  1
  H  H524  1  0.84300000  0.25170000  0.09510000  1
  H  H525  1  0.81020000  0.75170000  0.59510000  1
  H  H526  1  0.06190000  0.59510000  0.74830000  1
  H  H527  1  0.59470000  0.09510000  0.24830000  1
  H  H528  1  0.92280000  0.59370000  0.74530000  1
  H  H529  1  0.73820000  0.09370000  0.24530000  1
  H  H530  1  0.21440000  0.32900000  0.00820000  1
  H  H531  1  0.44840000  0.82900000  0.50820000  1
  H  H532  1  0.31400000  0.55990000  0.77690000  1
  H  H533  1  0.34920000  0.05990000  0.27690000  1
  H  H534  1  0.24590000  0.36530000  0.97010000  1
  H  H535  1  0.41870000  0.86530000  0.47010000  1
  H  H536  1  0.04140000  0.19390000  0.13830000  1
  H  H537  1  0.62640000  0.69390000  0.63830000  1
  H  H538  1  0.34470000  0.62640000  0.68400000  1
  H  H539  1  0.34490000  0.12640000  0.18400000  1
  H  H540  1  0.11540000  0.38810000  0.91670000  1
  H  H541  1  0.57980000  0.88810000  0.41670000  1
  H  H542  1  0.39920000  0.58930000  0.71190000  1
  H  H543  1  0.29960000  0.08930000  0.21190000  1
  H  H544  1  0.98510000  0.42350000  0.87490000  1
  H  H545  1  0.71650000  0.92350000  0.37490000  1
  H  H546  1  0.46920000  0.64750000  0.64790000  1
  H  H547  1  0.23540000  0.14750000  0.14790000  1
  H  H548  1  0.62610000  0.22310000  0.05990000  1
  H  H549  1  0.09090000  0.72310000  0.55990000  1
  H  H550  1  0.17790000  0.58880000  0.68660000  1
  H  H551  1  0.54670000  0.08880000  0.18660000  1
  H  H552  1  0.08870000  0.30140000  0.96660000  1
  H  H553  1  0.64330000  0.80140000  0.46660000  1
  H  H554  1  0.01670000  0.25220000  0.01160000  1
  H  H555  1  0.71950000  0.75220000  0.51160000  1
  H  H556  1  0.97170000  0.51160000  0.74780000  1
  H  H557  1  0.76890000  0.01160000  0.24780000  1
  H  H558  1  0.12440000  0.39270000  0.86190000  1
  H  H559  1  0.62100000  0.89270000  0.36190000  1
  H  H560  1  0.54990000  0.14770000  0.10630000  1
  H  H561  1  0.19610000  0.64770000  0.60630000  1
  H  H562  1  0.08160000  0.35550000  0.89230000  1
  H  H563  1  0.67060000  0.85550000  0.39230000  1
  H  H564  1  0.77820000  0.42800000  0.80700000  1
  H  H565  1  0.98680000  0.92800000  0.30700000  1
  H  H566  1  0.73700000  0.16270000  0.06890000  1
  H  H567  1  0.03140000  0.66270000  0.56890000  1
  H  H568  1  0.19800000  0.14410000  0.08290000  1
  H  H569  1  0.57500000  0.64410000  0.58290000  1
  H  H570  1  0.45670000  0.15830000  0.06530000  1
  H  H571  1  0.31970000  0.65830000  0.56530000  1
  H  H572  1  0.32110000  0.56900000  0.65440000  1
  H  H573  1  0.45550000  0.06900000  0.15440000  1
  H  H574  1  0.37260000  0.53290000  0.68470000  1
  H  H575  1  0.40980000  0.03290000  0.18470000  1
  H  H576  1  0.22700000  0.27120000  0.92520000  1
  H  H577  1  0.57660000  0.77120000  0.42520000  1
  H  H578  1  0.77740000  0.50820000  0.67100000  1
  H  H579  1  0.04340000  0.00820000  0.17100000  1
  H  H580  1  0.94470000  0.46660000  0.69860000  1
  H  H581  1  0.89010000  0.96660000  0.19860000  1
  H  H582  1  0.85240000  0.54020000  0.62120000  1
  H  H583  1  0.98620000  0.04020000  0.12120000  1
  H  H584  1  0.71610000  0.51970000  0.63870000  1
  H  H585  1  0.12550000  0.01970000  0.13870000  1
  H  H586  1  0.50470000  0.51650000  0.63990000  1
  H  H587  1  0.33890000  0.01650000  0.13990000  1
  H  H588  1  0.84780000  0.42520000  0.72880000  1
  H  H589  1  0.99820000  0.92520000  0.22880000  1
  H  H590  1  0.29380000  0.19300000  0.92800000  1
  H  H591  1  0.58520000  0.69300000  0.42800000  1
  H  H592  1  0.44910000  0.09360000  0.02560000  1
  H  H593  1  0.43170000  0.59360000  0.52560000  1
  H  H594  1  0.78400000  0.47010000  0.63470000  1
  H  H595  1  0.11120000  0.97010000  0.13470000  1
  H  H596  1  0.87570000  0.49510000  0.58970000  1
  H  H597  1  0.03950000  0.99510000  0.08970000  1
  H  H598  1  0.61440000  0.51490000  0.56890000  1
  H  H599  1  0.30180000  0.01490000  0.06890000  1
  H  H600  1  0.03150000  0.09560000  0.95320000  1
  H  H601  1  0.91970000  0.59560000  0.45320000  1
  H  H602  1  0.09140000  0.12510000  0.92350000  1
  H  H603  1  0.86000000  0.62510000  0.42350000  1
  H  H604  1  0.84900000  0.03200000  0.00800000  1
  H  H605  1  0.11100000  0.53200000  0.50800000  1
  H  H606  1  0.56800000  0.02650000  0.01250000  1
  H  H607  1  0.39300000  0.52650000  0.51250000  1
  H  H608  1  0.02610000  0.39230000  0.64450000  1
  H  H609  1  0.93710000  0.89230000  0.14450000  1
  H  H610  1  0.98290000  0.13810000  0.89270000  1
  H  H611  1  0.98630000  0.63810000  0.39270000  1
  H  H612  1  0.96790000  0.41670000  0.61190000  1
  H  H613  1  0.00350000  0.91670000  0.11190000  1
  H  H614  1  0.91940000  0.05260000  0.97340000  1
  H  H615  1  0.05460000  0.55260000  0.47340000  1
  Mn  Mn616  1  0.79351000  0.92174000  0.99630000  1
  Mn  Mn617  1  0.28845000  0.42174000  0.49630000  1
  Mn  Mn618  1  0.90277000  0.47043000  0.38079000  1
  Mn  Mn619  1  0.24601000  0.97043000  0.88079000  1
  Mn  Mn620  1  0.08465000  0.85778000  0.91620000  1
  Mn  Mn621  1  0.14137000  0.35778000  0.41620000  1
  Mn  Mn622  1  0.12680000  0.61921000  0.97043000  1
  Mn  Mn623  1  0.28356000  0.11921000  0.47043000  1
  Mn  Mn624  1  0.21019000  0.49630000  0.07826000  1
  Mn  Mn625  1  0.21525000  0.99630000  0.57826000  1
  Mn  Mn626  1  0.99915000  0.41620000  0.14222000  1
  Mn  Mn627  1  0.44243000  0.91620000  0.64222000  1
  Mn  Mn628  1  0.00085000  0.58380000  0.85778000  1
  Mn  Mn629  1  0.55757000  0.08380000  0.35778000  1
  Mn  Mn630  1  0.78981000  0.50370000  0.92174000  1
  Mn  Mn631  1  0.78475000  0.00370000  0.42174000  1
  Mn  Mn632  1  0.87320000  0.38079000  0.02957000  1
  Mn  Mn633  1  0.71644000  0.88079000  0.52957000  1
  Mn  Mn634  1  0.91535000  0.14222000  0.08380000  1
  Mn  Mn635  1  0.85863000  0.64222000  0.58380000  1
  Mn  Mn636  1  0.09723000  0.52957000  0.61921000  1
  Mn  Mn637  1  0.75399000  0.02957000  0.11921000  1
  Mn  Mn638  1  0.20649000  0.07826000  0.00370000  1
  Mn  Mn639  1  0.71155000  0.57826000  0.50370000  1
  N  N640  1  0.81759000  0.54908000  0.44022000  1
  N  N641  1  0.19311000  0.04908000  0.94022000  1
  N  N642  1  0.80914000  0.50580000  0.42884000  1
  N  N643  1  0.25622000  0.00580000  0.92884000  1
  N  N644  1  0.74010000  0.91399000  0.93741000  1
  N  N645  1  0.40850000  0.41399000  0.43741000  1
  N  N646  1  0.90305000  0.88143000  0.96673000  1
  N  N647  1  0.24879000  0.38143000  0.46673000  1
  N  N648  1  0.99094000  0.42798000  0.42014000  1
  N  N649  1  0.16094000  0.92798000  0.92014000  1
  N  N650  1  0.95369000  0.90449000  0.93333000  1
  N  N651  1  0.20849000  0.40449000  0.43333000  1
  N  N652  1  0.06225000  0.40037000  0.38759000  1
  N  N653  1  0.14979000  0.90037000  0.88759000  1
  N  N654  1  0.19802000  0.79824000  0.91832000  1
  N  N655  1  0.08542000  0.29824000  0.41832000  1
  N  N656  1  0.88366000  0.41832000  0.20176000  1
  N  N657  1  0.49626000  0.91832000  0.70176000  1
  N  N658  1  0.13333000  0.55978000  0.04908000  1
  N  N659  1  0.25781000  0.05978000  0.54908000  1
  N  N660  1  0.13022000  0.46673000  0.11857000  1
  N  N661  1  0.28448000  0.96673000  0.61857000  1
  N  N662  1  0.18506000  0.57116000  0.00580000  1
  N  N663  1  0.23798000  0.07116000  0.50580000  1
  N  N664  1  0.11298000  0.43333000  0.09551000  1
  N  N665  1  0.35818000  0.93333000  0.59551000  1
  N  N666  1  0.32249000  0.43741000  0.08601000  1
  N  N667  1  0.15409000  0.93741000  0.58601000  1
  N  N668  1  0.03738000  0.61241000  0.90037000  1
  N  N669  1  0.44984000  0.11241000  0.40037000  1
  N  N670  1  0.08108000  0.57986000  0.92798000  1
  N  N671  1  0.41108000  0.07986000  0.42798000  1
  N  N672  1  0.91892000  0.42014000  0.07202000  1
  N  N673  1  0.58892000  0.92014000  0.57202000  1
  N  N674  1  0.96262000  0.38759000  0.09963000  1
  N  N675  1  0.55016000  0.88759000  0.59963000  1
  N  N676  1  0.67751000  0.56259000  0.91399000  1
  N  N677  1  0.84591000  0.06259000  0.41399000  1
  N  N678  1  0.88702000  0.56667000  0.90449000  1
  N  N679  1  0.64182000  0.06667000  0.40449000  1
  N  N680  1  0.81494000  0.42884000  0.99420000  1
  N  N681  1  0.76202000  0.92884000  0.49420000  1
  N  N682  1  0.86978000  0.53327000  0.88143000  1
  N  N683  1  0.71552000  0.03327000  0.38143000  1
  N  N684  1  0.86667000  0.44022000  0.95092000  1
  N  N685  1  0.74219000  0.94022000  0.45092000  1
  N  N686  1  0.11634000  0.58168000  0.79824000  1
  N  N687  1  0.50374000  0.08168000  0.29824000  1
  N  N688  1  0.80198000  0.20176000  0.08168000  1
  N  N689  1  0.91458000  0.70176000  0.58168000  1
  N  N690  1  0.93775000  0.59963000  0.61241000  1
  N  N691  1  0.85021000  0.09963000  0.11241000  1
  N  N692  1  0.04631000  0.09551000  0.06667000  1
  N  N693  1  0.79151000  0.59551000  0.56667000  1
  N  N694  1  0.00906000  0.57202000  0.57986000  1
  N  N695  1  0.83906000  0.07202000  0.07986000  1
  N  N696  1  0.09695000  0.11857000  0.03327000  1
  N  N697  1  0.75121000  0.61857000  0.53327000  1
  N  N698  1  0.25990000  0.08601000  0.06259000  1
  N  N699  1  0.59150000  0.58601000  0.56259000  1
  N  N700  1  0.19086000  0.49420000  0.57116000  1
  N  N701  1  0.74378000  0.99420000  0.07116000  1
  N  N702  1  0.18241000  0.45092000  0.55978000  1
  N  N703  1  0.80689000  0.95092000  0.05978000  1
  O  O704  1  0.68783000  0.97097000  0.02103000  1
  O  O705  1  0.32017000  0.47097000  0.52103000  1
  O  O706  1  0.23480000  0.46683000  0.45683000  1
  O  O707  1  0.84154000  0.96683000  0.95683000  1
  O  O708  1  0.94017000  0.52469000  0.38407000  1
  O  O709  1  0.15107000  0.02469000  0.88407000  1
  O  O710  1  0.76263000  0.87107000  0.02889000  1
  O  O711  1  0.33741000  0.37107000  0.52889000  1
  O  O712  1  0.09146000  0.88300000  0.97180000  1
  O  O713  1  0.05374000  0.38300000  0.47180000  1
  O  O714  1  0.85184000  0.42261000  0.38611000  1
  O  O715  1  0.33944000  0.92261000  0.88611000  1
  O  O716  1  0.01483000  0.81776000  0.95190000  1
  O  O717  1  0.21551000  0.31776000  0.45190000  1
  O  O718  1  0.00129000  0.43721000  0.33227000  1
  O  O719  1  0.22923000  0.93721000  0.83227000  1
  O  O720  1  0.08631000  0.84044000  0.85780000  1
  O  O721  1  0.21545000  0.34044000  0.35780000  1
  O  O722  1  0.20848000  0.52889000  0.12893000  1
  O  O723  1  0.13370000  0.02889000  0.62893000  1
  O  O724  1  0.03514000  0.61593000  0.02469000  1
  O  O725  1  0.32424000  0.11593000  0.52469000  1
  O  O726  1  0.03327000  0.45190000  0.18224000  1
  O  O727  1  0.33259000  0.95190000  0.68224000  1
  O  O728  1  0.06150000  0.66773000  0.93721000  1
  O  O729  1  0.33356000  0.16773000  0.43721000  1
  O  O730  1  0.93674000  0.47180000  0.11700000  1
  O  O731  1  0.47446000  0.97180000  0.61700000  1
  O  O732  1  0.29114000  0.52103000  0.02903000  1
  O  O733  1  0.15880000  0.02103000  0.52903000  1
  O  O734  1  0.22555000  0.61389000  0.92261000  1
  O  O735  1  0.23795000  0.11389000  0.42261000  1
  O  O736  1  0.05589000  0.35780000  0.15956000  1
  O  O737  1  0.42675000  0.85780000  0.65956000  1
  O  O738  1  0.79837000  0.54317000  0.96683000  1
  O  O739  1  0.69163000  0.04317000  0.46683000  1
  O  O740  1  0.20163000  0.45683000  0.03317000  1
  O  O741  1  0.30837000  0.95683000  0.53317000  1
  O  O742  1  0.94411000  0.64220000  0.84044000  1
  O  O743  1  0.57325000  0.14220000  0.34044000  1
  O  O744  1  0.77445000  0.38611000  0.07739000  1
  O  O745  1  0.76205000  0.88611000  0.57739000  1
  O  O746  1  0.70886000  0.47897000  0.97097000  1
  O  O747  1  0.84120000  0.97897000  0.47097000  1
  O  O748  1  0.06326000  0.52820000  0.88300000  1
  O  O749  1  0.52554000  0.02820000  0.38300000  1
  O  O750  1  0.93850000  0.33227000  0.06279000  1
  O  O751  1  0.66644000  0.83227000  0.56279000  1
  O  O752  1  0.96673000  0.54810000  0.81776000  1
  O  O753  1  0.66741000  0.04810000  0.31776000  1
  O  O754  1  0.96486000  0.38407000  0.97531000  1
  O  O755  1  0.67576000  0.88407000  0.47531000  1
  O  O756  1  0.79152000  0.47111000  0.87107000  1
  O  O757  1  0.86630000  0.97111000  0.37107000  1
  O  O758  1  0.91369000  0.15956000  0.14220000  1
  O  O759  1  0.78455000  0.65956000  0.64220000  1
  O  O760  1  0.99871000  0.56279000  0.66773000  1
  O  O761  1  0.77077000  0.06279000  0.16773000  1
  O  O762  1  0.98517000  0.18224000  0.04810000  1
  O  O763  1  0.78449000  0.68224000  0.54810000  1
  O  O764  1  0.14816000  0.57739000  0.61389000  1
  O  O765  1  0.66056000  0.07739000  0.11389000  1
  O  O766  1  0.90854000  0.11700000  0.02820000  1
  O  O767  1  0.94626000  0.61700000  0.52820000  1
  O  O768  1  0.23737000  0.12893000  0.97111000  1
  O  O769  1  0.66259000  0.62893000  0.47111000  1
  O  O770  1  0.05983000  0.47531000  0.61593000  1
  O  O771  1  0.84893000  0.97531000  0.11593000  1
  O  O772  1  0.76520000  0.53317000  0.54317000  1
  O  O773  1  0.15846000  0.03317000  0.04317000  1
  O  O774  1  0.31217000  0.02903000  0.97897000  1
  O  O775  1  0.67983000  0.52903000  0.47897000  1
