# generated using pymatgen
data_LaP4H17C12(NO3)4
_symmetry_space_group_name_H-M   'P 1'
_cell_length_a   14.33390000
_cell_length_b   20.76000000
_cell_length_c   21.50700000
_cell_angle_alpha   69.99200000
_cell_angle_beta   73.15400000
_cell_angle_gamma   72.35300000
_symmetry_Int_Tables_number   1
_chemical_formula_structural   LaP4H17C12(NO3)4
_chemical_formula_sum   'La8 P32 H136 C96 N32 O96'
_cell_volume   5605.52287373
_cell_formula_units_Z   8
loop_
 _symmetry_equiv_pos_site_id
 _symmetry_equiv_pos_as_xyz
  1  'x, y, z'
loop_
 _atom_site_type_symbol
 _atom_site_label
 _atom_site_symmetry_multiplicity
 _atom_site_fract_x
 _atom_site_fract_y
 _atom_site_fract_z
 _atom_site_occupancy
  La  La0  1  0.12180000  0.48296000  0.38716000  1
  La  La1  1  0.42862000  0.11434000  0.41193000  1
  La  La2  1  0.43309000  0.54890000  0.13231000  1
  La  La3  1  0.48990000  0.08923000  0.06408000  1
  La  La4  1  0.51010000  0.91077000  0.93592000  1
  La  La5  1  0.56691000  0.45110000  0.86769000  1
  La  La6  1  0.57138000  0.88566000  0.58807000  1
  La  La7  1  0.87820000  0.51704000  0.61284000  1
  P  P8  1  0.07761000  0.60827000  0.49068000  1
  P  P9  1  0.15226000  0.20111000  0.42468000  1
  P  P10  1  0.16238000  0.45954000  0.56222000  1
  P  P11  1  0.17288000  0.61790000  0.22106000  1
  P  P12  1  0.27596000  0.29441000  0.43382000  1
  P  P13  1  0.30360000  0.99779000  0.06017000  1
  P  P14  1  0.32002000  0.01156000  0.58859000  1
  P  P15  1  0.33219000  0.93123000  0.82728000  1
  P  P16  1  0.33385000  0.57948000  0.30030000  1
  P  P17  1  0.34645000  0.59219000  0.90841000  1
  P  P18  1  0.36562000  0.45822000  0.02846000  1
  P  P19  1  0.36974000  0.09979000  0.92552000  1
  P  P20  1  0.37278000  0.93103000  0.48501000  1
  P  P21  1  0.37897000  0.34258000  0.90245000  1
  P  P22  1  0.42236000  0.75097000  0.06689000  1
  P  P23  1  0.45371000  0.06013000  0.25478000  1
  P  P24  1  0.54629000  0.93987000  0.74522000  1
  P  P25  1  0.57764000  0.24903000  0.93311000  1
  P  P26  1  0.62103000  0.65742000  0.09755000  1
  P  P27  1  0.62722000  0.06897000  0.51499000  1
  P  P28  1  0.63026000  0.90021000  0.07448000  1
  P  P29  1  0.63438000  0.54178000  0.97154000  1
  P  P30  1  0.65355000  0.40781000  0.09159000  1
  P  P31  1  0.66615000  0.42052000  0.69970000  1
  P  P32  1  0.66781000  0.06877000  0.17272000  1
  P  P33  1  0.67998000  0.98844000  0.41141000  1
  P  P34  1  0.69640000  0.00221000  0.93983000  1
  P  P35  1  0.72404000  0.70559000  0.56618000  1
  P  P36  1  0.82712000  0.38210000  0.77894000  1
  P  P37  1  0.83762000  0.54046000  0.43778000  1
  P  P38  1  0.84774000  0.79889000  0.57532000  1
  P  P39  1  0.92239000  0.39173000  0.50932000  1
  H  H40  1  0.00790000  0.58840000  0.06360000  1
  H  H41  1  0.01840000  0.85120000  0.40080000  1
  H  H42  1  0.02470000  0.96160000  0.12590000  1
  H  H43  1  0.02750000  0.58490000  0.84560000  1
  H  H44  1  0.04490000  0.94090000  0.30560000  1
  H  H45  1  0.04940000  0.10310000  0.33370000  1
  H  H46  1  0.05320000  0.33210000  0.68190000  1
  H  H47  1  0.06300000  0.12840000  0.01150000  1
  H  H48  1  0.07730000  0.23340000  0.77480000  1
  H  H49  1  0.09910000  0.84700000  0.00010000  1
  H  H50  1  0.10100000  0.32000000  0.57430000  1
  H  H51  1  0.11020000  0.28550000  0.48350000  1
  H  H52  1  0.11140000  0.67110000  0.31950000  1
  H  H53  1  0.11700000  0.89990000  0.62430000  1
  H  H54  1  0.12670000  0.24350000  0.33110000  1
  H  H55  1  0.12670000  0.37980000  0.08770000  1
  H  H56  1  0.13010000  0.91300000  0.45400000  1
  H  H57  1  0.13060000  0.69370000  0.14050000  1
  H  H58  1  0.13650000  0.37800000  0.97870000  1
  H  H59  1  0.13840000  0.91190000  0.20560000  1
  H  H60  1  0.14260000  0.89210000  0.06780000  1
  H  H61  1  0.15280000  0.12520000  0.75500000  1
  H  H62  1  0.15990000  0.16320000  0.54530000  1
  H  H63  1  0.16590000  0.56430000  0.57830000  1
  H  H64  1  0.17290000  0.01290000  0.12570000  1
  H  H65  1  0.17460000  0.00800000  0.37440000  1
  H  H66  1  0.17820000  0.51210000  0.04330000  1
  H  H67  1  0.18740000  0.05080000  0.52190000  1
  H  H68  1  0.19250000  0.58300000  0.01570000  1
  H  H69  1  0.19330000  0.66540000  0.34850000  1
  H  H70  1  0.19570000  0.00310000  0.48410000  1
  H  H71  1  0.19730000  0.79660000  0.20400000  1
  H  H72  1  0.21650000  0.10570000  0.00280000  1
  H  H73  1  0.22540000  0.99280000  0.97300000  1
  H  H74  1  0.23230000  0.42090000  0.64010000  1
  H  H75  1  0.25110000  0.04520000  0.91050000  1
  H  H76  1  0.25350000  0.18120000  0.53600000  1
  H  H77  1  0.25760000  0.92050000  0.58720000  1
  H  H78  1  0.25790000  0.59720000  0.45910000  1
  H  H79  1  0.26800000  0.32020000  0.88050000  1
  H  H80  1  0.26800000  0.35070000  0.49540000  1
  H  H81  1  0.27030000  0.68620000  0.22640000  1
  H  H82  1  0.28230000  0.49320000  0.94070000  1
  H  H83  1  0.29640000  0.52220000  0.47780000  1
  H  H84  1  0.29750000  0.55290000  0.61680000  1
  H  H85  1  0.33210000  0.84970000  0.47920000  1
  H  H86  1  0.33380000  0.05580000  0.79830000  1
  H  H87  1  0.33430000  0.87880000  0.33660000  1
  H  H88  1  0.33600000  0.84300000  0.08180000  1
  H  H89  1  0.33670000  0.76090000  0.37900000  1
  H  H90  1  0.34620000  0.27420000  0.71550000  1
  H  H91  1  0.34650000  0.36290000  0.08770000  1
  H  H92  1  0.37670000  0.29080000  0.60160000  1
  H  H93  1  0.38650000  0.82840000  0.83860000  1
  H  H94  1  0.38700000  0.92460000  0.22080000  1
  H  H95  1  0.39040000  0.99110000  0.71480000  1
  H  H96  1  0.39450000  0.99630000  0.34150000  1
  H  H97  1  0.41840000  0.19200000  0.56040000  1
  H  H98  1  0.42450000  0.41140000  0.45380000  1
  H  H99  1  0.42580000  0.59950000  0.96780000  1
  H  H100  1  0.42600000  0.69050000  0.19550000  1
  H  H101  1  0.42920000  0.08150000  0.63410000  1
  H  H102  1  0.43380000  0.40130000  0.55780000  1
  H  H103  1  0.43950000  0.04570000  0.79350000  1
  H  H104  1  0.44310000  0.56420000  0.63390000  1
  H  H105  1  0.45110000  0.85250000  0.15030000  1
  H  H106  1  0.45510000  0.22850000  0.89540000  1
  H  H107  1  0.47750000  0.31930000  0.79040000  1
  H  H108  1  0.52250000  0.68070000  0.20960000  1
  H  H109  1  0.54490000  0.77150000  0.10460000  1
  H  H110  1  0.54890000  0.14750000  0.84970000  1
  H  H111  1  0.55690000  0.43580000  0.36610000  1
  H  H112  1  0.56050000  0.95430000  0.20650000  1
  H  H113  1  0.56620000  0.59870000  0.44220000  1
  H  H114  1  0.57080000  0.91850000  0.36590000  1
  H  H115  1  0.57400000  0.30950000  0.80450000  1
  H  H116  1  0.57420000  0.40050000  0.03220000  1
  H  H117  1  0.57550000  0.58860000  0.54620000  1
  H  H118  1  0.58160000  0.80800000  0.43960000  1
  H  H119  1  0.60550000  0.00370000  0.65850000  1
  H  H120  1  0.60960000  0.00890000  0.28520000  1
  H  H121  1  0.61300000  0.07540000  0.77920000  1
  H  H122  1  0.61350000  0.17160000  0.16140000  1
  H  H123  1  0.62330000  0.70920000  0.39840000  1
  H  H124  1  0.65350000  0.63710000  0.91230000  1
  H  H125  1  0.65380000  0.72580000  0.28450000  1
  H  H126  1  0.66330000  0.23910000  0.62100000  1
  H  H127  1  0.66400000  0.15700000  0.91820000  1
  H  H128  1  0.66570000  0.12120000  0.66340000  1
  H  H129  1  0.66620000  0.94420000  0.20170000  1
  H  H130  1  0.66790000  0.15030000  0.52080000  1
  H  H131  1  0.70250000  0.44710000  0.38320000  1
  H  H132  1  0.70360000  0.47780000  0.52220000  1
  H  H133  1  0.71770000  0.50680000  0.05930000  1
  H  H134  1  0.72970000  0.31380000  0.77360000  1
  H  H135  1  0.73200000  0.64930000  0.50460000  1
  H  H136  1  0.73200000  0.67980000  0.11950000  1
  H  H137  1  0.74210000  0.40280000  0.54090000  1
  H  H138  1  0.74240000  0.07950000  0.41280000  1
  H  H139  1  0.74650000  0.81880000  0.46400000  1
  H  H140  1  0.74890000  0.95480000  0.08950000  1
  H  H141  1  0.76770000  0.57910000  0.35990000  1
  H  H142  1  0.77460000  0.00720000  0.02700000  1
  H  H143  1  0.78350000  0.89430000  0.99720000  1
  H  H144  1  0.80270000  0.20340000  0.79600000  1
  H  H145  1  0.80430000  0.99690000  0.51590000  1
  H  H146  1  0.80670000  0.33460000  0.65150000  1
  H  H147  1  0.80750000  0.41700000  0.98430000  1
  H  H148  1  0.81260000  0.94920000  0.47810000  1
  H  H149  1  0.82180000  0.48790000  0.95670000  1
  H  H150  1  0.82540000  0.99200000  0.62560000  1
  H  H151  1  0.82710000  0.98710000  0.87430000  1
  H  H152  1  0.83410000  0.43570000  0.42170000  1
  H  H153  1  0.84010000  0.83680000  0.45470000  1
  H  H154  1  0.84720000  0.87480000  0.24500000  1
  H  H155  1  0.85740000  0.10790000  0.93220000  1
  H  H156  1  0.86160000  0.08810000  0.79440000  1
  H  H157  1  0.86350000  0.62200000  0.02130000  1
  H  H158  1  0.86940000  0.30630000  0.85950000  1
  H  H159  1  0.86990000  0.08700000  0.54600000  1
  H  H160  1  0.87330000  0.62020000  0.91230000  1
  H  H161  1  0.87330000  0.75650000  0.66890000  1
  H  H162  1  0.88300000  0.10010000  0.37570000  1
  H  H163  1  0.88860000  0.32890000  0.68050000  1
  H  H164  1  0.88980000  0.71450000  0.51650000  1
  H  H165  1  0.89900000  0.68000000  0.42570000  1
  H  H166  1  0.90090000  0.15300000  0.99990000  1
  H  H167  1  0.92270000  0.76660000  0.22520000  1
  H  H168  1  0.93700000  0.87160000  0.98850000  1
  H  H169  1  0.94680000  0.66790000  0.31810000  1
  H  H170  1  0.95060000  0.89690000  0.66630000  1
  H  H171  1  0.95510000  0.05910000  0.69440000  1
  H  H172  1  0.97250000  0.41510000  0.15440000  1
  H  H173  1  0.97530000  0.03840000  0.87410000  1
  H  H174  1  0.98160000  0.14880000  0.59920000  1
  H  H175  1  0.99210000  0.41160000  0.93640000  1
  C  C176  1  0.00700000  0.94450000  0.09730000  1
  C  C177  1  0.01180000  0.58770000  0.01990000  1
  C  C178  1  0.02360000  0.58560000  0.88930000  1
  C  C179  1  0.03200000  0.06360000  0.36700000  1
  C  C180  1  0.04620000  0.10880000  0.98440000  1
  C  C181  1  0.04970000  0.87640000  0.02340000  1
  C  C182  1  0.05530000  0.84100000  0.36060000  1
  C  C183  1  0.06730000  0.93790000  0.60820000  1
  C  C184  1  0.06880000  0.39320000  0.07080000  1
  C  C185  1  0.07010000  0.89430000  0.30480000  1
  C  C186  1  0.07470000  0.39220000  0.00550000  1
  C  C187  1  0.07630000  0.90310000  0.06390000  1
  C  C188  1  0.08060000  0.95100000  0.43780000  1
  C  C189  1  0.08260000  0.28780000  0.67520000  1
  C  C190  1  0.09280000  0.99870000  0.55770000  1
  C  C191  1  0.09720000  0.22900000  0.73090000  1
  C  C192  1  0.10420000  0.56650000  0.97990000  1
  C  C193  1  0.10750000  0.00670000  0.39100000  1
  C  C194  1  0.11110000  0.28060000  0.61100000  1
  C  C195  1  0.12040000  0.06210000  0.94930000  1
  C  C196  1  0.12550000  0.87630000  0.24510000  1
  C  C197  1  0.14070000  0.75520000  0.30410000  1
  C  C198  1  0.14160000  0.16490000  0.71880000  1
  C  C199  1  0.15570000  0.21370000  0.60040000  1
  C  C200  1  0.16080000  0.80800000  0.24380000  1
  C  C201  1  0.17170000  0.24980000  0.47520000  1
  C  C202  1  0.17460000  0.55030000  0.53750000  1
  C  C203  1  0.23670000  0.65110000  0.26160000  1
  C  C204  1  0.26470000  0.06660000  0.98730000  1
  C  C205  1  0.27610000  0.96160000  0.55150000  1
  C  C206  1  0.28970000  0.52010000  0.96780000  1
  C  C207  1  0.34660000  0.56820000  0.51390000  1
  C  C208  1  0.35100000  0.56180000  0.58080000  1
  C  C209  1  0.35770000  0.84960000  0.30820000  1
  C  C210  1  0.36060000  0.77960000  0.33310000  1
  C  C211  1  0.36360000  0.23550000  0.69860000  1
  C  C212  1  0.38110000  0.24580000  0.63120000  1
  C  C213  1  0.39090000  0.87650000  0.23880000  1
  C  C214  1  0.39420000  0.11180000  0.72090000  1
  C  C215  1  0.40620000  0.18620000  0.60670000  1
  C  C216  1  0.41220000  0.98280000  0.75660000  1
  C  C217  1  0.41270000  0.12050000  0.65030000  1
  C  C218  1  0.42920000  0.83380000  0.19650000  1
  C  C219  1  0.43460000  0.76090000  0.22460000  1
  C  C220  1  0.43820000  0.56910000  0.59030000  1
  C  C221  1  0.48180000  0.41650000  0.46190000  1
  C  C222  1  0.48230000  0.27020000  0.88340000  1
  C  C223  1  0.48810000  0.41050000  0.52250000  1
  C  C224  1  0.51190000  0.58950000  0.47750000  1
  C  C225  1  0.51770000  0.72980000  0.11660000  1
  C  C226  1  0.51820000  0.58350000  0.53810000  1
  C  C227  1  0.56180000  0.43090000  0.40970000  1
  C  C228  1  0.56540000  0.23910000  0.77540000  1
  C  C229  1  0.57080000  0.16620000  0.80350000  1
  C  C230  1  0.58730000  0.87950000  0.34970000  1
  C  C231  1  0.58780000  0.01720000  0.24340000  1
  C  C232  1  0.59380000  0.81380000  0.39330000  1
  C  C233  1  0.60580000  0.88820000  0.27910000  1
  C  C234  1  0.60910000  0.12350000  0.76120000  1
  C  C235  1  0.61890000  0.75420000  0.36880000  1
  C  C236  1  0.63640000  0.76450000  0.30140000  1
  C  C237  1  0.63940000  0.22040000  0.66690000  1
  C  C238  1  0.64230000  0.15040000  0.69180000  1
  C  C239  1  0.64900000  0.43820000  0.41920000  1
  C  C240  1  0.65340000  0.43180000  0.48610000  1
  C  C241  1  0.71030000  0.47990000  0.03220000  1
  C  C242  1  0.72390000  0.03840000  0.44850000  1
  C  C243  1  0.73530000  0.93340000  0.01270000  1
  C  C244  1  0.76330000  0.34890000  0.73840000  1
  C  C245  1  0.82540000  0.44970000  0.46250000  1
  C  C246  1  0.82830000  0.75020000  0.52480000  1
  C  C247  1  0.83920000  0.19200000  0.75620000  1
  C  C248  1  0.84430000  0.78630000  0.39960000  1
  C  C249  1  0.85840000  0.83510000  0.28120000  1
  C  C250  1  0.85930000  0.24480000  0.69590000  1
  C  C251  1  0.87450000  0.12370000  0.75490000  1
  C  C252  1  0.87960000  0.93790000  0.05070000  1
  C  C253  1  0.88890000  0.71940000  0.38900000  1
  C  C254  1  0.89250000  0.99330000  0.60900000  1
  C  C255  1  0.89580000  0.43350000  0.02010000  1
  C  C256  1  0.90280000  0.77100000  0.26910000  1
  C  C257  1  0.90720000  0.00130000  0.44230000  1
  C  C258  1  0.91740000  0.71220000  0.32480000  1
  C  C259  1  0.91940000  0.04900000  0.56220000  1
  C  C260  1  0.92370000  0.09690000  0.93610000  1
  C  C261  1  0.92530000  0.60780000  0.99450000  1
  C  C262  1  0.92990000  0.10570000  0.69520000  1
  C  C263  1  0.93120000  0.60680000  0.92920000  1
  C  C264  1  0.93270000  0.06210000  0.39180000  1
  C  C265  1  0.94470000  0.15900000  0.63940000  1
  C  C266  1  0.95030000  0.12360000  0.97660000  1
  C  C267  1  0.95380000  0.89120000  0.01560000  1
  C  C268  1  0.96800000  0.93640000  0.63300000  1
  C  C269  1  0.97640000  0.41440000  0.11070000  1
  C  C270  1  0.98820000  0.41230000  0.98010000  1
  C  C271  1  0.99300000  0.05550000  0.90270000  1
  N  N272  1  0.01730000  0.05270000  0.53670000  1
  N  N273  1  0.09130000  0.03710000  0.90920000  1
  N  N274  1  0.09140000  0.77410000  0.36050000  1
  N  N275  1  0.11010000  0.56550000  0.91460000  1
  N  N276  1  0.16860000  0.68510000  0.31050000  1
  N  N277  1  0.16950000  0.15810000  0.65530000  1
  N  N278  1  0.18680000  0.00620000  0.52620000  1
  N  N279  1  0.18700000  0.19880000  0.54070000  1
  N  N280  1  0.18890000  0.54600000  0.00430000  1
  N  N281  1  0.21580000  0.03960000  0.95340000  1
  N  N282  1  0.27110000  0.55970000  0.49440000  1
  N  N283  1  0.37070000  0.17010000  0.74230000  1
  N  N284  1  0.39390000  0.05030000  0.77000000  1
  N  N285  1  0.39760000  0.73610000  0.29200000  1
  N  N286  1  0.42740000  0.58300000  0.46270000  1
  N  N287  1  0.47440000  0.71280000  0.18910000  1
  N  N288  1  0.52560000  0.28720000  0.81090000  1
  N  N289  1  0.57260000  0.41700000  0.53730000  1
  N  N290  1  0.60240000  0.26390000  0.70800000  1
  N  N291  1  0.60610000  0.94970000  0.23000000  1
  N  N292  1  0.62930000  0.82990000  0.25770000  1
  N  N293  1  0.72890000  0.44030000  0.50560000  1
  N  N294  1  0.78420000  0.96040000  0.04660000  1
  N  N295  1  0.81110000  0.45400000  0.99570000  1
  N  N296  1  0.81300000  0.80120000  0.45930000  1
  N  N297  1  0.81320000  0.99380000  0.47380000  1
  N  N298  1  0.83050000  0.84190000  0.34470000  1
  N  N299  1  0.83140000  0.31490000  0.68950000  1
  N  N300  1  0.88990000  0.43450000  0.08540000  1
  N  N301  1  0.90860000  0.22590000  0.63950000  1
  N  N302  1  0.90870000  0.96290000  0.09080000  1
  N  N303  1  0.98270000  0.94730000  0.46330000  1
  O  O304  1  0.02260000  0.40273000  0.46530000  1
  O  O305  1  0.05710000  0.17540000  0.45810000  1
  O  O306  1  0.06080000  0.45637000  0.60510000  1
  O  O307  1  0.09030000  0.68216000  0.47550000  1
  O  O308  1  0.10310000  0.58594000  0.42630000  1
  O  O309  1  0.10350000  0.68380000  0.18060000  1
  O  O310  1  0.10670000  0.57430000  0.27580000  1
  O  O311  1  0.13950000  0.25960000  0.35670000  1
  O  O312  1  0.18980000  0.43718000  0.49810000  1
  O  O313  1  0.20320000  0.98050000  0.10880000  1
  O  O314  1  0.22450000  0.96780000  0.82550000  1
  O  O315  1  0.23240000  0.03116000  0.64418000  1
  O  O316  1  0.24100000  0.36194000  0.38289000  1
  O  O317  1  0.24280000  0.14340000  0.41570000  1
  O  O318  1  0.24770000  0.41450000  0.60250000  1
  O  O319  1  0.25060000  0.58240000  0.17230000  1
  O  O320  1  0.26860000  0.64660000  0.87410000  1
  O  O321  1  0.28920000  0.51560000  0.33670000  1
  O  O322  1  0.30030000  0.35060000  0.86080000  1
  O  O323  1  0.30150000  0.31180000  0.49210000  1
  O  O324  1  0.31580000  0.39290000  0.05980000  1
  O  O325  1  0.32490000  0.16070000  0.87117000  1
  O  O326  1  0.32520000  0.89100000  0.45666000  1
  O  O327  1  0.33020000  0.80220000  0.09980000  1
  O  O328  1  0.33630000  0.32200000  0.97736000  1
  O  O329  1  0.34110000  0.07639000  0.53145000  1
  O  O330  1  0.35450000  0.49080000  0.08320000  1
  O  O331  1  0.35490000  0.02630000  0.09294000  1
  O  O332  1  0.35550000  0.85930000  0.81140000  1
  O  O333  1  0.35980000  0.93324000  0.03636000  1
  O  O334  1  0.36060000  0.60670000  0.34910000  1
  O  O335  1  0.36060000  0.92270000  0.89218000  1
  O  O336  1  0.36520000  0.24120000  0.41020000  1
  O  O337  1  0.37700000  0.62610000  0.95290000  1
  O  O338  1  0.39110000  0.99597000  0.42805000  1
  O  O339  1  0.39140000  0.68396000  0.07898000  1
  O  O340  1  0.39910000  0.99930000  0.30178000  1
  O  O341  1  0.41160000  0.96422000  0.61497000  1
  O  O342  1  0.41600000  0.40953000  0.87360000  1
  O  O343  1  0.41940000  0.57160000  0.24050000  1
  O  O344  1  0.42240000  0.12240000  0.96338000  1
  O  O345  1  0.42580000  0.08310000  0.18697000  1
  O  O346  1  0.43230000  0.03798000  0.89804000  1
  O  O347  1  0.43270000  0.11560000  0.29050000  1
  O  O348  1  0.43730000  0.55850000  0.86490000  1
  O  O349  1  0.45890000  0.88426000  0.51689000  1
  O  O350  1  0.46160000  0.79031000  0.99563000  1
  O  O351  1  0.47000000  0.43830000  0.98846000  1
  O  O352  1  0.53000000  0.56170000  0.01154000  1
  O  O353  1  0.53840000  0.20969000  0.00437000  1
  O  O354  1  0.54110000  0.11574000  0.48311000  1
  O  O355  1  0.56270000  0.44150000  0.13510000  1
  O  O356  1  0.56730000  0.88440000  0.70950000  1
  O  O357  1  0.56770000  0.96202000  0.10196000  1
  O  O358  1  0.57420000  0.91690000  0.81303000  1
  O  O359  1  0.57760000  0.87760000  0.03662000  1
  O  O360  1  0.58060000  0.42840000  0.75950000  1
  O  O361  1  0.58400000  0.59047000  0.12640000  1
  O  O362  1  0.58840000  0.03578000  0.38503000  1
  O  O363  1  0.60090000  0.00070000  0.69822000  1
  O  O364  1  0.60860000  0.31604000  0.92102000  1
  O  O365  1  0.60890000  0.00403000  0.57195000  1
  O  O366  1  0.62300000  0.37390000  0.04710000  1
  O  O367  1  0.63480000  0.75880000  0.58980000  1
  O  O368  1  0.63940000  0.07730000  0.10782000  1
  O  O369  1  0.63940000  0.39330000  0.65090000  1
  O  O370  1  0.64020000  0.06676000  0.96364000  1
  O  O371  1  0.64450000  0.14070000  0.18860000  1
  O  O372  1  0.64510000  0.97370000  0.90706000  1
  O  O373  1  0.64550000  0.50920000  0.91680000  1
  O  O374  1  0.65890000  0.92361000  0.46855000  1
  O  O375  1  0.66370000  0.67800000  0.02264000  1
  O  O376  1  0.66980000  0.19780000  0.90020000  1
  O  O377  1  0.67480000  0.10900000  0.54334000  1
  O  O378  1  0.67510000  0.83930000  0.12883000  1
  O  O379  1  0.68420000  0.60710000  0.94020000  1
  O  O380  1  0.69850000  0.68820000  0.50790000  1
  O  O381  1  0.69970000  0.64940000  0.13920000  1
  O  O382  1  0.71080000  0.48440000  0.66330000  1
  O  O383  1  0.73140000  0.35340000  0.12590000  1
  O  O384  1  0.74940000  0.41760000  0.82770000  1
  O  O385  1  0.75230000  0.58550000  0.39750000  1
  O  O386  1  0.75720000  0.85660000  0.58430000  1
  O  O387  1  0.75900000  0.63806000  0.61711000  1
  O  O388  1  0.76760000  0.96884000  0.35582000  1
  O  O389  1  0.77550000  0.03220000  0.17450000  1
  O  O390  1  0.79680000  0.01950000  0.89120000  1
  O  O391  1  0.81020000  0.56282000  0.50190000  1
  O  O392  1  0.86050000  0.74040000  0.64330000  1
  O  O393  1  0.89330000  0.42570000  0.72420000  1
  O  O394  1  0.89650000  0.31620000  0.81940000  1
  O  O395  1  0.89690000  0.41406000  0.57370000  1
  O  O396  1  0.90970000  0.31784000  0.52450000  1
  O  O397  1  0.93920000  0.54363000  0.39490000  1
  O  O398  1  0.94290000  0.82460000  0.54190000  1
  O  O399  1  0.97740000  0.59727000  0.53470000  1
