# generated using pymatgen
data_Zn3H13(C2O)16
_symmetry_space_group_name_H-M   'P 1'
_cell_length_a   11.36000000
_cell_length_b   11.79900000
_cell_length_c   16.35000000
_cell_angle_alpha   74.01700000
_cell_angle_beta   82.91400000
_cell_angle_gamma   63.63400000
_symmetry_Int_Tables_number   1
_chemical_formula_structural   Zn3H13(C2O)16
_chemical_formula_sum   'Zn6 H26 C64 O32'
_cell_volume   1887.62460478
_cell_formula_units_Z   2
loop_
 _symmetry_equiv_pos_site_id
 _symmetry_equiv_pos_as_xyz
  1  'x, y, z'
loop_
 _atom_site_type_symbol
 _atom_site_label
 _atom_site_symmetry_multiplicity
 _atom_site_fract_x
 _atom_site_fract_y
 _atom_site_fract_z
 _atom_site_occupancy
  Zn  Zn0  1  0.07262000  0.83244000  0.54857000  1
  Zn  Zn1  1  0.20368000  0.55884000  0.24711000  1
  Zn  Zn2  1  0.39331000  0.61703000  0.64010000  1
  Zn  Zn3  1  0.60669000  0.38297000  0.35990000  1
  Zn  Zn4  1  0.79632000  0.44116000  0.75289000  1
  Zn  Zn5  1  0.92738000  0.16756000  0.45143000  1
  H  H6  1  0.00870000  0.05960000  0.76080000  1
  H  H7  1  0.02880000  0.50930000  0.40490000  1
  H  H8  1  0.17370000  0.11190000  0.60170000  1
  H  H9  1  0.19690000  0.97750000  0.97710000  1
  H  H10  1  0.23740000  0.17430000  0.40340000  1
  H  H11  1  0.30350000  0.76460000  0.08360000  1
  H  H12  1  0.31720000  0.50300000  0.89190000  1
  H  H13  1  0.32150000  0.72000000  0.83310000  1
  H  H14  1  0.35770000  0.42770000  0.76580000  1
  H  H15  1  0.36510000  0.32790000  0.59920000  1
  H  H16  1  0.38300000  0.93630000  0.66000000  1
  H  H17  1  0.48240000  0.32440000  0.12280000  1
  H  H18  1  0.49120000  0.79590000  0.46690000  1
  H  H19  1  0.50880000  0.20410000  0.53310000  1
  H  H20  1  0.51760000  0.67560000  0.87720000  1
  H  H21  1  0.61700000  0.06370000  0.34000000  1
  H  H22  1  0.63490000  0.67210000  0.40080000  1
  H  H23  1  0.64230000  0.57230000  0.23420000  1
  H  H24  1  0.67850000  0.28000000  0.16690000  1
  H  H25  1  0.68280000  0.49700000  0.10810000  1
  H  H26  1  0.69650000  0.23540000  0.91640000  1
  H  H27  1  0.76260000  0.82570000  0.59660000  1
  H  H28  1  0.80310000  0.02250000  0.02290000  1
  H  H29  1  0.82630000  0.88810000  0.39830000  1
  H  H30  1  0.97120000  0.49070000  0.59510000  1
  H  H31  1  0.99130000  0.94040000  0.23920000  1
  C  C32  1  0.00210000  0.82950000  0.11810000  1
  C  C33  1  0.05150000  0.41790000  0.59750000  1
  C  C34  1  0.05440000  0.29980000  0.60130000  1
  C  C35  1  0.07360000  0.71100000  0.39680000  1
  C  C36  1  0.07690000  0.00280000  0.79880000  1
  C  C37  1  0.09350000  0.03980000  0.86870000  1
  C  C38  1  0.14990000  0.83170000  0.71350000  1
  C  C39  1  0.16140000  0.88220000  0.78620000  1
  C  C40  1  0.16900000  0.43030000  0.59700000  1
  C  C41  1  0.17180000  0.55760000  0.59230000  1
  C  C42  1  0.17330000  0.19100000  0.60130000  1
  C  C43  1  0.19020000  0.95520000  0.92810000  1
  C  C44  1  0.24240000  0.93960000  0.48410000  1
  C  C45  1  0.25850000  0.51050000  0.05810000  1
  C  C46  1  0.26290000  0.80020000  0.84310000  1
  C  C47  1  0.28040000  0.83130000  0.91220000  1
  C  C48  1  0.28670000  0.32100000  0.59900000  1
  C  C49  1  0.29050000  0.19920000  0.60070000  1
  C  C50  1  0.32260000  0.10870000  0.40500000  1
  C  C51  1  0.34690000  0.98020000  0.44340000  1
  C  C52  1  0.37950000  0.42710000  0.01470000  1
  C  C53  1  0.38220000  0.71800000  0.05860000  1
  C  C54  1  0.38990000  0.44530000  0.92610000  1
  C  C55  1  0.39440000  0.74050000  0.97090000  1
  C  C56  1  0.40170000  0.28080000  0.33450000  1
  C  C57  1  0.42300000  0.08780000  0.59940000  1
  C  C58  1  0.42340000  0.13990000  0.36940000  1
  C  C59  1  0.45000000  0.95850000  0.63400000  1
  C  C60  1  0.47420000  0.88240000  0.44110000  1
  C  C61  1  0.47610000  0.58790000  0.20480000  1
  C  C62  1  0.48810000  0.33550000  0.06410000  1
  C  C63  1  0.49300000  0.62180000  0.11000000  1
  C  C64  1  0.50700000  0.37820000  0.89000000  1
  C  C65  1  0.51190000  0.66450000  0.93590000  1
  C  C66  1  0.52390000  0.41210000  0.79520000  1
  C  C67  1  0.52580000  0.11760000  0.55890000  1
  C  C68  1  0.55000000  0.04150000  0.36600000  1
  C  C69  1  0.57660000  0.86010000  0.63060000  1
  C  C70  1  0.57700000  0.91220000  0.40060000  1
  C  C71  1  0.59830000  0.71920000  0.66550000  1
  C  C72  1  0.60560000  0.25950000  0.02910000  1
  C  C73  1  0.61010000  0.55470000  0.07390000  1
  C  C74  1  0.61780000  0.28200000  0.94140000  1
  C  C75  1  0.62050000  0.57290000  0.98530000  1
  C  C76  1  0.65310000  0.01980000  0.55660000  1
  C  C77  1  0.67740000  0.89130000  0.59500000  1
  C  C78  1  0.70950000  0.80080000  0.39930000  1
  C  C79  1  0.71330000  0.67900000  0.40100000  1
  C  C80  1  0.71960000  0.16870000  0.08780000  1
  C  C81  1  0.73710000  0.19980000  0.15690000  1
  C  C82  1  0.74150000  0.48950000  0.94190000  1
  C  C83  1  0.75760000  0.06040000  0.51590000  1
  C  C84  1  0.80980000  0.04480000  0.07190000  1
  C  C85  1  0.82670000  0.80900000  0.39870000  1
  C  C86  1  0.82820000  0.44240000  0.40770000  1
  C  C87  1  0.83100000  0.56970000  0.40300000  1
  C  C88  1  0.83860000  0.11780000  0.21380000  1
  C  C89  1  0.85010000  0.16830000  0.28650000  1
  C  C90  1  0.90650000  0.96020000  0.13130000  1
  C  C91  1  0.92310000  0.99720000  0.20120000  1
  C  C92  1  0.92640000  0.28900000  0.60320000  1
  C  C93  1  0.94560000  0.70020000  0.39870000  1
  C  C94  1  0.94850000  0.58210000  0.40250000  1
  C  C95  1  0.99790000  0.17050000  0.88190000  1
  O  O96  1  0.00830000  0.20170000  0.94730000  1
  O  O97  1  0.05330000  0.90630000  0.66120000  1
  O  O98  1  0.06340000  0.65090000  0.60220000  1
  O  O99  1  0.07950000  0.79580000  0.42630000  1
  O  O100  1  0.08250000  0.75390000  0.17660000  1
  O  O101  1  0.12430000  0.02010000  0.47160000  1
  O  O102  1  0.16560000  0.59800000  0.01070000  1
  O  O103  1  0.16830000  0.63210000  0.36300000  1
  O  O104  1  0.22950000  0.72120000  0.70860000  1
  O  O105  1  0.26320000  0.48510000  0.13630000  1
  O  O106  1  0.27320000  0.82440000  0.52830000  1
  O  O107  1  0.27760000  0.56410000  0.57710000  1
  O  O108  1  0.28570000  0.36400000  0.32480000  1
  O  O109  1  0.36820000  0.60360000  0.23600000  1
  O  O110  1  0.42040000  0.46030000  0.75050000  1
  O  O111  1  0.49710000  0.69890000  0.68140000  1
  O  O112  1  0.50290000  0.30110000  0.31860000  1
  O  O113  1  0.57960000  0.53970000  0.24950000  1
  O  O114  1  0.63180000  0.39640000  0.76400000  1
  O  O115  1  0.71430000  0.63600000  0.67520000  1
  O  O116  1  0.72240000  0.43590000  0.42290000  1
  O  O117  1  0.72680000  0.17560000  0.47170000  1
  O  O118  1  0.73680000  0.51490000  0.86370000  1
  O  O119  1  0.77050000  0.27880000  0.29140000  1
  O  O120  1  0.83170000  0.36790000  0.63700000  1
  O  O121  1  0.83440000  0.40200000  0.98930000  1
  O  O122  1  0.87570000  0.97990000  0.52840000  1
  O  O123  1  0.91750000  0.24610000  0.82340000  1
  O  O124  1  0.92050000  0.20420000  0.57370000  1
  O  O125  1  0.93660000  0.34910000  0.39780000  1
  O  O126  1  0.94670000  0.09370000  0.33880000  1
  O  O127  1  0.99170000  0.79830000  0.05270000  1
