# generated using pymatgen
data_ZnH20C34(NO2)4
_symmetry_space_group_name_H-M   'P 1'
_cell_length_a   14.17440000
_cell_length_b   20.60420000
_cell_length_c   25.91510000
_cell_angle_alpha   90.00000000
_cell_angle_beta   90.00000000
_cell_angle_gamma   90.00000000
_symmetry_Int_Tables_number   1
_chemical_formula_structural   ZnH20C34(NO2)4
_chemical_formula_sum   'Zn8 H160 C272 N32 O64'
_cell_volume   7568.56125504
_cell_formula_units_Z   8
loop_
 _symmetry_equiv_pos_site_id
 _symmetry_equiv_pos_as_xyz
  1  'x, y, z'
loop_
 _atom_site_type_symbol
 _atom_site_label
 _atom_site_symmetry_multiplicity
 _atom_site_fract_x
 _atom_site_fract_y
 _atom_site_fract_z
 _atom_site_occupancy
  Zn  Zn0  1  0.75846000  0.62308000  0.90040000  1
  Zn  Zn1  1  0.75846000  0.87692000  0.09960000  1
  Zn  Zn2  1  0.74154000  0.12308000  0.59960000  1
  Zn  Zn3  1  0.74154000  0.37692000  0.40040000  1
  Zn  Zn4  1  0.25846000  0.62308000  0.59960000  1
  Zn  Zn5  1  0.25846000  0.87692000  0.40040000  1
  Zn  Zn6  1  0.24154000  0.12308000  0.90040000  1
  Zn  Zn7  1  0.24154000  0.37692000  0.09960000  1
  H  H8  1  0.99110000  0.26140000  0.75680000  1
  H  H9  1  0.99110000  0.23860000  0.24320000  1
  H  H10  1  0.97440000  0.49360000  0.75080000  1
  H  H11  1  0.97440000  0.00640000  0.24920000  1
  H  H12  1  0.95300000  0.56260000  0.51690000  1
  H  H13  1  0.95300000  0.93740000  0.48310000  1
  H  H14  1  0.94470000  0.68790000  0.91850000  1
  H  H15  1  0.94470000  0.81210000  0.08150000  1
  H  H16  1  0.93740000  0.19000000  0.98080000  1
  H  H17  1  0.93740000  0.31000000  0.01920000  1
  H  H18  1  0.93350000  0.06570000  0.58120000  1
  H  H19  1  0.93350000  0.43430000  0.41880000  1
  H  H20  1  0.93290000  0.95980000  0.94790000  1
  H  H21  1  0.93290000  0.54020000  0.05210000  1
  H  H22  1  0.90400000  0.91330000  0.56850000  1
  H  H23  1  0.90400000  0.83580000  0.56810000  1
  H  H24  1  0.90400000  0.66420000  0.43190000  1
  H  H25  1  0.90400000  0.58670000  0.43150000  1
  H  H26  1  0.88880000  0.31180000  0.56580000  1
  H  H27  1  0.88880000  0.18820000  0.43420000  1
  H  H28  1  0.87470000  0.34440000  0.94030000  1
  H  H29  1  0.87470000  0.15560000  0.05970000  1
  H  H30  1  0.87460000  0.42190000  0.93910000  1
  H  H31  1  0.87460000  0.07810000  0.06090000  1
  H  H32  1  0.82100000  0.54050000  0.98700000  1
  H  H33  1  0.82100000  0.95950000  0.01300000  1
  H  H34  1  0.78350000  0.96740000  0.82690000  1
  H  H35  1  0.78350000  0.53260000  0.17310000  1
  H  H36  1  0.78340000  0.88370000  0.88740000  1
  H  H37  1  0.78340000  0.61630000  0.11260000  1
  H  H38  1  0.77960000  0.18850000  0.50040000  1
  H  H39  1  0.77960000  0.31150000  0.49960000  1
  H  H40  1  0.77580000  0.00340000  0.73510000  1
  H  H41  1  0.77580000  0.49660000  0.26490000  1
  H  H42  1  0.75990000  0.75000000  0.77310000  1
  H  H43  1  0.75990000  0.86850000  0.62100000  1
  H  H44  1  0.75990000  0.63150000  0.37900000  1
  H  H45  1  0.75990000  0.75000000  0.22690000  1
  H  H46  1  0.75680000  0.78550000  0.68170000  1
  H  H47  1  0.75680000  0.71450000  0.31830000  1
  H  H48  1  0.74320000  0.28550000  0.81830000  1
  H  H49  1  0.74320000  0.21450000  0.18170000  1
  H  H50  1  0.74010000  0.36850000  0.87900000  1
  H  H51  1  0.74010000  0.25000000  0.72690000  1
  H  H52  1  0.74010000  0.25000000  0.27310000  1
  H  H53  1  0.74010000  0.13150000  0.12100000  1
  H  H54  1  0.72420000  0.50340000  0.76490000  1
  H  H55  1  0.72420000  0.99660000  0.23510000  1
  H  H56  1  0.72040000  0.68850000  0.99960000  1
  H  H57  1  0.72040000  0.81150000  0.00040000  1
  H  H58  1  0.71660000  0.38370000  0.61260000  1
  H  H59  1  0.71660000  0.11630000  0.38740000  1
  H  H60  1  0.71650000  0.46740000  0.67310000  1
  H  H61  1  0.71650000  0.03260000  0.32690000  1
  H  H62  1  0.67900000  0.04050000  0.51300000  1
  H  H63  1  0.67900000  0.45950000  0.48700000  1
  H  H64  1  0.62540000  0.92190000  0.56090000  1
  H  H65  1  0.62540000  0.57810000  0.43910000  1
  H  H66  1  0.62530000  0.84440000  0.55970000  1
  H  H67  1  0.62530000  0.65560000  0.44030000  1
  H  H68  1  0.61120000  0.81180000  0.93420000  1
  H  H69  1  0.61120000  0.68820000  0.06580000  1
  H  H70  1  0.59600000  0.33580000  0.93190000  1
  H  H71  1  0.59600000  0.41330000  0.93150000  1
  H  H72  1  0.59600000  0.08670000  0.06850000  1
  H  H73  1  0.59600000  0.16420000  0.06810000  1
  H  H74  1  0.56710000  0.45980000  0.55210000  1
  H  H75  1  0.56710000  0.04020000  0.44790000  1
  H  H76  1  0.56650000  0.56570000  0.91880000  1
  H  H77  1  0.56650000  0.93430000  0.08120000  1
  H  H78  1  0.56260000  0.69000000  0.51920000  1
  H  H79  1  0.56260000  0.81000000  0.48080000  1
  H  H80  1  0.55530000  0.18790000  0.58150000  1
  H  H81  1  0.55530000  0.31210000  0.41850000  1
  H  H82  1  0.54700000  0.06260000  0.98310000  1
  H  H83  1  0.54700000  0.43740000  0.01690000  1
  H  H84  1  0.52560000  0.99360000  0.74920000  1
  H  H85  1  0.52560000  0.50640000  0.25080000  1
  H  H86  1  0.50890000  0.76140000  0.74320000  1
  H  H87  1  0.50890000  0.73860000  0.25680000  1
  H  H88  1  0.49110000  0.26140000  0.74320000  1
  H  H89  1  0.49110000  0.23860000  0.25680000  1
  H  H90  1  0.47440000  0.49360000  0.74920000  1
  H  H91  1  0.47440000  0.00640000  0.25080000  1
  H  H92  1  0.45300000  0.56260000  0.98310000  1
  H  H93  1  0.45300000  0.93740000  0.01690000  1
  H  H94  1  0.44470000  0.68790000  0.58150000  1
  H  H95  1  0.44470000  0.81210000  0.41850000  1
  H  H96  1  0.43740000  0.19000000  0.51920000  1
  H  H97  1  0.43740000  0.31000000  0.48080000  1
  H  H98  1  0.43350000  0.06570000  0.91880000  1
  H  H99  1  0.43350000  0.43430000  0.08120000  1
  H  H100  1  0.43290000  0.95980000  0.55210000  1
  H  H101  1  0.43290000  0.54020000  0.44790000  1
  H  H102  1  0.40400000  0.83580000  0.93190000  1
  H  H103  1  0.40400000  0.91330000  0.93150000  1
  H  H104  1  0.40400000  0.58670000  0.06850000  1
  H  H105  1  0.40400000  0.66420000  0.06810000  1
  H  H106  1  0.38880000  0.31180000  0.93420000  1
  H  H107  1  0.38880000  0.18820000  0.06580000  1
  H  H108  1  0.37470000  0.34440000  0.55970000  1
  H  H109  1  0.37470000  0.15560000  0.44030000  1
  H  H110  1  0.37460000  0.42190000  0.56090000  1
  H  H111  1  0.37460000  0.07810000  0.43910000  1
  H  H112  1  0.32100000  0.54050000  0.51300000  1
  H  H113  1  0.32100000  0.95950000  0.48700000  1
  H  H114  1  0.28350000  0.96740000  0.67310000  1
  H  H115  1  0.28350000  0.53260000  0.32690000  1
  H  H116  1  0.28340000  0.88370000  0.61260000  1
  H  H117  1  0.28340000  0.61630000  0.38740000  1
  H  H118  1  0.27960000  0.18850000  0.99960000  1
  H  H119  1  0.27960000  0.31150000  0.00040000  1
  H  H120  1  0.27580000  0.00340000  0.76490000  1
  H  H121  1  0.27580000  0.49660000  0.23510000  1
  H  H122  1  0.25990000  0.86850000  0.87900000  1
  H  H123  1  0.25990000  0.75000000  0.72690000  1
  H  H124  1  0.25990000  0.75000000  0.27310000  1
  H  H125  1  0.25990000  0.63150000  0.12100000  1
  H  H126  1  0.25680000  0.78550000  0.81830000  1
  H  H127  1  0.25680000  0.71450000  0.18170000  1
  H  H128  1  0.24320000  0.28550000  0.68170000  1
  H  H129  1  0.24320000  0.21450000  0.31830000  1
  H  H130  1  0.24010000  0.25000000  0.77310000  1
  H  H131  1  0.24010000  0.36850000  0.62100000  1
  H  H132  1  0.24010000  0.13150000  0.37900000  1
  H  H133  1  0.24010000  0.25000000  0.22690000  1
  H  H134  1  0.22420000  0.50340000  0.73510000  1
  H  H135  1  0.22420000  0.99660000  0.26490000  1
  H  H136  1  0.22040000  0.68850000  0.50040000  1
  H  H137  1  0.22040000  0.81150000  0.49960000  1
  H  H138  1  0.21660000  0.38370000  0.88740000  1
  H  H139  1  0.21660000  0.11630000  0.11260000  1
  H  H140  1  0.21650000  0.46740000  0.82690000  1
  H  H141  1  0.21650000  0.03260000  0.17310000  1
  H  H142  1  0.17900000  0.04050000  0.98700000  1
  H  H143  1  0.17900000  0.45950000  0.01300000  1
  H  H144  1  0.12540000  0.92190000  0.93910000  1
  H  H145  1  0.12540000  0.57810000  0.06090000  1
  H  H146  1  0.12530000  0.84440000  0.94030000  1
  H  H147  1  0.12530000  0.65560000  0.05970000  1
  H  H148  1  0.11120000  0.81180000  0.56580000  1
  H  H149  1  0.11120000  0.68820000  0.43420000  1
  H  H150  1  0.09600000  0.41330000  0.56850000  1
  H  H151  1  0.09600000  0.33580000  0.56810000  1
  H  H152  1  0.09600000  0.16420000  0.43190000  1
  H  H153  1  0.09600000  0.08670000  0.43150000  1
  H  H154  1  0.06710000  0.45980000  0.94790000  1
  H  H155  1  0.06710000  0.04020000  0.05210000  1
  H  H156  1  0.06650000  0.56570000  0.58120000  1
  H  H157  1  0.06650000  0.93430000  0.41880000  1
  H  H158  1  0.06260000  0.69000000  0.98080000  1
  H  H159  1  0.06260000  0.81000000  0.01920000  1
  H  H160  1  0.05530000  0.18790000  0.91850000  1
  H  H161  1  0.05530000  0.31210000  0.08150000  1
  H  H162  1  0.04700000  0.06260000  0.51690000  1
  H  H163  1  0.04700000  0.43740000  0.48310000  1
  H  H164  1  0.02560000  0.99360000  0.75080000  1
  H  H165  1  0.02560000  0.50640000  0.24920000  1
  H  H166  1  0.00890000  0.76140000  0.75680000  1
  H  H167  1  0.00890000  0.73860000  0.24320000  1
  C  C168  1  0.99778000  0.93067000  0.65353000  1
  C  C169  1  0.99778000  0.56933000  0.34647000  1
  C  C170  1  0.99606000  0.34232000  0.71011000  1
  C  C171  1  0.99606000  0.15768000  0.28989000  1
  C  C172  1  0.99246000  0.08888000  0.51272000  1
  C  C173  1  0.99246000  0.41112000  0.48728000  1
  C  C174  1  0.99091000  0.38410000  0.97587000  1
  C  C175  1  0.99091000  0.11590000  0.02413000  1
  C  C176  1  0.98986000  0.41001000  0.70828000  1
  C  C177  1  0.98986000  0.08999000  0.29172000  1
  C  C178  1  0.98841000  0.30744000  0.75563000  1
  C  C179  1  0.98841000  0.19256000  0.24437000  1
  C  C180  1  0.98738000  0.15947000  0.98328000  1
  C  C181  1  0.98738000  0.34053000  0.01672000  1
  C  C182  1  0.98446000  0.81884000  0.65659000  1
  C  C183  1  0.98446000  0.68116000  0.34341000  1
  C  C184  1  0.98074000  0.37487000  0.53172000  1
  C  C185  1  0.98074000  0.12513000  0.46828000  1
  C  C186  1  0.97823000  0.44764000  0.75200000  1
  C  C187  1  0.97823000  0.05236000  0.24800000  1
  C  C188  1  0.97649000  0.34516000  0.79925000  1
  C  C189  1  0.97649000  0.15484000  0.20075000  1
  C  C190  1  0.97261000  0.41301000  0.79762000  1
  C  C191  1  0.97261000  0.08699000  0.20238000  1
  C  C192  1  0.96137000  0.32479000  0.85402000  1
  C  C193  1  0.96137000  0.17521000  0.14598000  1
  C  C194  1  0.95829000  0.43707000  0.85127000  1
  C  C195  1  0.95829000  0.06293000  0.14873000  1
  C  C196  1  0.94433000  0.87452000  0.57289000  1
  C  C197  1  0.94433000  0.62548000  0.42711000  1
  C  C198  1  0.94226000  0.65779000  0.94619000  1
  C  C199  1  0.94226000  0.84221000  0.05381000  1
  C  C200  1  0.93672000  0.92876000  0.97497000  1
  C  C201  1  0.93672000  0.57124000  0.02503000  1
  C  C202  1  0.92467000  0.09106000  0.55099000  1
  C  C203  1  0.92467000  0.40894000  0.44901000  1
  C  C204  1  0.91491000  0.38305000  0.93490000  1
  C  C205  1  0.91491000  0.11695000  0.06510000  1
  C  C206  1  0.89954000  0.33727000  0.53587000  1
  C  C207  1  0.89954000  0.16273000  0.46413000  1
  C  C208  1  0.86988000  0.57200000  0.98634000  1
  C  C209  1  0.86988000  0.92800000  0.01366000  1
  C  C210  1  0.83485000  0.16273000  0.50374000  1
  C  C211  1  0.83485000  0.33727000  0.49626000  1
  C  C212  1  0.77920000  0.87396000  0.85163000  1
  C  C213  1  0.77920000  0.62604000  0.14837000  1
  C  C214  1  0.77895000  0.92354000  0.81584000  1
  C  C215  1  0.77895000  0.57646000  0.18416000  1
  C  C216  1  0.77511000  0.75350000  0.87397000  1
  C  C217  1  0.77511000  0.74650000  0.12603000  1
  C  C218  1  0.77314000  0.80802000  0.83502000  1
  C  C219  1  0.77314000  0.69198000  0.16498000  1
  C  C220  1  0.77215000  0.95932000  0.72450000  1
  C  C221  1  0.77215000  0.54068000  0.27550000  1
  C  C222  1  0.77198000  0.90896000  0.76264000  1
  C  C223  1  0.77198000  0.59104000  0.23736000  1
  C  C224  1  0.76716000  0.94479000  0.67315000  1
  C  C225  1  0.76716000  0.55521000  0.32685000  1
  C  C226  1  0.76547000  0.84404000  0.74553000  1
  C  C227  1  0.76547000  0.65596000  0.25447000  1
  C  C228  1  0.76544000  0.79400000  0.78367000  1
  C  C229  1  0.76544000  0.70600000  0.21633000  1
  C  C230  1  0.76523000  0.99762000  0.63275000  1
  C  C231  1  0.76523000  0.50238000  0.36725000  1
  C  C232  1  0.76222000  0.87852000  0.65671000  1
  C  C233  1  0.76222000  0.62148000  0.34329000  1
  C  C234  1  0.76085000  0.82938000  0.69263000  1
  C  C235  1  0.76085000  0.67062000  0.30737000  1
  C  C236  1  0.73915000  0.32938000  0.80737000  1
  C  C237  1  0.73915000  0.17062000  0.19263000  1
  C  C238  1  0.73778000  0.37852000  0.84329000  1
  C  C239  1  0.73778000  0.12148000  0.15671000  1
  C  C240  1  0.73477000  0.49762000  0.86725000  1
  C  C241  1  0.73477000  0.00238000  0.13275000  1
  C  C242  1  0.73456000  0.29400000  0.71633000  1
  C  C243  1  0.73456000  0.20600000  0.28367000  1
  C  C244  1  0.73453000  0.34404000  0.75447000  1
  C  C245  1  0.73453000  0.15596000  0.24553000  1
  C  C246  1  0.73284000  0.44479000  0.82685000  1
  C  C247  1  0.73284000  0.05521000  0.17315000  1
  C  C248  1  0.72802000  0.40896000  0.73736000  1
  C  C249  1  0.72802000  0.09104000  0.26264000  1
  C  C250  1  0.72785000  0.45932000  0.77550000  1
  C  C251  1  0.72785000  0.04068000  0.22450000  1
  C  C252  1  0.72686000  0.30802000  0.66498000  1
  C  C253  1  0.72686000  0.19198000  0.33502000  1
  C  C254  1  0.72489000  0.25350000  0.62603000  1
  C  C255  1  0.72489000  0.24650000  0.37397000  1
  C  C256  1  0.72105000  0.42354000  0.68416000  1
  C  C257  1  0.72105000  0.07646000  0.31584000  1
  C  C258  1  0.72080000  0.37396000  0.64837000  1
  C  C259  1  0.72080000  0.12604000  0.35163000  1
  C  C260  1  0.66515000  0.66273000  0.99626000  1
  C  C261  1  0.66515000  0.83727000  0.00374000  1
  C  C262  1  0.63012000  0.07200000  0.51366000  1
  C  C263  1  0.63012000  0.42800000  0.48634000  1
  C  C264  1  0.60046000  0.83727000  0.96413000  1
  C  C265  1  0.60046000  0.66273000  0.03587000  1
  C  C266  1  0.58509000  0.88305000  0.56510000  1
  C  C267  1  0.58509000  0.61695000  0.43490000  1
  C  C268  1  0.57533000  0.59106000  0.94901000  1
  C  C269  1  0.57533000  0.90894000  0.05099000  1
  C  C270  1  0.56328000  0.42876000  0.52503000  1
  C  C271  1  0.56328000  0.07124000  0.47497000  1
  C  C272  1  0.55774000  0.15779000  0.55381000  1
  C  C273  1  0.55774000  0.34221000  0.44619000  1
  C  C274  1  0.55567000  0.37452000  0.92711000  1
  C  C275  1  0.55567000  0.12548000  0.07289000  1
  C  C276  1  0.54171000  0.93707000  0.64873000  1
  C  C277  1  0.54171000  0.56293000  0.35127000  1
  C  C278  1  0.53863000  0.82479000  0.64598000  1
  C  C279  1  0.53863000  0.67521000  0.35402000  1
  C  C280  1  0.52739000  0.91301000  0.70238000  1
  C  C281  1  0.52739000  0.58699000  0.29762000  1
  C  C282  1  0.52351000  0.84516000  0.70075000  1
  C  C283  1  0.52351000  0.65484000  0.29925000  1
  C  C284  1  0.52177000  0.94764000  0.74800000  1
  C  C285  1  0.52177000  0.55236000  0.25200000  1
  C  C286  1  0.51926000  0.87487000  0.96828000  1
  C  C287  1  0.51926000  0.62513000  0.03172000  1
  C  C288  1  0.51554000  0.31884000  0.84341000  1
  C  C289  1  0.51554000  0.18116000  0.15659000  1
  C  C290  1  0.51262000  0.65947000  0.51672000  1
  C  C291  1  0.51262000  0.84053000  0.48328000  1
  C  C292  1  0.51159000  0.80744000  0.74437000  1
  C  C293  1  0.51159000  0.69256000  0.25563000  1
  C  C294  1  0.51014000  0.91001000  0.79172000  1
  C  C295  1  0.51014000  0.58999000  0.20828000  1
  C  C296  1  0.50909000  0.88410000  0.52413000  1
  C  C297  1  0.50909000  0.61590000  0.47587000  1
  C  C298  1  0.50754000  0.58888000  0.98728000  1
  C  C299  1  0.50754000  0.91112000  0.01272000  1
  C  C300  1  0.50394000  0.84232000  0.78989000  1
  C  C301  1  0.50394000  0.65768000  0.21011000  1
  C  C302  1  0.50222000  0.43067000  0.84647000  1
  C  C303  1  0.50222000  0.06933000  0.15353000  1
  C  C304  1  0.49778000  0.93067000  0.84647000  1
  C  C305  1  0.49778000  0.56933000  0.15353000  1
  C  C306  1  0.49606000  0.34232000  0.78989000  1
  C  C307  1  0.49606000  0.15768000  0.21011000  1
  C  C308  1  0.49246000  0.08888000  0.98728000  1
  C  C309  1  0.49246000  0.41112000  0.01272000  1
  C  C310  1  0.49091000  0.38410000  0.52413000  1
  C  C311  1  0.49091000  0.11590000  0.47587000  1
  C  C312  1  0.48986000  0.41001000  0.79172000  1
  C  C313  1  0.48986000  0.08999000  0.20828000  1
  C  C314  1  0.48841000  0.30744000  0.74437000  1
  C  C315  1  0.48841000  0.19256000  0.25563000  1
  C  C316  1  0.48738000  0.15947000  0.51672000  1
  C  C317  1  0.48738000  0.34053000  0.48328000  1
  C  C318  1  0.48446000  0.81884000  0.84341000  1
  C  C319  1  0.48446000  0.68116000  0.15659000  1
  C  C320  1  0.48074000  0.37487000  0.96828000  1
  C  C321  1  0.48074000  0.12513000  0.03172000  1
  C  C322  1  0.47823000  0.44764000  0.74800000  1
  C  C323  1  0.47823000  0.05236000  0.25200000  1
  C  C324  1  0.47649000  0.34516000  0.70075000  1
  C  C325  1  0.47649000  0.15484000  0.29925000  1
  C  C326  1  0.47261000  0.41301000  0.70238000  1
  C  C327  1  0.47261000  0.08699000  0.29762000  1
  C  C328  1  0.46137000  0.32479000  0.64598000  1
  C  C329  1  0.46137000  0.17521000  0.35402000  1
  C  C330  1  0.45829000  0.43707000  0.64873000  1
  C  C331  1  0.45829000  0.06293000  0.35127000  1
  C  C332  1  0.44433000  0.87452000  0.92711000  1
  C  C333  1  0.44433000  0.62548000  0.07289000  1
  C  C334  1  0.44226000  0.65779000  0.55381000  1
  C  C335  1  0.44226000  0.84221000  0.44619000  1
  C  C336  1  0.43672000  0.92876000  0.52503000  1
  C  C337  1  0.43672000  0.57124000  0.47497000  1
  C  C338  1  0.42467000  0.09106000  0.94901000  1
  C  C339  1  0.42467000  0.40894000  0.05099000  1
  C  C340  1  0.41491000  0.38305000  0.56510000  1
  C  C341  1  0.41491000  0.11695000  0.43490000  1
  C  C342  1  0.39954000  0.33727000  0.96413000  1
  C  C343  1  0.39954000  0.16273000  0.03587000  1
  C  C344  1  0.36988000  0.57200000  0.51366000  1
  C  C345  1  0.36988000  0.92800000  0.48634000  1
  C  C346  1  0.33485000  0.16273000  0.99626000  1
  C  C347  1  0.33485000  0.33727000  0.00374000  1
  C  C348  1  0.27920000  0.87396000  0.64837000  1
  C  C349  1  0.27920000  0.62604000  0.35163000  1
  C  C350  1  0.27895000  0.92354000  0.68416000  1
  C  C351  1  0.27895000  0.57646000  0.31584000  1
  C  C352  1  0.27511000  0.75350000  0.62603000  1
  C  C353  1  0.27511000  0.74650000  0.37397000  1
  C  C354  1  0.27314000  0.80802000  0.66498000  1
  C  C355  1  0.27314000  0.69198000  0.33502000  1
  C  C356  1  0.27215000  0.95932000  0.77550000  1
  C  C357  1  0.27215000  0.54068000  0.22450000  1
  C  C358  1  0.27198000  0.90896000  0.73736000  1
  C  C359  1  0.27198000  0.59104000  0.26264000  1
  C  C360  1  0.26716000  0.94479000  0.82685000  1
  C  C361  1  0.26716000  0.55521000  0.17315000  1
  C  C362  1  0.26547000  0.84404000  0.75447000  1
  C  C363  1  0.26547000  0.65596000  0.24553000  1
  C  C364  1  0.26544000  0.79400000  0.71633000  1
  C  C365  1  0.26544000  0.70600000  0.28367000  1
  C  C366  1  0.26523000  0.99762000  0.86725000  1
  C  C367  1  0.26523000  0.50238000  0.13275000  1
  C  C368  1  0.26222000  0.87852000  0.84329000  1
  C  C369  1  0.26222000  0.62148000  0.15671000  1
  C  C370  1  0.26085000  0.82938000  0.80737000  1
  C  C371  1  0.26085000  0.67062000  0.19263000  1
  C  C372  1  0.23915000  0.32938000  0.69263000  1
  C  C373  1  0.23915000  0.17062000  0.30737000  1
  C  C374  1  0.23778000  0.37852000  0.65671000  1
  C  C375  1  0.23778000  0.12148000  0.34329000  1
  C  C376  1  0.23477000  0.49762000  0.63275000  1
  C  C377  1  0.23477000  0.00238000  0.36725000  1
  C  C378  1  0.23456000  0.29400000  0.78367000  1
  C  C379  1  0.23456000  0.20600000  0.21633000  1
  C  C380  1  0.23453000  0.34404000  0.74553000  1
  C  C381  1  0.23453000  0.15596000  0.25447000  1
  C  C382  1  0.23284000  0.44479000  0.67315000  1
  C  C383  1  0.23284000  0.05521000  0.32685000  1
  C  C384  1  0.22802000  0.40896000  0.76264000  1
  C  C385  1  0.22802000  0.09104000  0.23736000  1
  C  C386  1  0.22785000  0.45932000  0.72450000  1
  C  C387  1  0.22785000  0.04068000  0.27550000  1
  C  C388  1  0.22686000  0.30802000  0.83502000  1
  C  C389  1  0.22686000  0.19198000  0.16498000  1
  C  C390  1  0.22489000  0.25350000  0.87397000  1
  C  C391  1  0.22489000  0.24650000  0.12603000  1
  C  C392  1  0.22105000  0.42354000  0.81584000  1
  C  C393  1  0.22105000  0.07646000  0.18416000  1
  C  C394  1  0.22080000  0.37396000  0.85163000  1
  C  C395  1  0.22080000  0.12604000  0.14837000  1
  C  C396  1  0.16515000  0.66273000  0.50374000  1
  C  C397  1  0.16515000  0.83727000  0.49626000  1
  C  C398  1  0.13012000  0.07200000  0.98634000  1
  C  C399  1  0.13012000  0.42800000  0.01366000  1
  C  C400  1  0.10046000  0.83727000  0.53587000  1
  C  C401  1  0.10046000  0.66273000  0.46413000  1
  C  C402  1  0.08509000  0.88305000  0.93490000  1
  C  C403  1  0.08509000  0.61695000  0.06510000  1
  C  C404  1  0.07533000  0.59106000  0.55099000  1
  C  C405  1  0.07533000  0.90894000  0.44901000  1
  C  C406  1  0.06328000  0.42876000  0.97497000  1
  C  C407  1  0.06328000  0.07124000  0.02503000  1
  C  C408  1  0.05774000  0.15779000  0.94619000  1
  C  C409  1  0.05774000  0.34221000  0.05381000  1
  C  C410  1  0.05567000  0.37452000  0.57289000  1
  C  C411  1  0.05567000  0.12548000  0.42711000  1
  C  C412  1  0.04171000  0.93707000  0.85127000  1
  C  C413  1  0.04171000  0.56293000  0.14873000  1
  C  C414  1  0.03863000  0.82479000  0.85402000  1
  C  C415  1  0.03863000  0.67521000  0.14598000  1
  C  C416  1  0.02739000  0.91301000  0.79762000  1
  C  C417  1  0.02739000  0.58699000  0.20238000  1
  C  C418  1  0.02351000  0.84516000  0.79925000  1
  C  C419  1  0.02351000  0.65484000  0.20075000  1
  C  C420  1  0.02177000  0.94764000  0.75200000  1
  C  C421  1  0.02177000  0.55236000  0.24800000  1
  C  C422  1  0.01926000  0.87487000  0.53172000  1
  C  C423  1  0.01926000  0.62513000  0.46828000  1
  C  C424  1  0.01554000  0.31884000  0.65659000  1
  C  C425  1  0.01554000  0.18116000  0.34341000  1
  C  C426  1  0.01262000  0.65947000  0.98328000  1
  C  C427  1  0.01262000  0.84053000  0.01672000  1
  C  C428  1  0.01159000  0.80744000  0.75563000  1
  C  C429  1  0.01159000  0.69256000  0.24437000  1
  C  C430  1  0.01014000  0.91001000  0.70828000  1
  C  C431  1  0.01014000  0.58999000  0.29172000  1
  C  C432  1  0.00909000  0.88410000  0.97587000  1
  C  C433  1  0.00909000  0.61590000  0.02413000  1
  C  C434  1  0.00754000  0.58888000  0.51272000  1
  C  C435  1  0.00754000  0.91112000  0.48728000  1
  C  C436  1  0.00394000  0.84232000  0.71011000  1
  C  C437  1  0.00394000  0.65768000  0.28989000  1
  C  C438  1  0.00222000  0.43067000  0.65353000  1
  C  C439  1  0.00222000  0.06933000  0.34647000  1
  N  N440  1  0.98184000  0.87408000  0.62543000  1
  N  N441  1  0.98184000  0.62592000  0.37457000  1
  N  N442  1  0.95153000  0.38181000  0.88233000  1
  N  N443  1  0.95153000  0.11819000  0.11767000  1
  N  N444  1  0.87130000  0.61537000  0.94800000  1
  N  N445  1  0.87130000  0.88463000  0.05200000  1
  N  N446  1  0.84699000  0.12757000  0.54694000  1
  N  N447  1  0.84699000  0.37243000  0.45306000  1
  N  N448  1  0.65301000  0.62757000  0.95306000  1
  N  N449  1  0.65301000  0.87243000  0.04694000  1
  N  N450  1  0.62870000  0.11537000  0.55200000  1
  N  N451  1  0.62870000  0.38463000  0.44800000  1
  N  N452  1  0.54847000  0.88181000  0.61767000  1
  N  N453  1  0.54847000  0.61819000  0.38233000  1
  N  N454  1  0.51816000  0.37408000  0.87457000  1
  N  N455  1  0.51816000  0.12592000  0.12543000  1
  N  N456  1  0.48184000  0.87408000  0.87457000  1
  N  N457  1  0.48184000  0.62592000  0.12543000  1
  N  N458  1  0.45153000  0.38181000  0.61767000  1
  N  N459  1  0.45153000  0.11819000  0.38233000  1
  N  N460  1  0.37130000  0.61537000  0.55200000  1
  N  N461  1  0.37130000  0.88463000  0.44800000  1
  N  N462  1  0.34699000  0.12757000  0.95306000  1
  N  N463  1  0.34699000  0.37243000  0.04694000  1
  N  N464  1  0.15301000  0.62757000  0.54694000  1
  N  N465  1  0.15301000  0.87243000  0.45306000  1
  N  N466  1  0.12870000  0.11537000  0.94800000  1
  N  N467  1  0.12870000  0.38463000  0.05200000  1
  N  N468  1  0.04847000  0.88181000  0.88233000  1
  N  N469  1  0.04847000  0.61819000  0.11767000  1
  N  N470  1  0.01816000  0.37408000  0.62543000  1
  N  N471  1  0.01816000  0.12592000  0.37457000  1
  O  O472  1  0.99960000  0.48481000  0.63568000  1
  O  O473  1  0.99960000  0.01519000  0.36432000  1
  O  O474  1  0.97159000  0.76419000  0.64181000  1
  O  O475  1  0.97159000  0.73581000  0.35819000  1
  O  O476  1  0.95619000  0.27048000  0.87136000  1
  O  O477  1  0.95619000  0.22952000  0.12864000  1
  O  O478  1  0.95302000  0.49236000  0.86654000  1
  O  O479  1  0.95302000  0.00764000  0.13346000  1
  O  O480  1  0.77985000  0.76597000  0.91981000  1
  O  O481  1  0.77985000  0.73403000  0.08019000  1
  O  O482  1  0.77211000  0.69615000  0.85458000  1
  O  O483  1  0.77211000  0.80385000  0.14542000  1
  O  O484  1  0.76602000  0.98294000  0.58691000  1
  O  O485  1  0.76602000  0.51706000  0.41309000  1
  O  O486  1  0.76207000  0.05611000  0.65044000  1
  O  O487  1  0.76207000  0.44389000  0.34956000  1
  O  O488  1  0.73793000  0.55611000  0.84956000  1
  O  O489  1  0.73793000  0.94389000  0.15044000  1
  O  O490  1  0.73398000  0.48294000  0.91309000  1
  O  O491  1  0.73398000  0.01706000  0.08691000  1
  O  O492  1  0.72789000  0.19615000  0.64542000  1
  O  O493  1  0.72789000  0.30385000  0.35458000  1
  O  O494  1  0.72015000  0.26597000  0.58019000  1
  O  O495  1  0.72015000  0.23403000  0.41981000  1
  O  O496  1  0.54698000  0.99236000  0.63346000  1
  O  O497  1  0.54698000  0.50764000  0.36654000  1
  O  O498  1  0.54381000  0.77048000  0.62864000  1
  O  O499  1  0.54381000  0.72952000  0.37136000  1
  O  O500  1  0.52841000  0.26419000  0.85819000  1
  O  O501  1  0.52841000  0.23581000  0.14181000  1
  O  O502  1  0.50040000  0.98481000  0.86432000  1
  O  O503  1  0.50040000  0.51519000  0.13568000  1
  O  O504  1  0.49960000  0.48481000  0.86432000  1
  O  O505  1  0.49960000  0.01519000  0.13568000  1
  O  O506  1  0.47159000  0.76419000  0.85819000  1
  O  O507  1  0.47159000  0.73581000  0.14181000  1
  O  O508  1  0.45619000  0.27048000  0.62864000  1
  O  O509  1  0.45619000  0.22952000  0.37136000  1
  O  O510  1  0.45302000  0.49236000  0.63346000  1
  O  O511  1  0.45302000  0.00764000  0.36654000  1
  O  O512  1  0.27985000  0.76597000  0.58019000  1
  O  O513  1  0.27985000  0.73403000  0.41981000  1
  O  O514  1  0.27211000  0.69615000  0.64542000  1
  O  O515  1  0.27211000  0.80385000  0.35458000  1
  O  O516  1  0.26602000  0.98294000  0.91309000  1
  O  O517  1  0.26602000  0.51706000  0.08691000  1
  O  O518  1  0.26207000  0.05611000  0.84956000  1
  O  O519  1  0.26207000  0.44389000  0.15044000  1
  O  O520  1  0.23793000  0.55611000  0.65044000  1
  O  O521  1  0.23793000  0.94389000  0.34956000  1
  O  O522  1  0.23398000  0.48294000  0.58691000  1
  O  O523  1  0.23398000  0.01706000  0.41309000  1
  O  O524  1  0.22789000  0.19615000  0.85458000  1
  O  O525  1  0.22789000  0.30385000  0.14542000  1
  O  O526  1  0.22015000  0.26597000  0.91981000  1
  O  O527  1  0.22015000  0.23403000  0.08019000  1
  O  O528  1  0.04698000  0.99236000  0.86654000  1
  O  O529  1  0.04698000  0.50764000  0.13346000  1
  O  O530  1  0.04381000  0.77048000  0.87136000  1
  O  O531  1  0.04381000  0.72952000  0.12864000  1
  O  O532  1  0.02841000  0.26419000  0.64181000  1
  O  O533  1  0.02841000  0.23581000  0.35819000  1
  O  O534  1  0.00040000  0.98481000  0.63568000  1
  O  O535  1  0.00040000  0.51519000  0.36432000  1
