# generated using pymatgen
data_GdH6C21(NO3)6
_symmetry_space_group_name_H-M   'P 1'
_cell_length_a   13.65200000
_cell_length_b   24.69800000
_cell_length_c   30.14300000
_cell_angle_alpha   90.00000000
_cell_angle_beta   90.00000000
_cell_angle_gamma   94.93500000
_symmetry_Int_Tables_number   1
_chemical_formula_structural   GdH6C21(NO3)6
_chemical_formula_sum   'Gd8 H48 C168 N48 O144'
_cell_volume   10125.85231155
_cell_formula_units_Z   8
loop_
 _symmetry_equiv_pos_site_id
 _symmetry_equiv_pos_as_xyz
  1  'x, y, z'
loop_
 _atom_site_type_symbol
 _atom_site_label
 _atom_site_symmetry_multiplicity
 _atom_site_fract_x
 _atom_site_fract_y
 _atom_site_fract_z
 _atom_site_occupancy
  Gd  Gd0  1  0.14000000  0.77732000  0.72633000  1
  Gd  Gd1  1  0.14237000  0.27778000  0.24635000  1
  Gd  Gd2  1  0.35763000  0.22222000  0.74635000  1
  Gd  Gd3  1  0.36000000  0.72268000  0.22633000  1
  Gd  Gd4  1  0.64000000  0.27732000  0.77367000  1
  Gd  Gd5  1  0.64237000  0.77778000  0.25365000  1
  Gd  Gd6  1  0.85763000  0.72222000  0.75365000  1
  Gd  Gd7  1  0.86000000  0.22268000  0.27367000  1
  H  H8  1  0.00230000  0.95330000  0.70130000  1
  H  H9  1  0.02950000  0.56570000  0.80620000  1
  H  H10  1  0.05790000  0.78330000  0.58280000  1
  H  H11  1  0.06640000  0.26070000  0.09890000  1
  H  H12  1  0.14910000  0.31150000  0.63480000  1
  H  H13  1  0.17950000  0.64140000  0.70650000  1
  H  H14  1  0.18870000  0.14140000  0.22620000  1
  H  H15  1  0.19120000  0.82130000  0.10680000  1
  H  H16  1  0.19780000  0.30290000  0.39400000  1
  H  H17  1  0.20690000  0.79440000  0.86770000  1
  H  H18  1  0.22590000  0.66470000  0.08310000  1
  H  H19  1  0.24000000  0.16840000  0.60290000  1
  H  H20  1  0.26000000  0.33160000  0.10290000  1
  H  H21  1  0.27410000  0.83530000  0.58310000  1
  H  H22  1  0.29310000  0.70560000  0.36770000  1
  H  H23  1  0.30220000  0.19710000  0.89400000  1
  H  H24  1  0.30880000  0.67870000  0.60680000  1
  H  H25  1  0.31130000  0.35860000  0.72620000  1
  H  H26  1  0.32050000  0.85860000  0.20650000  1
  H  H27  1  0.35090000  0.18850000  0.13480000  1
  H  H28  1  0.43360000  0.23930000  0.59890000  1
  H  H29  1  0.44210000  0.71670000  0.08280000  1
  H  H30  1  0.47050000  0.93430000  0.30620000  1
  H  H31  1  0.49770000  0.54670000  0.20130000  1
  H  H32  1  0.50230000  0.45330000  0.79870000  1
  H  H33  1  0.52950000  0.06570000  0.69380000  1
  H  H34  1  0.55790000  0.28330000  0.91720000  1
  H  H35  1  0.56640000  0.76070000  0.40110000  1
  H  H36  1  0.64910000  0.81150000  0.86520000  1
  H  H37  1  0.67950000  0.14140000  0.79350000  1
  H  H38  1  0.68870000  0.64140000  0.27380000  1
  H  H39  1  0.69120000  0.32130000  0.39320000  1
  H  H40  1  0.69780000  0.80290000  0.10600000  1
  H  H41  1  0.70690000  0.29440000  0.63230000  1
  H  H42  1  0.72590000  0.16470000  0.41690000  1
  H  H43  1  0.74000000  0.66840000  0.89710000  1
  H  H44  1  0.76000000  0.83160000  0.39710000  1
  H  H45  1  0.77410000  0.33530000  0.91690000  1
  H  H46  1  0.79310000  0.20560000  0.13230000  1
  H  H47  1  0.80220000  0.69710000  0.60600000  1
  H  H48  1  0.80880000  0.17870000  0.89320000  1
  H  H49  1  0.81130000  0.85860000  0.77380000  1
  H  H50  1  0.82050000  0.35860000  0.29350000  1
  H  H51  1  0.85090000  0.68850000  0.36520000  1
  H  H52  1  0.93360000  0.73930000  0.90110000  1
  H  H53  1  0.94210000  0.21670000  0.41720000  1
  H  H54  1  0.97050000  0.43430000  0.19380000  1
  H  H55  1  0.99770000  0.04670000  0.29870000  1
  C  C56  1  0.00110000  0.23390000  0.42750000  1
  C  C57  1  0.00140000  0.25080000  0.09110000  1
  C  C58  1  0.01570000  0.65030000  0.75500000  1
  C  C59  1  0.01780000  0.14770000  0.26700000  1
  C  C60  1  0.02230000  0.23320000  0.47170000  1
  C  C61  1  0.02880000  0.74690000  0.95240000  1
  C  C62  1  0.03560000  0.76450000  0.82900000  1
  C  C63  1  0.04510000  0.25840000  0.34840000  1
  C  C64  1  0.05610000  0.05190000  0.28280000  1
  C  C65  1  0.06630000  0.76620000  0.87760000  1
  C  C66  1  0.06670000  0.25990000  0.39780000  1
  C  C67  1  0.08080000  0.56760000  0.78580000  1
  C  C68  1  0.08420000  0.10220000  0.26210000  1
  C  C69  1  0.09080000  0.60940000  0.75570000  1
  C  C70  1  0.10950000  0.25970000  0.48950000  1
  C  C71  1  0.11720000  0.01100000  0.27880000  1
  C  C72  1  0.12410000  0.76120000  0.96640000  1
  C  C73  1  0.12590000  0.29110000  0.57050000  1
  C  C74  1  0.13880000  0.25240000  0.53720000  1
  C  C75  1  0.14680000  0.52840000  0.78580000  1
  C  C76  1  0.15240000  0.28570000  0.41350000  1
  C  C77  1  0.15380000  0.79640000  0.04470000  1
  C  C78  1  0.15430000  0.75540000  0.01390000  1
  C  C79  1  0.15780000  0.28480000  0.61370000  1
  C  C80  1  0.16150000  0.78180000  0.88910000  1
  C  C81  1  0.16950000  0.10830000  0.23950000  1
  C  C82  1  0.16950000  0.61230000  0.72610000  1
  C  C83  1  0.17080000  0.28610000  0.45840000  1
  C  C84  1  0.18080000  0.70560000  0.03000000  1
  C  C85  1  0.18420000  0.20770000  0.55140000  1
  C  C86  1  0.18680000  0.79150000  0.08780000  1
  C  C87  1  0.18920000  0.77860000  0.93300000  1
  C  C88  1  0.20190000  0.23940000  0.62530000  1
  C  C89  1  0.20640000  0.01610000  0.25630000  1
  C  C90  1  0.20940000  0.69850000  0.07350000  1
  C  C91  1  0.21300000  0.20030000  0.59480000  1
  C  C92  1  0.21330000  0.74160000  0.10230000  1
  C  C93  1  0.22350000  0.52780000  0.75570000  1
  C  C94  1  0.22930000  0.06580000  0.23580000  1
  C  C95  1  0.23190000  0.57170000  0.72620000  1
  C  C96  1  0.24030000  0.23160000  0.67170000  1
  C  C97  1  0.24750000  0.76460000  0.64860000  1
  C  C98  1  0.25250000  0.73540000  0.14860000  1
  C  C99  1  0.25970000  0.26840000  0.17170000  1
  C  C100  1  0.26810000  0.92830000  0.22620000  1
  C  C101  1  0.27070000  0.43420000  0.73580000  1
  C  C102  1  0.27650000  0.97220000  0.25570000  1
  C  C103  1  0.28670000  0.75840000  0.60230000  1
  C  C104  1  0.28700000  0.29970000  0.09480000  1
  C  C105  1  0.29060000  0.80150000  0.57350000  1
  C  C106  1  0.29360000  0.48390000  0.75630000  1
  C  C107  1  0.29810000  0.26060000  0.12530000  1
  C  C108  1  0.31080000  0.72140000  0.43300000  1
  C  C109  1  0.31320000  0.70850000  0.58780000  1
  C  C110  1  0.31580000  0.29230000  0.05140000  1
  C  C111  1  0.31920000  0.79440000  0.53000000  1
  C  C112  1  0.32920000  0.21390000  0.95840000  1
  C  C113  1  0.33050000  0.39170000  0.73950000  1
  C  C114  1  0.33050000  0.88770000  0.22610000  1
  C  C115  1  0.33850000  0.71820000  0.38910000  1
  C  C116  1  0.34220000  0.21520000  0.11370000  1
  C  C117  1  0.34570000  0.74460000  0.51390000  1
  C  C118  1  0.34620000  0.70360000  0.54470000  1
  C  C119  1  0.34760000  0.21430000  0.91350000  1
  C  C120  1  0.35320000  0.97160000  0.28580000  1
  C  C121  1  0.36120000  0.24760000  0.03720000  1
  C  C122  1  0.37410000  0.20890000  0.07050000  1
  C  C123  1  0.37590000  0.73880000  0.46640000  1
  C  C124  1  0.38280000  0.48900000  0.77880000  1
  C  C125  1  0.39050000  0.24030000  0.98950000  1
  C  C126  1  0.40920000  0.89060000  0.25570000  1
  C  C127  1  0.41580000  0.39780000  0.76210000  1
  C  C128  1  0.41920000  0.93240000  0.28580000  1
  C  C129  1  0.43330000  0.24010000  0.89780000  1
  C  C130  1  0.43370000  0.73380000  0.37760000  1
  C  C131  1  0.44390000  0.44810000  0.78280000  1
  C  C132  1  0.45490000  0.24160000  0.84840000  1
  C  C133  1  0.46440000  0.73550000  0.32900000  1
  C  C134  1  0.47120000  0.75310000  0.45240000  1
  C  C135  1  0.47770000  0.26680000  0.97170000  1
  C  C136  1  0.48220000  0.35230000  0.76700000  1
  C  C137  1  0.48430000  0.84970000  0.25500000  1
  C  C138  1  0.49860000  0.24920000  0.59110000  1
  C  C139  1  0.49890000  0.26610000  0.92750000  1
  C  C140  1  0.50110000  0.73390000  0.07250000  1
  C  C141  1  0.50140000  0.75080000  0.40890000  1
  C  C142  1  0.51570000  0.15030000  0.74500000  1
  C  C143  1  0.51780000  0.64770000  0.23300000  1
  C  C144  1  0.52230000  0.73320000  0.02830000  1
  C  C145  1  0.52880000  0.24690000  0.54760000  1
  C  C146  1  0.53560000  0.26450000  0.67100000  1
  C  C147  1  0.54510000  0.75840000  0.15160000  1
  C  C148  1  0.55610000  0.55190000  0.21720000  1
  C  C149  1  0.56630000  0.26620000  0.62240000  1
  C  C150  1  0.56670000  0.75990000  0.10220000  1
  C  C151  1  0.58080000  0.06760000  0.71420000  1
  C  C152  1  0.58420000  0.60220000  0.23790000  1
  C  C153  1  0.59080000  0.10940000  0.74430000  1
  C  C154  1  0.60950000  0.75970000  0.01050000  1
  C  C155  1  0.61720000  0.51100000  0.22120000  1
  C  C156  1  0.62410000  0.26120000  0.53360000  1
  C  C157  1  0.62590000  0.79110000  0.92950000  1
  C  C158  1  0.63880000  0.75240000  0.96280000  1
  C  C159  1  0.64680000  0.02840000  0.71420000  1
  C  C160  1  0.65240000  0.78570000  0.08650000  1
  C  C161  1  0.65380000  0.29640000  0.45530000  1
  C  C162  1  0.65430000  0.25540000  0.48610000  1
  C  C163  1  0.65780000  0.78480000  0.88630000  1
  C  C164  1  0.66150000  0.28180000  0.61090000  1
  C  C165  1  0.66950000  0.11230000  0.77390000  1
  C  C166  1  0.66950000  0.60830000  0.26050000  1
  C  C167  1  0.67080000  0.78610000  0.04160000  1
  C  C168  1  0.68080000  0.20560000  0.47000000  1
  C  C169  1  0.68420000  0.70770000  0.94860000  1
  C  C170  1  0.68680000  0.29150000  0.41220000  1
  C  C171  1  0.68920000  0.27860000  0.56700000  1
  C  C172  1  0.70190000  0.73940000  0.87470000  1
  C  C173  1  0.70640000  0.51610000  0.24370000  1
  C  C174  1  0.70940000  0.19850000  0.42650000  1
  C  C175  1  0.71300000  0.70030000  0.90520000  1
  C  C176  1  0.71330000  0.24160000  0.39770000  1
  C  C177  1  0.72350000  0.02780000  0.74430000  1
  C  C178  1  0.72930000  0.56580000  0.26420000  1
  C  C179  1  0.73190000  0.07170000  0.77380000  1
  C  C180  1  0.74030000  0.73160000  0.82830000  1
  C  C181  1  0.74750000  0.26460000  0.85140000  1
  C  C182  1  0.75250000  0.23540000  0.35140000  1
  C  C183  1  0.75970000  0.76840000  0.32830000  1
  C  C184  1  0.76810000  0.42830000  0.27380000  1
  C  C185  1  0.77070000  0.93420000  0.76420000  1
  C  C186  1  0.77650000  0.47220000  0.24430000  1
  C  C187  1  0.78670000  0.25840000  0.89770000  1
  C  C188  1  0.78700000  0.79970000  0.40520000  1
  C  C189  1  0.79060000  0.30150000  0.92650000  1
  C  C190  1  0.79360000  0.98390000  0.74370000  1
  C  C191  1  0.79810000  0.76060000  0.37470000  1
  C  C192  1  0.81080000  0.22140000  0.06700000  1
  C  C193  1  0.81320000  0.20850000  0.91220000  1
  C  C194  1  0.81580000  0.79230000  0.44860000  1
  C  C195  1  0.81920000  0.29440000  0.97000000  1
  C  C196  1  0.82920000  0.71390000  0.54160000  1
  C  C197  1  0.83050000  0.38770000  0.27390000  1
  C  C198  1  0.83050000  0.89170000  0.76050000  1
  C  C199  1  0.83850000  0.21820000  0.11090000  1
  C  C200  1  0.84220000  0.71520000  0.38630000  1
  C  C201  1  0.84570000  0.24460000  0.98610000  1
  C  C202  1  0.84620000  0.20360000  0.95530000  1
  C  C203  1  0.84760000  0.71430000  0.58650000  1
  C  C204  1  0.85320000  0.47160000  0.21420000  1
  C  C205  1  0.86120000  0.74760000  0.46280000  1
  C  C206  1  0.87410000  0.70890000  0.42950000  1
  C  C207  1  0.87590000  0.23880000  0.03360000  1
  C  C208  1  0.88280000  0.98900000  0.72120000  1
  C  C209  1  0.89050000  0.74030000  0.51050000  1
  C  C210  1  0.90920000  0.39060000  0.24430000  1
  C  C211  1  0.91580000  0.89780000  0.73790000  1
  C  C212  1  0.91920000  0.43240000  0.21420000  1
  C  C213  1  0.93330000  0.74010000  0.60220000  1
  C  C214  1  0.93370000  0.23380000  0.12240000  1
  C  C215  1  0.94390000  0.94810000  0.71720000  1
  C  C216  1  0.95490000  0.74160000  0.65160000  1
  C  C217  1  0.96440000  0.23550000  0.17100000  1
  C  C218  1  0.97120000  0.25310000  0.04760000  1
  C  C219  1  0.97770000  0.76680000  0.52830000  1
  C  C220  1  0.98220000  0.85230000  0.73300000  1
  C  C221  1  0.98430000  0.34970000  0.24500000  1
  C  C222  1  0.99860000  0.74920000  0.90890000  1
  C  C223  1  0.99890000  0.76610000  0.57250000  1
  N  N224  1  0.04690000  0.27320000  0.01580000  1
  N  N225  1  0.04880000  0.79600000  0.49840000  1
  N  N226  1  0.07710000  0.34050000  0.56000000  1
  N  N227  1  0.08200000  0.95890000  0.30070000  1
  N  N228  1  0.12130000  0.84960000  0.03310000  1
  N  N229  1  0.12940000  0.48600000  0.82010000  1
  N  N230  1  0.18040000  0.42540000  0.71000000  1
  N  N231  1  0.18190000  0.65760000  0.00060000  1
  N  N232  1  0.18970000  0.92520000  0.19230000  1
  N  N233  1  0.20440000  0.70730000  0.44320000  1
  N  N234  1  0.20480000  0.16360000  0.52010000  1
  N  N235  1  0.23570000  0.18320000  0.97210000  1
  N  N236  1  0.26430000  0.31680000  0.47210000  1
  N  N237  1  0.29520000  0.33640000  0.02010000  1
  N  N238  1  0.29560000  0.79270000  0.94320000  1
  N  N239  1  0.31030000  0.57480000  0.69230000  1
  N  N240  1  0.31810000  0.84240000  0.50060000  1
  N  N241  1  0.31960000  0.07460000  0.21000000  1
  N  N242  1  0.37060000  0.01400000  0.32010000  1
  N  N243  1  0.37870000  0.65040000  0.53310000  1
  N  N244  1  0.41800000  0.54110000  0.80070000  1
  N  N245  1  0.42290000  0.15950000  0.06000000  1
  N  N246  1  0.45120000  0.70400000  0.99840000  1
  N  N247  1  0.45310000  0.22680000  0.51580000  1
  N  N248  1  0.54690000  0.77320000  0.48420000  1
  N  N249  1  0.54880000  0.29600000  0.00160000  1
  N  N250  1  0.57710000  0.84050000  0.94000000  1
  N  N251  1  0.58200000  0.45890000  0.19930000  1
  N  N252  1  0.62130000  0.34960000  0.46690000  1
  N  N253  1  0.62940000  0.98600000  0.67990000  1
  N  N254  1  0.68040000  0.92540000  0.79000000  1
  N  N255  1  0.68190000  0.15760000  0.49940000  1
  N  N256  1  0.68970000  0.42520000  0.30770000  1
  N  N257  1  0.70440000  0.20730000  0.05680000  1
  N  N258  1  0.70480000  0.66360000  0.97990000  1
  N  N259  1  0.73570000  0.68320000  0.52790000  1
  N  N260  1  0.76430000  0.81680000  0.02790000  1
  N  N261  1  0.79520000  0.83640000  0.47990000  1
  N  N262  1  0.79560000  0.29270000  0.55680000  1
  N  N263  1  0.81030000  0.07480000  0.80770000  1
  N  N264  1  0.81810000  0.34240000  0.99940000  1
  N  N265  1  0.81960000  0.57460000  0.29000000  1
  N  N266  1  0.87060000  0.51400000  0.17990000  1
  N  N267  1  0.87870000  0.15040000  0.96690000  1
  N  N268  1  0.91800000  0.04110000  0.69930000  1
  N  N269  1  0.92290000  0.65950000  0.44000000  1
  N  N270  1  0.95120000  0.20400000  0.50160000  1
  N  N271  1  0.95310000  0.72680000  0.98420000  1
  O  O272  1  0.01990000  0.95930000  0.32840000  1
  O  O273  1  0.03100000  0.29600000  0.98520000  1
  O  O274  1  0.03640000  0.76700000  0.66280000  1
  O  O275  1  0.03890000  0.69630000  0.73880000  1
  O  O276  1  0.04060000  0.79050000  0.45860000  1
  O  O277  1  0.04460000  0.34740000  0.52320000  1
  O  O278  1  0.04600000  0.25670000  0.18080000  1
  O  O279  1  0.05320000  0.19470000  0.25800000  1
  O  O280  1  0.06700000  0.37330000  0.58940000  1
  O  O281  1  0.06760000  0.85170000  0.00140000  1
  O  O282  1  0.06800000  0.36220000  0.22990000  1
  O  O283  1  0.06940000  0.86380000  0.72080000  1
  O  O284  1  0.07990000  0.49420000  0.85080000  1
  O  O285  1  0.10060000  0.78360000  0.80140000  1
  O  O286  1  0.10930000  0.28080000  0.32390000  1
  O  O287  1  0.11180000  0.91740000  0.28860000  1
  O  O288  1  0.11400000  0.82550000  0.51600000  1
  O  O289  1  0.12740000  0.25270000  0.01950000  1
  O  O290  1  0.13720000  0.45990000  0.69840000  1
  O  O291  1  0.14710000  0.70290000  0.41190000  1
  O  O292  1  0.14720000  0.37930000  0.70410000  1
  O  O293  1  0.14840000  0.96270000  0.18440000  1
  O  O294  1  0.14990000  0.88810000  0.05430000  1
  O  O295  1  0.15590000  0.44230000  0.81360000  1
  O  O296  1  0.16910000  0.17750000  0.94580000  1
  O  O297  1  0.17170000  0.88480000  0.17400000  1
  O  O298  1  0.17380000  0.16180000  0.48430000  1
  O  O299  1  0.17480000  0.61400000  0.01780000  1
  O  O300  1  0.18030000  0.70300000  0.48230000  1
  O  O301  1  0.19460000  0.66530000  0.96090000  1
  O  O302  1  0.22200000  0.72270000  0.67100000  1
  O  O303  1  0.23500000  0.16100000  0.00940000  1
  O  O304  1  0.23880000  0.36760000  0.03180000  1
  O  O305  1  0.24050000  0.81230000  0.66320000  1
  O  O306  1  0.24220000  0.31470000  0.18350000  1
  O  O307  1  0.24400000  0.22690000  0.19550000  1
  O  O308  1  0.25600000  0.27310000  0.69550000  1
  O  O309  1  0.25780000  0.18530000  0.68350000  1
  O  O310  1  0.25950000  0.68770000  0.16320000  1
  O  O311  1  0.26120000  0.13240000  0.53180000  1
  O  O312  1  0.26500000  0.33900000  0.50940000  1
  O  O313  1  0.27800000  0.77730000  0.17100000  1
  O  O314  1  0.30540000  0.83470000  0.46090000  1
  O  O315  1  0.31970000  0.79700000  0.98230000  1
  O  O316  1  0.32520000  0.88600000  0.51780000  1
  O  O317  1  0.32620000  0.33820000  0.98430000  1
  O  O318  1  0.32830000  0.61520000  0.67400000  1
  O  O319  1  0.33090000  0.32250000  0.44580000  1
  O  O320  1  0.34410000  0.05770000  0.31360000  1
  O  O321  1  0.35010000  0.61190000  0.55430000  1
  O  O322  1  0.35160000  0.53730000  0.68440000  1
  O  O323  1  0.35280000  0.12070000  0.20410000  1
  O  O324  1  0.35290000  0.79710000  0.91190000  1
  O  O325  1  0.36280000  0.04010000  0.19840000  1
  O  O326  1  0.37260000  0.24730000  0.51950000  1
  O  O327  1  0.38600000  0.67450000  0.01600000  1
  O  O328  1  0.38820000  0.58260000  0.78860000  1
  O  O329  1  0.39070000  0.21920000  0.82390000  1
  O  O330  1  0.39940000  0.71640000  0.30140000  1
  O  O331  1  0.42010000  0.00580000  0.35080000  1
  O  O332  1  0.43060000  0.63620000  0.22080000  1
  O  O333  1  0.43200000  0.13780000  0.72990000  1
  O  O334  1  0.43240000  0.64830000  0.50140000  1
  O  O335  1  0.43300000  0.12670000  0.08940000  1
  O  O336  1  0.44680000  0.30530000  0.75800000  1
  O  O337  1  0.45400000  0.24330000  0.68080000  1
  O  O338  1  0.45540000  0.15260000  0.02320000  1
  O  O339  1  0.45940000  0.70950000  0.95860000  1
  O  O340  1  0.46110000  0.80370000  0.23880000  1
  O  O341  1  0.46360000  0.73300000  0.16280000  1
  O  O342  1  0.46900000  0.20400000  0.48520000  1
  O  O343  1  0.48010000  0.54070000  0.82840000  1
  O  O344  1  0.51990000  0.45930000  0.17160000  1
  O  O345  1  0.53100000  0.79600000  0.51480000  1
  O  O346  1  0.53640000  0.26700000  0.83720000  1
  O  O347  1  0.53890000  0.19630000  0.76120000  1
  O  O348  1  0.54060000  0.29050000  0.04140000  1
  O  O349  1  0.54460000  0.84740000  0.97680000  1
  O  O350  1  0.54600000  0.75670000  0.31920000  1
  O  O351  1  0.55320000  0.69470000  0.24200000  1
  O  O352  1  0.56700000  0.87330000  0.91060000  1
  O  O353  1  0.56760000  0.35170000  0.49860000  1
  O  O354  1  0.56800000  0.86220000  0.27010000  1
  O  O355  1  0.56940000  0.36380000  0.77920000  1
  O  O356  1  0.57990000  0.99420000  0.64920000  1
  O  O357  1  0.60060000  0.28360000  0.69860000  1
  O  O358  1  0.60930000  0.78080000  0.17610000  1
  O  O359  1  0.61180000  0.41740000  0.21140000  1
  O  O360  1  0.61400000  0.32550000  0.98400000  1
  O  O361  1  0.62740000  0.75270000  0.48050000  1
  O  O362  1  0.63720000  0.95990000  0.80160000  1
  O  O363  1  0.64710000  0.20290000  0.08810000  1
  O  O364  1  0.64720000  0.87930000  0.79590000  1
  O  O365  1  0.64840000  0.46270000  0.31560000  1
  O  O366  1  0.64990000  0.38810000  0.44570000  1
  O  O367  1  0.65590000  0.94230000  0.68640000  1
  O  O368  1  0.66910000  0.67750000  0.55420000  1
  O  O369  1  0.67170000  0.38480000  0.32600000  1
  O  O370  1  0.67380000  0.66180000  0.01570000  1
  O  O371  1  0.67480000  0.11400000  0.48220000  1
  O  O372  1  0.68030000  0.20300000  0.01770000  1
  O  O373  1  0.69460000  0.16530000  0.53910000  1
  O  O374  1  0.72200000  0.22270000  0.82900000  1
  O  O375  1  0.73500000  0.66100000  0.49060000  1
  O  O376  1  0.73880000  0.86760000  0.46820000  1
  O  O377  1  0.74050000  0.31230000  0.83680000  1
  O  O378  1  0.74220000  0.81470000  0.31650000  1
  O  O379  1  0.74400000  0.72690000  0.30450000  1
  O  O380  1  0.75600000  0.77310000  0.80450000  1
  O  O381  1  0.75780000  0.68530000  0.81650000  1
  O  O382  1  0.75950000  0.18770000  0.33680000  1
  O  O383  1  0.76120000  0.63240000  0.96820000  1
  O  O384  1  0.76500000  0.83900000  0.99060000  1
  O  O385  1  0.77800000  0.27730000  0.32900000  1
  O  O386  1  0.80540000  0.33470000  0.03910000  1
  O  O387  1  0.81970000  0.29700000  0.51770000  1
  O  O388  1  0.82520000  0.38600000  0.98220000  1
  O  O389  1  0.82620000  0.83820000  0.51570000  1
  O  O390  1  0.82830000  0.11520000  0.82600000  1
  O  O391  1  0.83090000  0.82250000  0.05420000  1
  O  O392  1  0.84410000  0.55770000  0.18640000  1
  O  O393  1  0.85010000  0.11190000  0.94570000  1
  O  O394  1  0.85160000  0.03730000  0.81560000  1
  O  O395  1  0.85280000  0.62070000  0.29590000  1
  O  O396  1  0.85290000  0.29710000  0.58810000  1
  O  O397  1  0.86280000  0.54010000  0.30160000  1
  O  O398  1  0.87260000  0.74730000  0.98050000  1
  O  O399  1  0.88600000  0.17450000  0.48400000  1
  O  O400  1  0.88820000  0.08260000  0.71140000  1
  O  O401  1  0.89070000  0.71920000  0.67610000  1
  O  O402  1  0.89940000  0.21640000  0.19860000  1
  O  O403  1  0.92010000  0.50580000  0.14920000  1
  O  O404  1  0.93060000  0.13620000  0.27920000  1
  O  O405  1  0.93200000  0.63780000  0.77010000  1
  O  O406  1  0.93240000  0.14830000  0.99860000  1
  O  O407  1  0.93300000  0.62670000  0.41060000  1
  O  O408  1  0.94680000  0.80530000  0.74200000  1
  O  O409  1  0.95400000  0.74330000  0.81920000  1
  O  O410  1  0.95540000  0.65260000  0.47680000  1
  O  O411  1  0.95940000  0.20950000  0.54140000  1
  O  O412  1  0.96110000  0.30370000  0.26120000  1
  O  O413  1  0.96360000  0.23300000  0.33720000  1
  O  O414  1  0.96900000  0.70400000  0.01480000  1
  O  O415  1  0.98010000  0.04070000  0.67160000  1
