# generated using pymatgen
data_LaCd4H120(C11O3)16
_symmetry_space_group_name_H-M   'P 1'
_cell_length_a   15.74400000
_cell_length_b   18.34300000
_cell_length_c   28.12100000
_cell_angle_alpha   104.42200000
_cell_angle_beta   92.25200000
_cell_angle_gamma   108.12200000
_symmetry_Int_Tables_number   1
_chemical_formula_structural   LaCd4H120(C11O3)16
_chemical_formula_sum   'La1 Cd4 H120 C176 O48'
_cell_volume   7414.67724055
_cell_formula_units_Z   1
loop_
 _symmetry_equiv_pos_site_id
 _symmetry_equiv_pos_as_xyz
  1  'x, y, z'
loop_
 _atom_site_type_symbol
 _atom_site_label
 _atom_site_symmetry_multiplicity
 _atom_site_fract_x
 _atom_site_fract_y
 _atom_site_fract_z
 _atom_site_occupancy
  La  La0  1  0.32351000  0.26539000  0.76871000  1
  Cd  Cd1  1  0.12951000  0.35052000  0.75923000  1
  Cd  Cd2  1  0.47811000  0.14018000  0.72229000  1
  Cd  Cd3  1  0.52189000  0.85982000  0.27771000  1
  Cd  Cd4  1  0.87049000  0.64948000  0.24077000  1
  H  H5  1  0.00730000  0.10600000  0.32110000  1
  H  H6  1  0.00980000  0.57120000  0.37530000  1
  H  H7  1  0.04200000  0.36150000  0.43440000  1
  H  H8  1  0.05110000  0.98270000  0.18880000  1
  H  H9  1  0.06250000  0.88740000  0.93450000  1
  H  H10  1  0.07640000  0.27950000  0.21600000  1
  H  H11  1  0.07640000  0.87750000  0.31940000  1
  H  H12  1  0.08350000  0.36850000  0.00590000  1
  H  H13  1  0.08830000  0.86590000  0.77620000  1
  H  H14  1  0.08840000  0.38540000  0.92740000  1
  H  H15  1  0.09620000  0.01960000  0.71800000  1
  H  H16  1  0.10130000  0.04480000  0.03390000  1
  H  H17  1  0.10580000  0.51310000  0.40210000  1
  H  H18  1  0.11450000  0.08280000  0.85990000  1
  H  H19  1  0.11910000  0.56130000  0.24830000  1
  H  H20  1  0.12460000  0.93140000  0.90090000  1
  H  H21  1  0.13000000  0.37110000  0.22810000  1
  H  H22  1  0.13100000  0.34590000  0.44820000  1
  H  H23  1  0.13180000  0.85120000  0.90780000  1
  H  H24  1  0.13250000  0.43310000  0.45220000  1
  H  H25  1  0.14130000  0.07130000  0.98830000  1
  H  H26  1  0.14760000  0.32180000  0.26340000  1
  H  H27  1  0.17370000  0.99700000  0.36150000  1
  H  H28  1  0.17440000  0.01170000  0.24830000  1
  H  H29  1  0.18050000  0.09870000  0.43860000  1
  H  H30  1  0.18050000  0.19280000  0.25250000  1
  H  H31  1  0.18440000  0.21950000  0.54330000  1
  H  H32  1  0.18770000  0.50840000  0.14690000  1
  H  H33  1  0.19610000  0.11060000  0.04120000  1
  H  H34  1  0.21190000  0.41180000  0.07790000  1
  H  H35  1  0.21620000  0.91540000  0.74160000  1
  H  H36  1  0.21690000  0.50580000  0.27550000  1
  H  H37  1  0.22440000  0.21770000  0.97410000  1
  H  H38  1  0.22960000  0.15790000  0.28620000  1
  H  H39  1  0.23340000  0.20900000  0.61890000  1
  H  H40  1  0.23720000  0.23820000  0.89720000  1
  H  H41  1  0.24620000  0.13560000  0.82800000  1
  H  H42  1  0.26420000  0.24960000  0.29080000  1
  H  H43  1  0.26590000  0.36150000  0.52950000  1
  H  H44  1  0.27770000  0.63500000  0.19020000  1
  H  H45  1  0.27820000  0.96620000  0.28050000  1
  H  H46  1  0.28090000  0.43030000  0.50370000  1
  H  H47  1  0.29180000  0.00990000  0.12520000  1
  H  H48  1  0.32470000  0.24370000  0.18950000  1
  H  H49  1  0.33310000  0.16670000  0.20100000  1
  H  H50  1  0.33960000  0.53350000  0.33320000  1
  H  H51  1  0.35080000  0.41810000  0.20870000  1
  H  H52  1  0.35990000  0.42890000  0.53880000  1
  H  H53  1  0.37210000  0.35020000  0.66350000  1
  H  H54  1  0.39170000  0.95590000  0.15450000  1
  H  H55  1  0.39480000  0.20580000  0.16540000  1
  H  H56  1  0.39580000  0.57270000  0.74220000  1
  H  H57  1  0.40940000  0.21980000  0.49720000  1
  H  H58  1  0.45080000  0.54800000  0.24630000  1
  H  H59  1  0.45950000  0.19310000  0.56950000  1
  H  H60  1  0.46500000  0.64450000  0.59390000  1
  H  H61  1  0.47360000  0.56360000  0.59850000  1
  H  H62  1  0.47830000  0.37800000  0.29140000  1
  H  H63  1  0.48210000  0.39910000  0.44260000  1
  H  H64  1  0.49960000  0.59870000  0.37120000  1
  H  H65  1  0.50040000  0.40130000  0.62880000  1
  H  H66  1  0.51790000  0.60090000  0.55740000  1
  H  H67  1  0.52170000  0.62200000  0.70860000  1
  H  H68  1  0.52640000  0.43640000  0.40150000  1
  H  H69  1  0.53500000  0.35550000  0.40610000  1
  H  H70  1  0.54050000  0.80690000  0.43050000  1
  H  H71  1  0.54920000  0.45200000  0.75370000  1
  H  H72  1  0.59060000  0.78020000  0.50280000  1
  H  H73  1  0.60420000  0.42730000  0.25780000  1
  H  H74  1  0.60520000  0.79420000  0.83460000  1
  H  H75  1  0.60830000  0.04410000  0.84550000  1
  H  H76  1  0.62790000  0.64980000  0.33650000  1
  H  H77  1  0.64010000  0.57110000  0.46120000  1
  H  H78  1  0.64920000  0.58190000  0.79130000  1
  H  H79  1  0.66040000  0.46650000  0.66680000  1
  H  H80  1  0.66690000  0.83330000  0.79900000  1
  H  H81  1  0.67530000  0.75630000  0.81050000  1
  H  H82  1  0.70820000  0.99010000  0.87480000  1
  H  H83  1  0.71910000  0.56970000  0.49630000  1
  H  H84  1  0.72180000  0.03380000  0.71950000  1
  H  H85  1  0.72230000  0.36500000  0.80980000  1
  H  H86  1  0.73410000  0.63850000  0.47050000  1
  H  H87  1  0.73580000  0.75040000  0.70920000  1
  H  H88  1  0.75380000  0.86440000  0.17200000  1
  H  H89  1  0.76280000  0.76180000  0.10280000  1
  H  H90  1  0.76660000  0.79100000  0.38110000  1
  H  H91  1  0.77040000  0.84210000  0.71380000  1
  H  H92  1  0.77560000  0.78230000  0.02590000  1
  H  H93  1  0.78310000  0.49420000  0.72450000  1
  H  H94  1  0.78380000  0.08460000  0.25840000  1
  H  H95  1  0.78810000  0.58820000  0.92210000  1
  H  H96  1  0.80390000  0.88940000  0.95880000  1
  H  H97  1  0.81230000  0.49160000  0.85310000  1
  H  H98  1  0.81560000  0.78050000  0.45670000  1
  H  H99  1  0.81950000  0.80720000  0.74750000  1
  H  H100  1  0.81950000  0.90130000  0.56140000  1
  H  H101  1  0.82560000  0.98830000  0.75170000  1
  H  H102  1  0.82630000  0.00300000  0.63850000  1
  H  H103  1  0.85240000  0.67820000  0.73660000  1
  H  H104  1  0.85870000  0.92870000  0.01170000  1
  H  H105  1  0.86750000  0.56690000  0.54780000  1
  H  H106  1  0.86820000  0.14880000  0.09220000  1
  H  H107  1  0.86900000  0.65410000  0.55180000  1
  H  H108  1  0.87000000  0.62890000  0.77190000  1
  H  H109  1  0.87540000  0.06860000  0.09910000  1
  H  H110  1  0.88090000  0.43870000  0.75170000  1
  H  H111  1  0.88550000  0.91720000  0.14010000  1
  H  H112  1  0.89420000  0.48690000  0.59790000  1
  H  H113  1  0.89870000  0.95520000  0.96610000  1
  H  H114  1  0.90380000  0.98040000  0.28200000  1
  H  H115  1  0.91160000  0.61460000  0.07260000  1
  H  H116  1  0.91170000  0.13410000  0.22380000  1
  H  H117  1  0.91650000  0.63150000  0.99410000  1
  H  H118  1  0.92360000  0.12250000  0.68060000  1
  H  H119  1  0.92360000  0.72050000  0.78400000  1
  H  H120  1  0.93750000  0.11260000  0.06550000  1
  H  H121  1  0.94890000  0.01730000  0.81120000  1
  H  H122  1  0.95800000  0.63850000  0.56560000  1
  H  H123  1  0.99020000  0.42880000  0.62470000  1
  H  H124  1  0.99270000  0.89400000  0.67890000  1
  C  C125  1  0.00620000  0.06040000  0.16600000  1
  C  C126  1  0.01070000  0.39440000  0.71040000  1
  C  C127  1  0.01990000  0.06010000  0.32240000  1
  C  C128  1  0.02210000  0.08390000  0.70310000  1
  C  C129  1  0.03340000  0.12380000  0.14460000  1
  C  C130  1  0.04140000  0.01560000  0.70210000  1
  C  C131  1  0.05090000  0.55750000  0.35510000  1
  C  C132  1  0.05410000  0.57190000  0.30890000  1
  C  C133  1  0.06140000  0.92310000  0.32090000  1
  C  C134  1  0.06870000  0.02620000  0.17580000  1
  C  C135  1  0.08510000  0.96990000  0.81880000  1
  C  C136  1  0.08920000  0.16560000  0.72610000  1
  C  C137  1  0.09140000  0.88020000  0.90500000  1
  C  C138  1  0.10040000  0.06600000  0.34890000  1
  C  C139  1  0.10590000  0.37810000  0.43370000  1
  C  C140  1  0.10890000  0.52280000  0.37110000  1
  C  C141  1  0.11400000  0.34220000  0.98390000  1
  C  C142  1  0.11660000  0.55180000  0.27930000  1
  C  C143  1  0.11760000  0.35340000  0.93690000  1
  C  C144  1  0.11900000  0.92050000  0.78550000  1
  C  C145  1  0.11930000  0.99430000  0.34570000  1
  C  C146  1  0.12190000  0.15360000  0.13610000  1
  C  C147  1  0.13340000  0.32030000  0.22960000  1
  C  C148  1  0.13450000  0.04960000  0.83570000  1
  C  C149  1  0.13620000  0.22100000  0.06680000  1
  C  C150  1  0.13690000  0.08900000  0.02300000  1
  C  C151  1  0.15040000  0.22610000  0.11710000  1
  C  C152  1  0.15400000  0.29360000  0.99870000  1
  C  C153  1  0.15930000  0.05510000  0.16660000  1
  C  C154  1  0.16110000  0.14200000  0.38120000  1
  C  C155  1  0.16110000  0.29220000  0.05140000  1
  C  C156  1  0.16610000  0.31570000  0.90360000  1
  C  C157  1  0.17120000  0.50220000  0.34230000  1
  C  C158  1  0.17170000  0.32730000  0.85440000  1
  C  C159  1  0.17480000  0.51820000  0.29540000  1
  C  C160  1  0.18310000  0.11780000  0.14690000  1
  C  C161  1  0.18650000  0.21570000  0.36880000  1
  C  C162  1  0.18830000  0.29950000  0.15070000  1
  C  C163  1  0.19640000  0.94940000  0.76550000  1
  C  C164  1  0.19660000  0.14510000  0.42840000  1
  C  C165  1  0.19730000  0.36510000  0.08770000  1
  C  C166  1  0.19920000  0.25270000  0.96490000  1
  C  C167  1  0.20600000  0.26430000  0.91880000  1
  C  C168  1  0.20930000  0.39630000  0.37460000  1
  C  C169  1  0.21180000  0.20290000  0.28470000  1
  C  C170  1  0.21240000  0.37090000  0.13720000  1
  C  C171  1  0.21410000  0.08130000  0.81690000  1
  C  C172  1  0.21980000  0.00240000  0.23000000  1
  C  C173  1  0.22400000  0.01770000  0.18380000  1
  C  C174  1  0.23410000  0.46360000  0.35670000  1
  C  C175  1  0.24000000  0.21260000  0.54770000  1
  C  C176  1  0.24000000  0.51560000  0.16660000  1
  C  C177  1  0.24250000  0.28490000  0.39950000  1
  C  C178  1  0.24520000  0.03180000  0.78200000  1
  C  C179  1  0.25460000  0.21460000  0.46020000  1
  C  C180  1  0.26310000  0.44960000  0.17040000  1
  C  C181  1  0.26820000  0.20480000  0.59300000  1
  C  C182  1  0.27010000  0.35840000  0.38270000  1
  C  C183  1  0.27860000  0.28510000  0.44620000  1
  C  C184  1  0.28080000  0.97410000  0.24910000  1
  C  C185  1  0.28830000  0.42290000  0.73090000  1
  C  C186  1  0.28840000  0.00050000  0.15620000  1
  C  C187  1  0.28890000  0.21060000  0.51070000  1
  C  C188  1  0.29490000  0.59170000  0.19230000  1
  C  C189  1  0.30850000  0.39650000  0.51480000  1
  C  C190  1  0.32250000  0.48950000  0.34580000  1
  C  C191  1  0.32350000  0.06590000  0.75740000  1
  C  C192  1  0.33600000  0.19460000  0.17610000  1
  C  C193  1  0.33870000  0.46180000  0.20280000  1
  C  C194  1  0.34550000  0.19140000  0.59910000  1
  C  C195  1  0.34790000  0.95710000  0.22030000  1
  C  C196  1  0.34960000  0.96890000  0.17420000  1
  C  C197  1  0.35830000  0.38670000  0.37070000  1
  C  C198  1  0.36880000  0.45350000  0.70790000  1
  C  C199  1  0.36980000  0.21060000  0.52040000  1
  C  C200  1  0.37440000  0.17760000  0.64820000  1
  C  C201  1  0.37470000  0.60510000  0.22090000  1
  C  C202  1  0.38700000  0.45380000  0.35240000  1
  C  C203  1  0.39780000  0.54020000  0.22690000  1
  C  C204  1  0.40230000  0.40490000  0.67310000  1
  C  C205  1  0.40260000  0.19740000  0.56480000  1
  C  C206  1  0.41470000  0.92400000  0.24020000  1
  C  C207  1  0.41690000  0.53770000  0.71990000  1
  C  C208  1  0.43610000  0.68570000  0.24050000  1
  C  C209  1  0.47330000  0.48280000  0.33440000  1
  C  C210  1  0.47990000  0.43560000  0.65200000  1
  C  C211  1  0.49210000  0.56710000  0.69970000  1
  C  C212  1  0.49630000  0.38750000  0.40930000  1
  C  C213  1  0.50370000  0.61250000  0.59070000  1
  C  C214  1  0.50790000  0.43290000  0.30030000  1
  C  C215  1  0.52010000  0.56440000  0.34800000  1
  C  C216  1  0.52670000  0.51720000  0.66560000  1
  C  C217  1  0.56390000  0.31430000  0.75950000  1
  C  C218  1  0.58310000  0.46230000  0.28010000  1
  C  C219  1  0.58530000  0.07600000  0.75980000  1
  C  C220  1  0.59740000  0.80260000  0.43520000  1
  C  C221  1  0.59770000  0.59510000  0.32690000  1
  C  C222  1  0.60220000  0.45980000  0.77310000  1
  C  C223  1  0.61300000  0.54620000  0.64760000  1
  C  C224  1  0.62530000  0.39490000  0.77910000  1
  C  C225  1  0.62560000  0.82240000  0.35180000  1
  C  C226  1  0.63020000  0.78940000  0.47960000  1
  C  C227  1  0.63120000  0.54650000  0.29210000  1
  C  C228  1  0.64170000  0.61330000  0.62930000  1
  C  C229  1  0.65040000  0.03110000  0.82580000  1
  C  C230  1  0.65210000  0.04290000  0.77970000  1
  C  C231  1  0.65450000  0.80860000  0.40090000  1
  C  C232  1  0.66130000  0.53820000  0.79720000  1
  C  C233  1  0.66400000  0.80540000  0.82390000  1
  C  C234  1  0.67650000  0.93410000  0.24260000  1
  C  C235  1  0.67750000  0.51050000  0.65420000  1
  C  C236  1  0.69150000  0.60350000  0.48520000  1
  C  C237  1  0.70510000  0.40830000  0.80770000  1
  C  C238  1  0.71110000  0.78940000  0.48930000  1
  C  C239  1  0.71160000  0.99950000  0.84380000  1
  C  C240  1  0.71170000  0.57710000  0.26910000  1
  C  C241  1  0.71920000  0.02590000  0.75090000  1
  C  C242  1  0.72140000  0.71490000  0.55380000  1
  C  C243  1  0.72990000  0.64160000  0.61730000  1
  C  C244  1  0.73180000  0.79520000  0.40700000  1
  C  C245  1  0.73690000  0.55040000  0.82960000  1
  C  C246  1  0.74540000  0.78540000  0.53980000  1
  C  C247  1  0.75480000  0.96820000  0.21800000  1
  C  C248  1  0.75750000  0.71510000  0.60050000  1
  C  C249  1  0.76000000  0.48440000  0.83340000  1
  C  C250  1  0.76000000  0.78740000  0.45230000  1
  C  C251  1  0.76590000  0.53640000  0.64330000  1
  C  C252  1  0.77600000  0.98230000  0.81620000  1
  C  C253  1  0.78020000  0.99760000  0.77000000  1
  C  C254  1  0.78590000  0.91870000  0.18310000  1
  C  C255  1  0.78760000  0.62910000  0.86280000  1
  C  C256  1  0.78820000  0.79710000  0.71530000  1
  C  C257  1  0.79070000  0.60370000  0.62540000  1
  C  C258  1  0.79400000  0.73570000  0.08120000  1
  C  C259  1  0.80080000  0.74730000  0.03510000  1
  C  C260  1  0.80270000  0.63490000  0.91230000  1
  C  C261  1  0.80340000  0.85490000  0.57160000  1
  C  C262  1  0.80360000  0.05060000  0.23450000  1
  C  C263  1  0.81170000  0.70050000  0.84930000  1
  C  C264  1  0.81350000  0.78430000  0.63120000  1
  C  C265  1  0.81690000  0.88220000  0.85310000  1
  C  C266  1  0.82520000  0.48180000  0.70460000  1
  C  C267  1  0.82830000  0.67270000  0.14560000  1
  C  C268  1  0.82880000  0.49780000  0.65770000  1
  C  C269  1  0.83390000  0.68430000  0.09640000  1
  C  C270  1  0.83890000  0.70780000  0.94860000  1
  C  C271  1  0.83890000  0.85800000  0.61880000  1
  C  C272  1  0.84070000  0.94490000  0.83340000  1
  C  C273  1  0.84600000  0.70640000  0.00130000  1
  C  C274  1  0.84960000  0.77390000  0.88290000  1
  C  C275  1  0.86310000  0.91100000  0.97700000  1
  C  C276  1  0.86380000  0.77900000  0.93320000  1
  C  C277  1  0.86550000  0.95040000  0.16430000  1
  C  C278  1  0.86660000  0.67970000  0.77040000  1
  C  C279  1  0.87810000  0.84640000  0.86390000  1
  C  C280  1  0.88070000  0.00570000  0.65430000  1
  C  C281  1  0.88100000  0.07950000  0.21450000  1
  C  C282  1  0.88240000  0.64660000  0.06310000  1
  C  C283  1  0.88340000  0.44820000  0.72070000  1
  C  C284  1  0.88600000  0.65780000  0.01610000  1
  C  C285  1  0.89110000  0.47720000  0.62890000  1
  C  C286  1  0.89410000  0.62190000  0.56630000  1
  C  C287  1  0.89960000  0.93400000  0.65110000  1
  C  C288  1  0.90860000  0.11980000  0.09500000  1
  C  C289  1  0.91080000  0.83440000  0.27390000  1
  C  C290  1  0.91490000  0.03010000  0.18120000  1
  C  C291  1  0.93130000  0.97380000  0.82420000  1
  C  C292  1  0.93860000  0.07690000  0.67910000  1
  C  C293  1  0.94590000  0.42810000  0.69110000  1
  C  C294  1  0.94910000  0.44250000  0.64490000  1
  C  C295  1  0.95860000  0.98440000  0.29790000  1
  C  C296  1  0.96660000  0.87620000  0.85540000  1
  C  C297  1  0.97790000  0.91610000  0.29690000  1
  C  C298  1  0.98010000  0.93990000  0.67760000  1
  C  C299  1  0.98930000  0.60560000  0.28960000  1
  C  C300  1  0.99380000  0.93960000  0.83400000  1
  O  O301  1  0.01340000  0.39650000  0.75630000  1
  O  O302  1  0.02600000  0.83750000  0.86396000  1
  O  O303  1  0.05910000  0.22180000  0.73450000  1
  O  O304  1  0.06140000  0.36730000  0.68390000  1
  O  O305  1  0.09450000  0.15020000  0.03119000  1
  O  O306  1  0.12370000  0.36930000  0.38560000  1
  O  O307  1  0.13480000  0.37260000  0.84120000  1
  O  O308  1  0.15370000  0.21520000  0.32126000  1
  O  O309  1  0.17160000  0.17000000  0.73488000  1
  O  O310  1  0.20210000  0.30290000  0.20142000  1
  O  O311  1  0.21760000  0.29170000  0.82576000  1
  O  O312  1  0.24560000  0.46470000  0.75220000  1
  O  O313  1  0.26430000  0.34660000  0.72608000  1
  O  O314  1  0.27070000  0.14690000  0.13545000  1
  O  O315  1  0.33230000  0.19580000  0.68324000  1
  O  O316  1  0.33470000  0.35370000  0.47640000  1
  O  O317  1  0.35310000  0.02430000  0.72410000  1
  O  O318  1  0.36090000  0.14220000  0.77125000  1
  O  O319  1  0.40770000  0.74320000  0.24850000  1
  O  O320  1  0.41540000  0.34490000  0.37610000  1
  O  O321  1  0.41700000  0.92540000  0.28525000  1
  O  O322  1  0.43830000  0.15200000  0.64876000  1
  O  O323  1  0.46100000  0.89620000  0.21130000  1
  O  O324  1  0.47890000  0.30430000  0.75100000  1
  O  O325  1  0.52110000  0.69570000  0.24900000  1
  O  O326  1  0.53900000  0.10380000  0.78870000  1
  O  O327  1  0.56170000  0.84800000  0.35124000  1
  O  O328  1  0.58300000  0.07460000  0.71475000  1
  O  O329  1  0.58460000  0.65510000  0.62390000  1
  O  O330  1  0.59230000  0.25680000  0.75150000  1
  O  O331  1  0.63910000  0.85780000  0.22875000  1
  O  O332  1  0.64690000  0.97570000  0.27590000  1
  O  O333  1  0.66530000  0.64630000  0.52360000  1
  O  O334  1  0.66770000  0.80420000  0.31676000  1
  O  O335  1  0.72930000  0.85310000  0.86455000  1
  O  O336  1  0.73570000  0.65340000  0.27392000  1
  O  O337  1  0.75440000  0.53530000  0.24780000  1
  O  O338  1  0.78240000  0.70830000  0.17424000  1
  O  O339  1  0.79790000  0.69710000  0.79858000  1
  O  O340  1  0.82840000  0.83000000  0.26512000  1
  O  O341  1  0.84630000  0.78480000  0.67874000  1
  O  O342  1  0.86520000  0.62740000  0.15880000  1
  O  O343  1  0.87630000  0.63070000  0.61440000  1
  O  O344  1  0.90550000  0.84980000  0.96881000  1
  O  O345  1  0.93860000  0.63270000  0.31610000  1
  O  O346  1  0.94090000  0.77820000  0.26550000  1
  O  O347  1  0.97400000  0.16250000  0.13604000  1
  O  O348  1  0.98660000  0.60350000  0.24370000  1
