# generated using pymatgen
data_ZnH3C9O4
_symmetry_space_group_name_H-M   'P 1'
_cell_length_a   17.20890000
_cell_length_b   17.20890000
_cell_length_c   28.52300000
_cell_angle_alpha   90.00000000
_cell_angle_beta   90.00000000
_cell_angle_gamma   90.00000000
_symmetry_Int_Tables_number   1
_chemical_formula_structural   ZnH3C9O4
_chemical_formula_sum   'Zn16 H48 C144 O64'
_cell_volume   8446.97918099
_cell_formula_units_Z   16
loop_
 _symmetry_equiv_pos_site_id
 _symmetry_equiv_pos_as_xyz
  1  'x, y, z'
loop_
 _atom_site_type_symbol
 _atom_site_label
 _atom_site_symmetry_multiplicity
 _atom_site_fract_x
 _atom_site_fract_y
 _atom_site_fract_z
 _atom_site_occupancy
  Zn  Zn0  1  0.04661000  0.54661000  0.96600000  1
  Zn  Zn1  1  0.04661000  0.95339000  0.53400000  1
  Zn  Zn2  1  0.16369000  0.25000000  0.25000000  1
  Zn  Zn3  1  0.25000000  0.16369000  0.75000000  1
  Zn  Zn4  1  0.25000000  0.33631000  0.75000000  1
  Zn  Zn5  1  0.33631000  0.25000000  0.25000000  1
  Zn  Zn6  1  0.45339000  0.54661000  0.53400000  1
  Zn  Zn7  1  0.45339000  0.95339000  0.96600000  1
  Zn  Zn8  1  0.54661000  0.04661000  0.03400000  1
  Zn  Zn9  1  0.54661000  0.45339000  0.46600000  1
  Zn  Zn10  1  0.66369000  0.75000000  0.75000000  1
  Zn  Zn11  1  0.75000000  0.66369000  0.25000000  1
  Zn  Zn12  1  0.75000000  0.83631000  0.25000000  1
  Zn  Zn13  1  0.83631000  0.75000000  0.75000000  1
  Zn  Zn14  1  0.95339000  0.04661000  0.46600000  1
  Zn  Zn15  1  0.95339000  0.45339000  0.03400000  1
  H  H16  1  0.04660000  0.13770000  0.83770000  1
  H  H17  1  0.04660000  0.36230000  0.66230000  1
  H  H18  1  0.05460000  0.74190000  0.45360000  1
  H  H19  1  0.05460000  0.75810000  0.04640000  1
  H  H20  1  0.11370000  0.14330000  0.62220000  1
  H  H21  1  0.11370000  0.35670000  0.87780000  1
  H  H22  1  0.13770000  0.04660000  0.16230000  1
  H  H23  1  0.13770000  0.45340000  0.33770000  1
  H  H24  1  0.14330000  0.11370000  0.37780000  1
  H  H25  1  0.14330000  0.38630000  0.12220000  1
  H  H26  1  0.24190000  0.55460000  0.45360000  1
  H  H27  1  0.24190000  0.94540000  0.04640000  1
  H  H28  1  0.25810000  0.55460000  0.04640000  1
  H  H29  1  0.25810000  0.94540000  0.45360000  1
  H  H30  1  0.35670000  0.11370000  0.12220000  1
  H  H31  1  0.35670000  0.38630000  0.37780000  1
  H  H32  1  0.36230000  0.04660000  0.33770000  1
  H  H33  1  0.36230000  0.45340000  0.16230000  1
  H  H34  1  0.38630000  0.14330000  0.87780000  1
  H  H35  1  0.38630000  0.35670000  0.62220000  1
  H  H36  1  0.44540000  0.74190000  0.04640000  1
  H  H37  1  0.44540000  0.75810000  0.45360000  1
  H  H38  1  0.45340000  0.13770000  0.66230000  1
  H  H39  1  0.45340000  0.36230000  0.83770000  1
  H  H40  1  0.54660000  0.63770000  0.16230000  1
  H  H41  1  0.54660000  0.86230000  0.33770000  1
  H  H42  1  0.55460000  0.24190000  0.54640000  1
  H  H43  1  0.55460000  0.25810000  0.95360000  1
  H  H44  1  0.61370000  0.64330000  0.37780000  1
  H  H45  1  0.61370000  0.85670000  0.12220000  1
  H  H46  1  0.63770000  0.54660000  0.83770000  1
  H  H47  1  0.63770000  0.95340000  0.66230000  1
  H  H48  1  0.64330000  0.61370000  0.62220000  1
  H  H49  1  0.64330000  0.88630000  0.87780000  1
  H  H50  1  0.74190000  0.05460000  0.54640000  1
  H  H51  1  0.74190000  0.44540000  0.95360000  1
  H  H52  1  0.75810000  0.05460000  0.95360000  1
  H  H53  1  0.75810000  0.44540000  0.54640000  1
  H  H54  1  0.85670000  0.61370000  0.87780000  1
  H  H55  1  0.85670000  0.88630000  0.62220000  1
  H  H56  1  0.86230000  0.54660000  0.66230000  1
  H  H57  1  0.86230000  0.95340000  0.83770000  1
  H  H58  1  0.88630000  0.64330000  0.12220000  1
  H  H59  1  0.88630000  0.85670000  0.37780000  1
  H  H60  1  0.94540000  0.24190000  0.95360000  1
  H  H61  1  0.94540000  0.25810000  0.54640000  1
  H  H62  1  0.95340000  0.63770000  0.33770000  1
  H  H63  1  0.95340000  0.86230000  0.16230000  1
  C  C64  1  0.01501000  0.67834000  0.39600000  1
  C  C65  1  0.01501000  0.82166000  0.10400000  1
  C  C66  1  0.01953000  0.74261000  0.42710000  1
  C  C67  1  0.01953000  0.75739000  0.07290000  1
  C  C68  1  0.02358000  0.12320000  0.54854000  1
  C  C69  1  0.02358000  0.37680000  0.95146000  1
  C  C70  1  0.02917000  0.19281000  0.58024000  1
  C  C71  1  0.02917000  0.30719000  0.91976000  1
  C  C72  1  0.04158000  0.17978000  0.85907000  1
  C  C73  1  0.04158000  0.32022000  0.64093000  1
  C  C74  1  0.06764000  0.61683000  0.39967000  1
  C  C75  1  0.06764000  0.88317000  0.10033000  1
  C  C76  1  0.08299000  0.19003000  0.61675000  1
  C  C77  1  0.08299000  0.30997000  0.88325000  1
  C  C78  1  0.08925000  0.24437000  0.85337000  1
  C  C79  1  0.08925000  0.25563000  0.64663000  1
  C  C80  1  0.11683000  0.56764000  0.39967000  1
  C  C81  1  0.11683000  0.93236000  0.10033000  1
  C  C82  1  0.12320000  0.02358000  0.45146000  1
  C  C83  1  0.12320000  0.47642000  0.04854000  1
  C  C84  1  0.14720000  0.24520000  0.81474000  1
  C  C85  1  0.14720000  0.25480000  0.68526000  1
  C  C86  1  0.17834000  0.51501000  0.39600000  1
  C  C87  1  0.17834000  0.98499000  0.10400000  1
  C  C88  1  0.17978000  0.04158000  0.14093000  1
  C  C89  1  0.17978000  0.45842000  0.35907000  1
  C  C90  1  0.19003000  0.08299000  0.38325000  1
  C  C91  1  0.19003000  0.41701000  0.11675000  1
  C  C92  1  0.19281000  0.02917000  0.41976000  1
  C  C93  1  0.19281000  0.47083000  0.08024000  1
  C  C94  1  0.24261000  0.51953000  0.42710000  1
  C  C95  1  0.24261000  0.98047000  0.07290000  1
  C  C96  1  0.24437000  0.08925000  0.14663000  1
  C  C97  1  0.24437000  0.41075000  0.35337000  1
  C  C98  1  0.24520000  0.14720000  0.18526000  1
  C  C99  1  0.24520000  0.35280000  0.31474000  1
  C  C100  1  0.25480000  0.14720000  0.31474000  1
  C  C101  1  0.25480000  0.35280000  0.18526000  1
  C  C102  1  0.25563000  0.08925000  0.35337000  1
  C  C103  1  0.25563000  0.41075000  0.14663000  1
  C  C104  1  0.25739000  0.51953000  0.07290000  1
  C  C105  1  0.25739000  0.98047000  0.42710000  1
  C  C106  1  0.30719000  0.02917000  0.08024000  1
  C  C107  1  0.30719000  0.47083000  0.41976000  1
  C  C108  1  0.30997000  0.08299000  0.11675000  1
  C  C109  1  0.30997000  0.41701000  0.38325000  1
  C  C110  1  0.32022000  0.04158000  0.35907000  1
  C  C111  1  0.32022000  0.45842000  0.14093000  1
  C  C112  1  0.32166000  0.51501000  0.10400000  1
  C  C113  1  0.32166000  0.98499000  0.39600000  1
  C  C114  1  0.35280000  0.24520000  0.68526000  1
  C  C115  1  0.35280000  0.25480000  0.81474000  1
  C  C116  1  0.37680000  0.02358000  0.04854000  1
  C  C117  1  0.37680000  0.47642000  0.45146000  1
  C  C118  1  0.38317000  0.56764000  0.10033000  1
  C  C119  1  0.38317000  0.93236000  0.39967000  1
  C  C120  1  0.41075000  0.24437000  0.64663000  1
  C  C121  1  0.41075000  0.25563000  0.85337000  1
  C  C122  1  0.41701000  0.19003000  0.88325000  1
  C  C123  1  0.41701000  0.30997000  0.61675000  1
  C  C124  1  0.43236000  0.61683000  0.10033000  1
  C  C125  1  0.43236000  0.88317000  0.39967000  1
  C  C126  1  0.45842000  0.17978000  0.64093000  1
  C  C127  1  0.45842000  0.32022000  0.85907000  1
  C  C128  1  0.47083000  0.19281000  0.91976000  1
  C  C129  1  0.47083000  0.30719000  0.58024000  1
  C  C130  1  0.47642000  0.12320000  0.95146000  1
  C  C131  1  0.47642000  0.37680000  0.54854000  1
  C  C132  1  0.48047000  0.74261000  0.07290000  1
  C  C133  1  0.48047000  0.75739000  0.42710000  1
  C  C134  1  0.48499000  0.67834000  0.10400000  1
  C  C135  1  0.48499000  0.82166000  0.39600000  1
  C  C136  1  0.51501000  0.17834000  0.60400000  1
  C  C137  1  0.51501000  0.32166000  0.89600000  1
  C  C138  1  0.51953000  0.24261000  0.57290000  1
  C  C139  1  0.51953000  0.25739000  0.92710000  1
  C  C140  1  0.52358000  0.62320000  0.45146000  1
  C  C141  1  0.52358000  0.87680000  0.04854000  1
  C  C142  1  0.52917000  0.69281000  0.41976000  1
  C  C143  1  0.52917000  0.80719000  0.08024000  1
  C  C144  1  0.54158000  0.67978000  0.14093000  1
  C  C145  1  0.54158000  0.82022000  0.35907000  1
  C  C146  1  0.56764000  0.11683000  0.60033000  1
  C  C147  1  0.56764000  0.38317000  0.89967000  1
  C  C148  1  0.58299000  0.69003000  0.38325000  1
  C  C149  1  0.58299000  0.80997000  0.11675000  1
  C  C150  1  0.58925000  0.74437000  0.14663000  1
  C  C151  1  0.58925000  0.75563000  0.35337000  1
  C  C152  1  0.61683000  0.06764000  0.60033000  1
  C  C153  1  0.61683000  0.43236000  0.89967000  1
  C  C154  1  0.62320000  0.52358000  0.54854000  1
  C  C155  1  0.62320000  0.97642000  0.95146000  1
  C  C156  1  0.64720000  0.74520000  0.18526000  1
  C  C157  1  0.64720000  0.75480000  0.31474000  1
  C  C158  1  0.67834000  0.01501000  0.60400000  1
  C  C159  1  0.67834000  0.48499000  0.89600000  1
  C  C160  1  0.67978000  0.54158000  0.85907000  1
  C  C161  1  0.67978000  0.95842000  0.64093000  1
  C  C162  1  0.69003000  0.58299000  0.61675000  1
  C  C163  1  0.69003000  0.91701000  0.88325000  1
  C  C164  1  0.69281000  0.52917000  0.58024000  1
  C  C165  1  0.69281000  0.97083000  0.91976000  1
  C  C166  1  0.74261000  0.01953000  0.57290000  1
  C  C167  1  0.74261000  0.48047000  0.92710000  1
  C  C168  1  0.74437000  0.58925000  0.85337000  1
  C  C169  1  0.74437000  0.91075000  0.64663000  1
  C  C170  1  0.74520000  0.64720000  0.81474000  1
  C  C171  1  0.74520000  0.85280000  0.68526000  1
  C  C172  1  0.75480000  0.64720000  0.68526000  1
  C  C173  1  0.75480000  0.85280000  0.81474000  1
  C  C174  1  0.75563000  0.58925000  0.64663000  1
  C  C175  1  0.75563000  0.91075000  0.85337000  1
  C  C176  1  0.75739000  0.01953000  0.92710000  1
  C  C177  1  0.75739000  0.48047000  0.57290000  1
  C  C178  1  0.80719000  0.52917000  0.91976000  1
  C  C179  1  0.80719000  0.97083000  0.58024000  1
  C  C180  1  0.80997000  0.58299000  0.88325000  1
  C  C181  1  0.80997000  0.91701000  0.61675000  1
  C  C182  1  0.82022000  0.54158000  0.64093000  1
  C  C183  1  0.82022000  0.95842000  0.85907000  1
  C  C184  1  0.82166000  0.01501000  0.89600000  1
  C  C185  1  0.82166000  0.48499000  0.60400000  1
  C  C186  1  0.85280000  0.74520000  0.31474000  1
  C  C187  1  0.85280000  0.75480000  0.18526000  1
  C  C188  1  0.87680000  0.52358000  0.95146000  1
  C  C189  1  0.87680000  0.97642000  0.54854000  1
  C  C190  1  0.88317000  0.06764000  0.89967000  1
  C  C191  1  0.88317000  0.43236000  0.60033000  1
  C  C192  1  0.91075000  0.74437000  0.35337000  1
  C  C193  1  0.91075000  0.75563000  0.14663000  1
  C  C194  1  0.91701000  0.69003000  0.11675000  1
  C  C195  1  0.91701000  0.80997000  0.38325000  1
  C  C196  1  0.93236000  0.11683000  0.89967000  1
  C  C197  1  0.93236000  0.38317000  0.60033000  1
  C  C198  1  0.95842000  0.67978000  0.35907000  1
  C  C199  1  0.95842000  0.82022000  0.14093000  1
  C  C200  1  0.97083000  0.69281000  0.08024000  1
  C  C201  1  0.97083000  0.80719000  0.41976000  1
  C  C202  1  0.97642000  0.62320000  0.04854000  1
  C  C203  1  0.97642000  0.87680000  0.45146000  1
  C  C204  1  0.98047000  0.24261000  0.92710000  1
  C  C205  1  0.98047000  0.25739000  0.57290000  1
  C  C206  1  0.98499000  0.17834000  0.89600000  1
  C  C207  1  0.98499000  0.32166000  0.60400000  1
  O  O208  1  0.01623000  0.63232000  0.01165000  1
  O  O209  1  0.01623000  0.86768000  0.48835000  1
  O  O210  1  0.05486000  0.06116000  0.56173000  1
  O  O211  1  0.05486000  0.43884000  0.93827000  1
  O  O212  1  0.06116000  0.05486000  0.43827000  1
  O  O213  1  0.06116000  0.44514000  0.06173000  1
  O  O214  1  0.13232000  0.51623000  0.01165000  1
  O  O215  1  0.13232000  0.98377000  0.48835000  1
  O  O216  1  0.15854000  0.18214000  0.79274000  1
  O  O217  1  0.15854000  0.31786000  0.70726000  1
  O  O218  1  0.18011000  0.19084000  0.69450000  1
  O  O219  1  0.18011000  0.30916000  0.80550000  1
  O  O220  1  0.18214000  0.15854000  0.20726000  1
  O  O221  1  0.18214000  0.34146000  0.29274000  1
  O  O222  1  0.19084000  0.18011000  0.30550000  1
  O  O223  1  0.19084000  0.31989000  0.19450000  1
  O  O224  1  0.30916000  0.18011000  0.19450000  1
  O  O225  1  0.30916000  0.31989000  0.30550000  1
  O  O226  1  0.31786000  0.15854000  0.29274000  1
  O  O227  1  0.31786000  0.34146000  0.20726000  1
  O  O228  1  0.31989000  0.19084000  0.80550000  1
  O  O229  1  0.31989000  0.30916000  0.69450000  1
  O  O230  1  0.34146000  0.18214000  0.70726000  1
  O  O231  1  0.34146000  0.31786000  0.79274000  1
  O  O232  1  0.36768000  0.51623000  0.48835000  1
  O  O233  1  0.36768000  0.98377000  0.01165000  1
  O  O234  1  0.43884000  0.05486000  0.06173000  1
  O  O235  1  0.43884000  0.44514000  0.43827000  1
  O  O236  1  0.44514000  0.06116000  0.93827000  1
  O  O237  1  0.44514000  0.43884000  0.56173000  1
  O  O238  1  0.48377000  0.63232000  0.48835000  1
  O  O239  1  0.48377000  0.86768000  0.01165000  1
  O  O240  1  0.51623000  0.13232000  0.98835000  1
  O  O241  1  0.51623000  0.36768000  0.51165000  1
  O  O242  1  0.55486000  0.56116000  0.43827000  1
  O  O243  1  0.55486000  0.93884000  0.06173000  1
  O  O244  1  0.56116000  0.55486000  0.56173000  1
  O  O245  1  0.56116000  0.94514000  0.93827000  1
  O  O246  1  0.63232000  0.01623000  0.98835000  1
  O  O247  1  0.63232000  0.48377000  0.51165000  1
  O  O248  1  0.65854000  0.68214000  0.20726000  1
  O  O249  1  0.65854000  0.81786000  0.29274000  1
  O  O250  1  0.68011000  0.69084000  0.30550000  1
  O  O251  1  0.68011000  0.80916000  0.19450000  1
  O  O252  1  0.68214000  0.65854000  0.79274000  1
  O  O253  1  0.68214000  0.84146000  0.70726000  1
  O  O254  1  0.69084000  0.68011000  0.69450000  1
  O  O255  1  0.69084000  0.81989000  0.80550000  1
  O  O256  1  0.80916000  0.68011000  0.80550000  1
  O  O257  1  0.80916000  0.81989000  0.69450000  1
  O  O258  1  0.81786000  0.65854000  0.70726000  1
  O  O259  1  0.81786000  0.84146000  0.79274000  1
  O  O260  1  0.81989000  0.69084000  0.19450000  1
  O  O261  1  0.81989000  0.80916000  0.30550000  1
  O  O262  1  0.84146000  0.68214000  0.29274000  1
  O  O263  1  0.84146000  0.81786000  0.20726000  1
  O  O264  1  0.86768000  0.01623000  0.51165000  1
  O  O265  1  0.86768000  0.48377000  0.98835000  1
  O  O266  1  0.93884000  0.55486000  0.93827000  1
  O  O267  1  0.93884000  0.94514000  0.56173000  1
  O  O268  1  0.94514000  0.56116000  0.06173000  1
  O  O269  1  0.94514000  0.93884000  0.43827000  1
  O  O270  1  0.98377000  0.13232000  0.51165000  1
  O  O271  1  0.98377000  0.36768000  0.98835000  1
