# generated using pymatgen
data_Sm2H24(C14O5)3
_symmetry_space_group_name_H-M   'P 1'
_cell_length_a   14.60400000
_cell_length_b   15.30900000
_cell_length_c   22.87000000
_cell_angle_alpha   84.60300000
_cell_angle_beta   83.64000000
_cell_angle_gamma   86.65500000
_symmetry_Int_Tables_number   1
_chemical_formula_structural   Sm2H24(C14O5)3
_chemical_formula_sum   'Sm8 H96 C168 O60'
_cell_volume   5053.17104521
_cell_formula_units_Z   4
loop_
 _symmetry_equiv_pos_site_id
 _symmetry_equiv_pos_as_xyz
  1  'x, y, z'
loop_
 _atom_site_type_symbol
 _atom_site_label
 _atom_site_symmetry_multiplicity
 _atom_site_fract_x
 _atom_site_fract_y
 _atom_site_fract_z
 _atom_site_occupancy
  Sm  Sm0  1  0.17124000  0.16640000  0.72767000  1
  Sm  Sm1  1  0.20809000  0.90235000  0.73576000  1
  Sm  Sm2  1  0.29218000  0.37998000  0.74063000  1
  Sm  Sm3  1  0.31907000  0.62944000  0.78327000  1
  Sm  Sm4  1  0.68093000  0.37056000  0.21673000  1
  Sm  Sm5  1  0.70782000  0.62002000  0.25937000  1
  Sm  Sm6  1  0.79191000  0.09765000  0.26424000  1
  Sm  Sm7  1  0.82876000  0.83360000  0.27233000  1
  H  H8  1  0.00400000  0.79820000  0.80240000  1
  H  H9  1  0.01630000  0.44780000  0.15550000  1
  H  H10  1  0.02850000  0.93220000  0.16950000  1
  H  H11  1  0.04630000  0.26850000  0.99600000  1
  H  H12  1  0.04750000  0.30910000  0.49660000  1
  H  H13  1  0.05830000  0.70760000  0.71450000  1
  H  H14  1  0.06390000  0.49210000  0.62810000  1
  H  H15  1  0.06430000  0.45160000  0.41670000  1
  H  H16  1  0.06930000  0.23690000  0.32940000  1
  H  H17  1  0.07020000  0.74260000  0.11690000  1
  H  H18  1  0.09080000  0.31550000  0.59070000  1
  H  H19  1  0.09290000  0.44790000  0.81050000  1
  H  H20  1  0.09600000  0.53510000  0.00560000  1
  H  H21  1  0.09720000  0.70160000  0.95360000  1
  H  H22  1  0.10000000  0.05870000  0.02210000  1
  H  H23  1  0.11050000  0.98240000  0.93880000  1
  H  H24  1  0.13920000  0.17290000  0.14590000  1
  H  H25  1  0.14090000  0.06430000  0.28470000  1
  H  H26  1  0.14620000  0.51550000  0.90770000  1
  H  H27  1  0.16970000  0.92350000  0.11370000  1
  H  H28  1  0.17380000  0.73360000  0.47400000  1
  H  H29  1  0.17690000  0.63570000  0.08070000  1
  H  H30  1  0.19180000  0.79550000  0.56190000  1
  H  H31  1  0.19350000  0.15110000  0.52460000  1
  H  H32  1  0.21970000  0.12680000  0.42510000  1
  H  H33  1  0.23580000  0.48540000  0.36360000  1
  H  H34  1  0.28240000  0.05000000  0.23130000  1
  H  H35  1  0.28920000  0.21930000  0.94210000  1
  H  H36  1  0.29740000  0.85600000  0.34380000  1
  H  H37  1  0.29870000  0.14330000  0.85870000  1
  H  H38  1  0.30770000  0.37960000  0.05640000  1
  H  H39  1  0.31210000  0.32630000  0.42980000  1
  H  H40  1  0.32510000  0.52310000  0.52820000  1
  H  H41  1  0.33370000  0.92830000  0.56800000  1
  H  H42  1  0.33940000  0.58190000  0.61500000  1
  H  H43  1  0.34790000  0.14440000  0.10780000  1
  H  H44  1  0.35180000  0.35420000  0.95990000  1
  H  H45  1  0.35390000  0.33850000  0.52270000  1
  H  H46  1  0.35450000  0.43570000  0.29860000  1
  H  H47  1  0.36540000  0.90490000  0.46910000  1
  H  H48  1  0.40040000  0.06720000  0.68350000  1
  H  H49  1  0.40860000  0.62590000  0.43380000  1
  H  H50  1  0.41130000  0.76130000  0.30520000  1
  H  H51  1  0.42210000  0.00200000  0.79280000  1
  H  H52  1  0.45940000  0.22410000  0.14090000  1
  H  H53  1  0.46220000  0.92240000  0.17350000  1
  H  H54  1  0.47130000  0.42270000  0.63030000  1
  H  H55  1  0.48450000  0.02450000  0.36180000  1
  H  H56  1  0.51550000  0.97550000  0.63820000  1
  H  H57  1  0.52870000  0.57730000  0.36970000  1
  H  H58  1  0.53780000  0.07760000  0.82650000  1
  H  H59  1  0.54060000  0.77590000  0.85910000  1
  H  H60  1  0.57790000  0.99800000  0.20720000  1
  H  H61  1  0.58870000  0.23870000  0.69480000  1
  H  H62  1  0.59140000  0.37410000  0.56620000  1
  H  H63  1  0.59960000  0.93280000  0.31650000  1
  H  H64  1  0.63460000  0.09510000  0.53090000  1
  H  H65  1  0.64550000  0.56430000  0.70140000  1
  H  H66  1  0.64610000  0.66150000  0.47730000  1
  H  H67  1  0.64820000  0.64580000  0.04010000  1
  H  H68  1  0.65210000  0.85560000  0.89220000  1
  H  H69  1  0.66060000  0.41810000  0.38500000  1
  H  H70  1  0.66630000  0.07170000  0.43200000  1
  H  H71  1  0.67490000  0.47690000  0.47180000  1
  H  H72  1  0.68790000  0.67370000  0.57020000  1
  H  H73  1  0.69230000  0.62040000  0.94360000  1
  H  H74  1  0.70130000  0.85670000  0.14130000  1
  H  H75  1  0.70260000  0.14400000  0.65620000  1
  H  H76  1  0.71080000  0.78070000  0.05790000  1
  H  H77  1  0.71760000  0.95000000  0.76870000  1
  H  H78  1  0.76420000  0.51460000  0.63640000  1
  H  H79  1  0.78030000  0.87320000  0.57490000  1
  H  H80  1  0.80650000  0.84890000  0.47540000  1
  H  H81  1  0.80820000  0.20450000  0.43810000  1
  H  H82  1  0.82310000  0.36430000  0.91930000  1
  H  H83  1  0.82620000  0.26640000  0.52600000  1
  H  H84  1  0.83030000  0.07650000  0.88630000  1
  H  H85  1  0.85380000  0.48450000  0.09230000  1
  H  H86  1  0.85910000  0.93570000  0.71530000  1
  H  H87  1  0.86080000  0.82710000  0.85410000  1
  H  H88  1  0.88950000  0.01760000  0.06120000  1
  H  H89  1  0.90000000  0.94130000  0.97790000  1
  H  H90  1  0.90280000  0.29840000  0.04640000  1
  H  H91  1  0.90400000  0.46490000  0.99440000  1
  H  H92  1  0.90710000  0.55210000  0.18950000  1
  H  H93  1  0.90920000  0.68450000  0.40930000  1
  H  H94  1  0.92980000  0.25740000  0.88310000  1
  H  H95  1  0.93070000  0.76310000  0.67060000  1
  H  H96  1  0.93570000  0.54840000  0.58330000  1
  H  H97  1  0.93610000  0.50790000  0.37190000  1
  H  H98  1  0.94170000  0.29240000  0.28550000  1
  H  H99  1  0.95250000  0.69090000  0.50340000  1
  H  H100  1  0.95370000  0.73150000  0.00400000  1
  H  H101  1  0.97150000  0.06780000  0.83050000  1
  H  H102  1  0.98370000  0.55220000  0.84450000  1
  H  H103  1  0.99600000  0.20180000  0.19760000  1
  C  C104  1  0.00510000  0.21480000  0.15690000  1
  C  C105  1  0.02420000  0.98250000  0.73820000  1
  C  C106  1  0.02520000  0.34260000  0.84480000  1
  C  C107  1  0.02700000  0.50710000  0.14710000  1
  C  C108  1  0.03300000  0.67470000  0.68860000  1
  C  C109  1  0.03560000  0.25380000  0.03650000  1
  C  C110  1  0.03660000  0.54630000  0.63720000  1
  C  C111  1  0.03880000  0.43000000  0.83270000  1
  C  C112  1  0.03940000  0.41980000  0.39010000  1
  C  C113  1  0.04250000  0.29150000  0.33800000  1
  C  C114  1  0.04960000  0.72790000  0.93330000  1
  C  C115  1  0.05790000  0.68340000  0.12390000  1
  C  C116  1  0.06440000  0.74840000  0.87310000  1
  C  C117  1  0.06910000  0.00310000  0.23210000  1
  C  C118  1  0.07230000  0.59250000  0.67780000  1
  C  C119  1  0.07800000  0.33820000  0.37720000  1
  C  C120  1  0.07890000  0.95800000  0.18110000  1
  C  C121  1  0.09040000  0.19690000  0.12580000  1
  C  C122  1  0.09150000  0.27510000  0.81780000  1
  C  C123  1  0.10260000  0.21430000  0.06670000  1
  C  C124  1  0.10590000  0.53180000  0.11560000  1
  C  C125  1  0.10900000  0.31370000  0.50220000  1
  C  C126  1  0.12250000  0.61910000  0.10310000  1
  C  C127  1  0.13500000  0.31870000  0.55810000  1
  C  C128  1  0.14000000  0.07620000  0.98910000  1
  C  C129  1  0.14640000  0.03620000  0.25010000  1
  C  C130  1  0.14650000  0.03040000  0.93920000  1
  C  C131  1  0.14870000  0.49990000  0.99630000  1
  C  C132  1  0.15090000  0.55550000  0.70870000  1
  C  C133  1  0.15880000  0.72910000  0.84210000  1
  C  C134  1  0.16370000  0.95220000  0.14810000  1
  C  C135  1  0.17670000  0.31570000  0.45490000  1
  C  C136  1  0.17840000  0.48790000  0.93770000  1
  C  C137  1  0.19210000  0.14650000  0.98980000  1
  C  C138  1  0.19640000  0.46020000  0.04020000  1
  C  C139  1  0.20580000  0.05560000  0.89010000  1
  C  C140  1  0.20800000  0.70370000  0.50220000  1
  C  C141  1  0.20820000  0.01020000  0.83610000  1
  C  C142  1  0.21860000  0.74020000  0.55520000  1
  C  C143  1  0.22630000  0.32830000  0.56570000  1
  C  C144  1  0.22690000  0.10090000  0.51300000  1
  C  C145  1  0.23100000  0.02840000  0.21790000  1
  C  C146  1  0.23740000  0.05750000  0.61800000  1
  C  C147  1  0.24030000  0.98840000  0.16540000  1
  C  C148  1  0.24450000  0.08770000  0.45350000  1
  C  C149  1  0.24920000  0.62380000  0.49360000  1
  C  C150  1  0.25260000  0.17180000  0.94140000  1
  C  C151  1  0.25340000  0.33400000  0.62610000  1
  C  C152  1  0.25770000  0.43360000  0.92400000  1
  C  C153  1  0.25840000  0.12590000  0.89160000  1
  C  C154  1  0.25890000  0.03980000  0.55430000  1
  C  C155  1  0.26760000  0.32480000  0.46220000  1
  C  C156  1  0.26790000  0.69530000  0.59710000  1
  C  C157  1  0.27440000  0.40620000  0.02650000  1
  C  C158  1  0.27770000  0.73860000  0.65250000  1
  C  C159  1  0.28690000  0.42060000  0.86090000  1
  C  C160  1  0.29250000  0.33160000  0.51760000  1
  C  C161  1  0.29520000  0.50330000  0.36480000  1
  C  C162  1  0.29800000  0.57810000  0.53510000  1
  C  C163  1  0.29900000  0.01620000  0.43710000  1
  C  C164  1  0.30160000  0.39270000  0.96870000  1
  C  C165  1  0.30670000  0.61350000  0.58660000  1
  C  C166  1  0.31120000  0.96810000  0.53910000  1
  C  C167  1  0.31210000  0.55960000  0.40580000  1
  C  C168  1  0.33090000  0.95480000  0.48020000  1
  C  C169  1  0.35850000  0.87160000  0.33920000  1
  C  C170  1  0.36590000  0.47390000  0.32600000  1
  C  C171  1  0.38090000  0.94970000  0.35610000  1
  C  C172  1  0.39200000  0.02800000  0.14290000  1
  C  C173  1  0.39270000  0.11590000  0.12950000  1
  C  C174  1  0.39790000  0.58700000  0.40670000  1
  C  C175  1  0.40410000  0.83200000  0.79560000  1
  C  C176  1  0.41370000  0.22550000  0.72000000  1
  C  C177  1  0.42670000  0.81560000  0.31520000  1
  C  C178  1  0.45520000  0.50130000  0.32750000  1
  C  C179  1  0.45990000  0.16330000  0.14810000  1
  C  C180  1  0.46100000  0.98340000  0.16860000  1
  C  C181  1  0.46120000  0.08380000  0.67750000  1
  C  C182  1  0.46860000  0.53340000  0.71440000  1
  C  C183  1  0.46910000  0.97190000  0.34910000  1
  C  C184  1  0.46910000  0.97200000  0.81200000  1
  C  C185  1  0.46980000  0.55820000  0.36820000  1
  C  C186  1  0.47220000  0.88240000  0.82230000  1
  C  C187  1  0.48370000  0.16170000  0.69410000  1
  C  C188  1  0.51630000  0.83830000  0.30590000  1
  C  C189  1  0.52780000  0.11760000  0.17770000  1
  C  C190  1  0.53020000  0.44180000  0.63180000  1
  C  C191  1  0.53090000  0.02800000  0.18800000  1
  C  C192  1  0.53090000  0.02810000  0.65090000  1
  C  C193  1  0.53140000  0.46660000  0.28560000  1
  C  C194  1  0.53880000  0.91620000  0.32250000  1
  C  C195  1  0.53900000  0.01660000  0.83140000  1
  C  C196  1  0.54010000  0.83670000  0.85190000  1
  C  C197  1  0.54480000  0.49870000  0.67250000  1
  C  C198  1  0.57330000  0.18440000  0.68480000  1
  C  C199  1  0.58630000  0.77450000  0.28000000  1
  C  C200  1  0.59590000  0.16800000  0.20440000  1
  C  C201  1  0.60210000  0.41300000  0.59330000  1
  C  C202  1  0.60730000  0.88410000  0.87050000  1
  C  C203  1  0.60800000  0.97200000  0.85710000  1
  C  C204  1  0.61910000  0.05030000  0.64390000  1
  C  C205  1  0.63410000  0.52610000  0.67400000  1
  C  C206  1  0.64150000  0.12840000  0.66080000  1
  C  C207  1  0.66910000  0.04520000  0.51980000  1
  C  C208  1  0.68790000  0.44040000  0.59420000  1
  C  C209  1  0.68880000  0.03190000  0.46090000  1
  C  C210  1  0.69330000  0.38650000  0.41340000  1
  C  C211  1  0.69840000  0.60730000  0.03130000  1
  C  C212  1  0.70100000  0.98380000  0.56290000  1
  C  C213  1  0.70200000  0.42190000  0.46490000  1
  C  C214  1  0.70480000  0.49670000  0.63520000  1
  C  C215  1  0.70750000  0.66840000  0.48240000  1
  C  C216  1  0.71310000  0.57940000  0.13910000  1
  C  C217  1  0.72230000  0.26140000  0.34750000  1
  C  C218  1  0.72560000  0.59380000  0.97350000  1
  C  C219  1  0.73210000  0.30470000  0.40290000  1
  C  C220  1  0.73240000  0.67520000  0.53780000  1
  C  C221  1  0.74110000  0.96020000  0.44570000  1
  C  C222  1  0.74160000  0.87410000  0.10840000  1
  C  C223  1  0.74230000  0.56640000  0.07600000  1
  C  C224  1  0.74660000  0.66600000  0.37390000  1
  C  C225  1  0.74740000  0.82820000  0.05860000  1
  C  C226  1  0.75080000  0.37620000  0.50640000  1
  C  C227  1  0.75550000  0.91230000  0.54650000  1
  C  C228  1  0.75970000  0.01160000  0.83460000  1
  C  C229  1  0.76260000  0.94250000  0.38200000  1
  C  C230  1  0.76900000  0.97160000  0.78210000  1
  C  C231  1  0.77310000  0.89910000  0.48700000  1
  C  C232  1  0.77370000  0.67170000  0.43430000  1
  C  C233  1  0.78140000  0.25980000  0.44480000  1
  C  C234  1  0.79180000  0.98980000  0.16390000  1
  C  C235  1  0.79200000  0.29630000  0.49780000  1
  C  C236  1  0.79420000  0.94440000  0.10990000  1
  C  C237  1  0.80360000  0.53980000  0.95980000  1
  C  C238  1  0.80790000  0.85350000  0.01020000  1
  C  C239  1  0.82160000  0.51210000  0.06230000  1
  C  C240  1  0.82330000  0.68430000  0.54510000  1
  C  C241  1  0.83630000  0.04780000  0.85190000  1
  C  C242  1  0.84120000  0.27090000  0.15790000  1
  C  C243  1  0.84910000  0.44450000  0.29130000  1
  C  C244  1  0.85130000  0.50010000  0.00370000  1
  C  C245  1  0.85350000  0.96960000  0.06080000  1
  C  C246  1  0.85360000  0.96380000  0.74990000  1
  C  C247  1  0.86000000  0.92380000  0.01090000  1
  C  C248  1  0.86500000  0.68130000  0.44190000  1
  C  C249  1  0.87750000  0.38090000  0.89690000  1
  C  C250  1  0.89100000  0.68630000  0.49780000  1
  C  C251  1  0.89410000  0.46820000  0.88440000  1
  C  C252  1  0.89740000  0.78570000  0.93330000  1
  C  C253  1  0.90850000  0.72490000  0.18220000  1
  C  C254  1  0.90960000  0.80310000  0.87420000  1
  C  C255  1  0.92110000  0.04200000  0.81890000  1
  C  C256  1  0.92200000  0.66180000  0.62280000  1
  C  C257  1  0.92770000  0.40750000  0.32220000  1
  C  C258  1  0.93090000  0.99690000  0.76790000  1
  C  C259  1  0.93560000  0.25160000  0.12690000  1
  C  C260  1  0.94210000  0.31660000  0.87610000  1
  C  C261  1  0.95040000  0.27210000  0.06670000  1
  C  C262  1  0.95750000  0.70850000  0.66200000  1
  C  C263  1  0.96060000  0.58020000  0.60990000  1
  C  C264  1  0.96120000  0.57000000  0.16730000  1
  C  C265  1  0.96340000  0.45370000  0.36280000  1
  C  C266  1  0.96440000  0.74620000  0.96350000  1
  C  C267  1  0.96700000  0.32530000  0.31140000  1
  C  C268  1  0.97300000  0.49290000  0.85290000  1
  C  C269  1  0.97480000  0.65740000  0.15520000  1
  C  C270  1  0.97580000  0.01750000  0.26180000  1
  C  C271  1  0.99490000  0.78520000  0.84310000  1
  O  O272  1  0.04390000  0.91210000  0.71360000  1
  O  O273  1  0.07060000  0.19590000  0.82050000  1
  O  O274  1  0.08670000  0.03660000  0.73940000  1
  O  O275  1  0.15720000  0.30230000  0.39830000  1
  O  O276  1  0.16690000  0.29900000  0.79050000  1
  O  O277  1  0.17250000  0.46750000  0.09900000  1
  O  O278  1  0.17820000  0.93310000  0.83920000  1
  O  O279  1  0.18050000  0.76570000  0.79020000  1
  O  O280  1  0.18330000  0.48020000  0.69970000  1
  O  O281  1  0.18330000  0.60430000  0.74300000  1
  O  O282  1  0.19090000  0.19420000  0.03830000  1
  O  O283  1  0.19690000  0.12900000  0.63090000  1
  O  O284  1  0.20040000  0.30370000  0.67140000  1
  O  O285  1  0.21350000  0.67310000  0.86540000  1
  O  O286  1  0.23280000  0.80700000  0.66170000  1
  O  O287  1  0.23580000  0.58690000  0.44200000  1
  O  O288  1  0.24180000  0.04800000  0.78750000  1
  O  O289  1  0.26050000  0.48050000  0.82140000  1
  O  O290  1  0.26250000  0.00060000  0.65780000  1
  O  O291  1  0.31310000  0.00790000  0.37790000  1
  O  O292  1  0.31960000  0.98170000  0.12850000  1
  O  O293  1  0.32640000  0.36850000  0.63310000  1
  O  O294  1  0.33020000  0.20660000  0.72840000  1
  O  O295  1  0.33160000  0.70000000  0.68720000  1
  O  O296  1  0.33230000  0.35470000  0.84560000  1
  O  O297  1  0.35380000  0.87480000  0.75920000  1
  O  O298  1  0.38960000  0.49920000  0.71920000  1
  O  O299  1  0.39860000  0.75170000  0.80900000  1
  O  O300  1  0.43840000  0.29690000  0.73360000  1
  O  O301  1  0.48190000  0.59680000  0.74330000  1
  O  O302  1  0.51810000  0.40320000  0.25670000  1
  O  O303  1  0.56160000  0.70310000  0.26640000  1
  O  O304  1  0.60140000  0.24830000  0.19100000  1
  O  O305  1  0.61040000  0.50080000  0.28080000  1
  O  O306  1  0.64620000  0.12520000  0.24080000  1
  O  O307  1  0.66770000  0.64530000  0.15440000  1
  O  O308  1  0.66840000  0.30000000  0.31280000  1
  O  O309  1  0.66980000  0.79340000  0.27160000  1
  O  O310  1  0.67360000  0.63150000  0.36690000  1
  O  O311  1  0.68040000  0.01830000  0.87150000  1
  O  O312  1  0.68690000  0.99210000  0.62210000  1
  O  O313  1  0.73750000  0.99940000  0.34220000  1
  O  O314  1  0.73950000  0.51950000  0.17860000  1
  O  O315  1  0.75820000  0.95200000  0.21250000  1
  O  O316  1  0.76420000  0.41310000  0.55800000  1
  O  O317  1  0.76720000  0.19300000  0.33830000  1
  O  O318  1  0.78650000  0.32690000  0.13460000  1
  O  O319  1  0.79960000  0.69630000  0.32860000  1
  O  O320  1  0.80310000  0.87100000  0.36910000  1
  O  O321  1  0.80910000  0.80580000  0.96170000  1
  O  O322  1  0.81670000  0.39570000  0.25700000  1
  O  O323  1  0.81670000  0.51980000  0.30030000  1
  O  O324  1  0.81950000  0.23430000  0.20980000  1
  O  O325  1  0.82180000  0.06690000  0.16080000  1
  O  O326  1  0.82750000  0.53250000  0.90100000  1
  O  O327  1  0.83310000  0.70100000  0.20950000  1
  O  O328  1  0.84280000  0.69770000  0.60170000  1
  O  O329  1  0.91330000  0.96340000  0.26060000  1
  O  O330  1  0.92940000  0.80410000  0.17950000  1
  O  O331  1  0.95610000  0.08790000  0.28640000  1
