# generated using pymatgen
data_LuH11C12N3O7
_symmetry_space_group_name_H-M   'P 1'
_cell_length_a   10.06690000
_cell_length_b   10.35620000
_cell_length_c   10.53800000
_cell_angle_alpha   103.15800000
_cell_angle_beta   115.52400000
_cell_angle_gamma   92.54600000
_symmetry_Int_Tables_number   1
_chemical_formula_structural   LuH11C12N3O7
_chemical_formula_sum   'Lu2 H22 C24 N6 O14'
_cell_volume   952.60690390
_cell_formula_units_Z   2
loop_
 _symmetry_equiv_pos_site_id
 _symmetry_equiv_pos_as_xyz
  1  'x, y, z'
loop_
 _atom_site_type_symbol
 _atom_site_label
 _atom_site_symmetry_multiplicity
 _atom_site_fract_x
 _atom_site_fract_y
 _atom_site_fract_z
 _atom_site_occupancy
  Lu  Lu0  1  0.47493000  0.23375000  0.00334000  1
  Lu  Lu1  1  0.52507000  0.76625000  0.99666000  1
  H  H2  1  0.00030000  0.80390000  0.20350000  1
  H  H3  1  0.03890000  0.29470000  0.21720000  1
  H  H4  1  0.08670000  0.42920000  0.71170000  1
  H  H5  1  0.12440000  0.75330000  0.84790000  1
  H  H6  1  0.14110000  0.72550000  0.39690000  1
  H  H7  1  0.16210000  0.79960000  0.25120000  1
  H  H8  1  0.19780000  0.16960000  0.15370000  1
  H  H9  1  0.24660000  0.60080000  0.14360000  1
  H  H10  1  0.26090000  0.73920000  0.54720000  1
  H  H11  1  0.31480000  0.99320000  0.81770000  1
  H  H12  1  0.47050000  0.05080000  0.82410000  1
  H  H13  1  0.52950000  0.94920000  0.17590000  1
  H  H14  1  0.68520000  0.00680000  0.18230000  1
  H  H15  1  0.73910000  0.26080000  0.45280000  1
  H  H16  1  0.75340000  0.39920000  0.85640000  1
  H  H17  1  0.80220000  0.83040000  0.84630000  1
  H  H18  1  0.83790000  0.20040000  0.74880000  1
  H  H19  1  0.85890000  0.27450000  0.60310000  1
  H  H20  1  0.87560000  0.24670000  0.15210000  1
  H  H21  1  0.91330000  0.57080000  0.28830000  1
  H  H22  1  0.96110000  0.70530000  0.78280000  1
  H  H23  1  0.99970000  0.19610000  0.79650000  1
  C  C24  1  0.02260000  0.88160000  0.92250000  1
  C  C25  1  0.03340000  0.62580000  0.09650000  1
  C  C26  1  0.05250000  0.45860000  0.62770000  1
  C  C27  1  0.08730000  0.60110000  0.49250000  1
  C  C28  1  0.11630000  0.43260000  0.99960000  1
  C  C29  1  0.11790000  0.10110000  0.09080000  1
  C  C30  1  0.13620000  0.55920000  0.61900000  1
  C  C31  1  0.14340000  0.99010000  0.01690000  1
  C  C32  1  0.14790000  0.55850000  0.08800000  1
  C  C33  1  0.23700000  0.36040000  0.99300000  1
  C  C34  1  0.28260000  0.62520000  0.75190000  1
  C  C35  1  0.29630000  0.97760000  0.03560000  1
  C  C36  1  0.70370000  0.02240000  0.96440000  1
  C  C37  1  0.71740000  0.37480000  0.24810000  1
  C  C38  1  0.76300000  0.63960000  0.00700000  1
  C  C39  1  0.85210000  0.44150000  0.91200000  1
  C  C40  1  0.85660000  0.00990000  0.98310000  1
  C  C41  1  0.86380000  0.44080000  0.38100000  1
  C  C42  1  0.88210000  0.89890000  0.90920000  1
  C  C43  1  0.88370000  0.56740000  0.00040000  1
  C  C44  1  0.91270000  0.39890000  0.50750000  1
  C  C45  1  0.94750000  0.54140000  0.37230000  1
  C  C46  1  0.96660000  0.37420000  0.90350000  1
  C  C47  1  0.97740000  0.11840000  0.07750000  1
  N  N48  1  0.03790000  0.76580000  0.84100000  1
  N  N49  1  0.07000000  0.76200000  0.19800000  1
  N  N50  1  0.17450000  0.70180000  0.47680000  1
  N  N51  1  0.82550000  0.29820000  0.52320000  1
  N  N52  1  0.93000000  0.23800000  0.80200000  1
  N  N53  1  0.96210000  0.23420000  0.15900000  1
  O  O54  1  0.22320000  0.26140000  0.89830000  1
  O  O55  1  0.32120000  0.58770000  0.86220000  1
  O  O56  1  0.33040000  0.86320000  0.00090000  1
  O  O57  1  0.36190000  0.05810000  0.78560000  1
  O  O58  1  0.36210000  0.72450000  0.74940000  1
  O  O59  1  0.37240000  0.40260000  0.09800000  1
  O  O60  1  0.39420000  0.08850000  0.08640000  1
  O  O61  1  0.60580000  0.91150000  0.91360000  1
  O  O62  1  0.62760000  0.59740000  0.90200000  1
  O  O63  1  0.63790000  0.27550000  0.25060000  1
  O  O64  1  0.63810000  0.94190000  0.21440000  1
  O  O65  1  0.66960000  0.13680000  0.99910000  1
  O  O66  1  0.67880000  0.41230000  0.13780000  1
  O  O67  1  0.77680000  0.73860000  0.10170000  1
