# generated using pymatgen
data_UZnH2(CO)12
_symmetry_space_group_name_H-M   'P 1'
_cell_length_a   6.30570000
_cell_length_b   8.35290000
_cell_length_c   9.10640000
_cell_angle_alpha   98.20000000
_cell_angle_beta   91.28000000
_cell_angle_gamma   103.20000000
_symmetry_Int_Tables_number   1
_chemical_formula_structural   UZnH2(CO)12
_chemical_formula_sum   'U1 Zn1 H2 C12 O12'
_cell_volume   461.44432571
_cell_formula_units_Z   1
loop_
 _symmetry_equiv_pos_site_id
 _symmetry_equiv_pos_as_xyz
  1  'x, y, z'
loop_
 _atom_site_type_symbol
 _atom_site_label
 _atom_site_symmetry_multiplicity
 _atom_site_fract_x
 _atom_site_fract_y
 _atom_site_fract_z
 _atom_site_occupancy
  U  U0  1  0.50000000  0.50000000  0.00000000  1
  Zn  Zn1  1  0.00000000  0.50000000  0.50000000  1
  H  H2  1  0.40700000  0.04200000  0.74500000  1
  H  H3  1  0.59300000  0.95800000  0.25500000  1
  C  C4  1  0.06030000  0.13680000  0.11270000  1
  C  C5  1  0.11170000  0.87220000  0.98960000  1
  C  C6  1  0.13220000  0.29120000  0.22960000  1
  C  C7  1  0.17130000  0.00920000  0.10310000  1
  C  C8  1  0.22650000  0.73100000  0.98160000  1
  C  C9  1  0.34970000  0.02070000  0.21900000  1
  C  C10  1  0.65030000  0.97930000  0.78100000  1
  C  C11  1  0.77350000  0.26900000  0.01840000  1
  C  C12  1  0.82870000  0.99080000  0.89690000  1
  C  C13  1  0.86780000  0.70880000  0.77040000  1
  C  C14  1  0.88830000  0.12780000  0.01040000  1
  C  C15  1  0.93970000  0.86320000  0.88730000  1
  O  O16  1  0.02000000  0.29910000  0.34065000  1
  O  O17  1  0.19280000  0.63460000  0.07706000  1
  O  O18  1  0.29260000  0.40182000  0.20554000  1
  O  O19  1  0.35180000  0.09950000  0.34250000  1
  O  O20  1  0.35430000  0.70980000  0.88134000  1
  O  O21  1  0.49510000  0.93940000  0.17530000  1
  O  O22  1  0.50490000  0.06060000  0.82470000  1
  O  O23  1  0.64570000  0.29020000  0.11866000  1
  O  O24  1  0.64820000  0.90050000  0.65750000  1
  O  O25  1  0.70740000  0.59818000  0.79446000  1
  O  O26  1  0.80720000  0.36540000  0.92294000  1
  O  O27  1  0.98000000  0.70090000  0.65935000  1
