# generated using pymatgen
data_UH6C12ClO6
_symmetry_space_group_name_H-M   'P 1'
_cell_length_a   9.79180000
_cell_length_b   9.94540000
_cell_length_c   12.73610000
_cell_angle_alpha   84.21600000
_cell_angle_beta   76.64200000
_cell_angle_gamma   64.07000000
_symmetry_Int_Tables_number   1
_chemical_formula_structural   UH6C12ClO6
_chemical_formula_sum   'U2 H12 C24 Cl2 O12'
_cell_volume   1085.24630800
_cell_formula_units_Z   2
loop_
 _symmetry_equiv_pos_site_id
 _symmetry_equiv_pos_as_xyz
  1  'x, y, z'
loop_
 _atom_site_type_symbol
 _atom_site_label
 _atom_site_symmetry_multiplicity
 _atom_site_fract_x
 _atom_site_fract_y
 _atom_site_fract_z
 _atom_site_occupancy
  U  U0  1  0.44052000  0.00833000  0.72511000  1
  U  U1  1  0.55948000  0.99167000  0.27489000  1
  H  H2  1  0.06810000  0.53880000  0.81780000  1
  H  H3  1  0.09460000  0.25950000  0.06900000  1
  H  H4  1  0.32140000  0.58250000  0.88880000  1
  H  H5  1  0.35980000  0.36660000  0.99110000  1
  H  H6  1  0.46260000  0.37280000  0.65880000  1
  H  H7  1  0.46830000  0.60110000  0.66420000  1
  H  H8  1  0.53170000  0.39890000  0.33580000  1
  H  H9  1  0.53740000  0.62720000  0.34120000  1
  H  H10  1  0.64020000  0.63340000  0.00890000  1
  H  H11  1  0.67860000  0.41750000  0.11120000  1
  H  H12  1  0.90540000  0.74050000  0.93100000  1
  H  H13  1  0.93190000  0.46120000  0.18220000  1
  C  C14  1  0.04090000  0.52290000  0.89130000  1
  C  C15  1  0.05720000  0.35570000  0.04070000  1
  C  C16  1  0.09880000  0.37790000  0.93240000  1
  C  C17  1  0.21150000  0.24810000  0.85970000  1
  C  C18  1  0.39320000  0.54970000  0.93310000  1
  C  C19  1  0.41610000  0.42020000  0.99490000  1
  C  C20  1  0.45960000  0.76730000  0.87010000  1
  C  C21  1  0.47740000  0.42400000  0.59510000  1
  C  C22  1  0.47810000  0.62900000  0.93830000  1
  C  C23  1  0.48130000  0.56000000  0.59810000  1
  C  C24  1  0.49220000  0.21530000  0.49230000  1
  C  C25  1  0.49550000  0.36350000  0.49680000  1
  C  C26  1  0.50450000  0.63650000  0.50320000  1
  C  C27  1  0.50780000  0.78470000  0.50770000  1
  C  C28  1  0.51870000  0.44000000  0.40190000  1
  C  C29  1  0.52190000  0.37100000  0.06170000  1
  C  C30  1  0.52260000  0.57600000  0.40490000  1
  C  C31  1  0.54040000  0.23270000  0.12990000  1
  C  C32  1  0.58390000  0.57980000  0.00510000  1
  C  C33  1  0.60680000  0.45030000  0.06690000  1
  C  C34  1  0.78850000  0.75190000  0.14030000  1
  C  C35  1  0.90120000  0.62210000  0.06760000  1
  C  C36  1  0.94280000  0.64430000  0.95930000  1
  C  C37  1  0.95910000  0.47710000  0.10870000  1
  Cl  Cl38  1  0.18370000  0.07500000  0.64771000  1
  Cl  Cl39  1  0.81630000  0.92500000  0.35229000  1
  O  O40  1  0.25040000  0.11990000  0.89320000  1
  O  O41  1  0.26650000  0.27790000  0.76370000  1
  O  O42  1  0.35700000  0.81420000  0.81200000  1
  O  O43  1  0.46030000  0.16720000  0.12830000  1
  O  O44  1  0.47720000  0.17860000  0.40530000  1
  O  O45  1  0.49710000  0.86400000  0.42400000  1
  O  O46  1  0.50290000  0.13600000  0.57600000  1
  O  O47  1  0.52280000  0.82140000  0.59470000  1
  O  O48  1  0.53970000  0.83280000  0.87170000  1
  O  O49  1  0.64300000  0.18580000  0.18800000  1
  O  O50  1  0.73350000  0.72210000  0.23630000  1
  O  O51  1  0.74960000  0.88010000  0.10680000  1
