# generated using pymatgen
data_Cu2H6C9N6O7
_symmetry_space_group_name_H-M   'P 1'
_cell_length_a   6.40210000
_cell_length_b   14.92950000
_cell_length_c   15.89010000
_cell_angle_alpha   90.00000000
_cell_angle_beta   90.00000000
_cell_angle_gamma   90.00000000
_symmetry_Int_Tables_number   1
_chemical_formula_structural   Cu2H6C9N6O7
_chemical_formula_sum   'Cu8 H24 C36 N24 O28'
_cell_volume   1518.77817250
_cell_formula_units_Z   4
loop_
 _symmetry_equiv_pos_site_id
 _symmetry_equiv_pos_as_xyz
  1  'x, y, z'
loop_
 _atom_site_type_symbol
 _atom_site_label
 _atom_site_symmetry_multiplicity
 _atom_site_fract_x
 _atom_site_fract_y
 _atom_site_fract_z
 _atom_site_occupancy
  Cu  Cu0  1  0.01448000  0.25625000  0.00532000  1
  Cu  Cu1  1  0.23662000  0.59122000  0.36524000  1
  Cu  Cu2  1  0.26338000  0.40878000  0.86524000  1
  Cu  Cu3  1  0.48552000  0.74375000  0.50532000  1
  Cu  Cu4  1  0.51448000  0.24375000  0.99468000  1
  Cu  Cu5  1  0.73662000  0.90878000  0.63476000  1
  Cu  Cu6  1  0.76338000  0.09122000  0.13476000  1
  Cu  Cu7  1  0.98552000  0.75625000  0.49468000  1
  H  H8  1  0.11790000  0.00240000  0.74930000  1
  H  H9  1  0.15050000  0.98260000  0.25210000  1
  H  H10  1  0.21860000  0.26660000  0.39390000  1
  H  H11  1  0.22510000  0.15220000  0.62670000  1
  H  H12  1  0.22960000  0.42280000  0.60280000  1
  H  H13  1  0.24630000  0.24780000  0.89310000  1
  H  H14  1  0.25370000  0.75220000  0.39310000  1
  H  H15  1  0.27040000  0.57720000  0.10280000  1
  H  H16  1  0.27490000  0.84780000  0.12670000  1
  H  H17  1  0.28140000  0.73340000  0.89390000  1
  H  H18  1  0.34950000  0.01740000  0.75210000  1
  H  H19  1  0.38210000  0.99760000  0.24930000  1
  H  H20  1  0.61790000  0.49760000  0.25070000  1
  H  H21  1  0.65050000  0.51740000  0.74790000  1
  H  H22  1  0.71860000  0.23340000  0.60610000  1
  H  H23  1  0.72510000  0.34780000  0.37330000  1
  H  H24  1  0.72960000  0.07720000  0.39720000  1
  H  H25  1  0.74630000  0.25220000  0.10690000  1
  H  H26  1  0.75370000  0.74780000  0.60690000  1
  H  H27  1  0.77040000  0.92280000  0.89720000  1
  H  H28  1  0.77490000  0.65220000  0.87330000  1
  H  H29  1  0.78140000  0.76660000  0.10610000  1
  H  H30  1  0.84950000  0.48260000  0.24790000  1
  H  H31  1  0.88210000  0.50240000  0.75070000  1
  C  C32  1  0.22090000  0.27300000  0.45337000  1
  C  C33  1  0.22140000  0.19840000  0.50557000  1
  C  C34  1  0.22380000  0.35729000  0.49043000  1
  C  C35  1  0.22490000  0.43905000  0.43506000  1
  C  C36  1  0.22510000  0.20452000  0.59276000  1
  C  C37  1  0.22760000  0.36510000  0.57768000  1
  C  C38  1  0.22860000  0.28884000  0.62883000  1
  C  C39  1  0.23610000  0.29964000  0.72407000  1
  C  C40  1  0.23850000  0.93297000  0.66400000  1
  C  C41  1  0.26150000  0.06703000  0.16400000  1
  C  C42  1  0.26390000  0.70036000  0.22407000  1
  C  C43  1  0.27140000  0.71116000  0.12883000  1
  C  C44  1  0.27240000  0.63490000  0.07768000  1
  C  C45  1  0.27490000  0.79548000  0.09276000  1
  C  C46  1  0.27510000  0.56095000  0.93506000  1
  C  C47  1  0.27620000  0.64271000  0.99043000  1
  C  C48  1  0.27860000  0.80160000  0.00557000  1
  C  C49  1  0.27910000  0.72700000  0.95337000  1
  C  C50  1  0.72090000  0.22700000  0.54663000  1
  C  C51  1  0.72140000  0.30160000  0.49443000  1
  C  C52  1  0.72380000  0.14271000  0.50957000  1
  C  C53  1  0.72490000  0.06095000  0.56494000  1
  C  C54  1  0.72510000  0.29548000  0.40724000  1
  C  C55  1  0.72760000  0.13490000  0.42232000  1
  C  C56  1  0.72860000  0.21116000  0.37117000  1
  C  C57  1  0.73610000  0.20036000  0.27593000  1
  C  C58  1  0.73850000  0.56703000  0.33600000  1
  C  C59  1  0.76150000  0.43297000  0.83600000  1
  C  C60  1  0.76390000  0.79964000  0.77593000  1
  C  C61  1  0.77140000  0.78884000  0.87117000  1
  C  C62  1  0.77240000  0.86510000  0.92232000  1
  C  C63  1  0.77490000  0.70452000  0.90724000  1
  C  C64  1  0.77510000  0.93905000  0.06494000  1
  C  C65  1  0.77620000  0.85729000  0.00957000  1
  C  C66  1  0.77860000  0.69840000  0.99443000  1
  C  C67  1  0.77910000  0.77300000  0.04663000  1
  N  N68  1  0.06600000  0.89681000  0.62961000  1
  N  N69  1  0.08800000  0.10458000  0.13083000  1
  N  N70  1  0.13730000  0.83640000  0.57478000  1
  N  N71  1  0.16150000  0.16478000  0.07557000  1
  N  N72  1  0.22110000  0.10925000  0.46611000  1
  N  N73  1  0.23910000  0.00100000  0.72060000  1
  N  N74  1  0.26090000  0.99900000  0.22060000  1
  N  N75  1  0.27890000  0.89075000  0.96611000  1
  N  N76  1  0.33850000  0.83522000  0.57557000  1
  N  N77  1  0.36270000  0.16360000  0.07478000  1
  N  N78  1  0.41200000  0.89542000  0.63083000  1
  N  N79  1  0.43400000  0.10319000  0.12961000  1
  N  N80  1  0.56600000  0.60319000  0.37039000  1
  N  N81  1  0.58800000  0.39542000  0.86917000  1
  N  N82  1  0.63730000  0.66360000  0.42522000  1
  N  N83  1  0.66150000  0.33522000  0.92443000  1
  N  N84  1  0.72110000  0.39075000  0.53389000  1
  N  N85  1  0.73910000  0.49900000  0.27940000  1
  N  N86  1  0.76090000  0.50100000  0.77940000  1
  N  N87  1  0.77890000  0.60925000  0.03389000  1
  N  N88  1  0.83850000  0.66478000  0.42443000  1
  N  N89  1  0.86270000  0.33640000  0.92522000  1
  N  N90  1  0.91200000  0.60458000  0.36917000  1
  N  N91  1  0.93400000  0.39681000  0.87039000  1
  O  O92  1  0.21360000  0.10436000  0.38914000  1
  O  O93  1  0.21830000  0.43064000  0.35739000  1
  O  O94  1  0.22050000  0.23279000  0.76952000  1
  O  O95  1  0.22850000  0.04329000  0.51274000  1
  O  O96  1  0.23030000  0.51612000  0.47001000  1
  O  O97  1  0.23920000  0.72320000  0.43878000  1
  O  O98  1  0.24070000  0.61946000  0.24842000  1
  O  O99  1  0.25930000  0.38054000  0.74842000  1
  O  O100  1  0.26080000  0.27680000  0.93878000  1
  O  O101  1  0.26970000  0.48388000  0.97001000  1
  O  O102  1  0.27150000  0.95671000  0.01274000  1
  O  O103  1  0.27950000  0.76721000  0.26952000  1
  O  O104  1  0.28170000  0.56936000  0.85739000  1
  O  O105  1  0.28640000  0.89564000  0.88914000  1
  O  O106  1  0.71360000  0.39564000  0.61086000  1
  O  O107  1  0.71830000  0.06936000  0.64261000  1
  O  O108  1  0.72050000  0.26721000  0.23048000  1
  O  O109  1  0.72850000  0.45671000  0.48726000  1
  O  O110  1  0.73030000  0.98388000  0.52999000  1
  O  O111  1  0.73920000  0.77680000  0.56122000  1
  O  O112  1  0.74070000  0.88054000  0.75158000  1
  O  O113  1  0.75930000  0.11946000  0.25158000  1
  O  O114  1  0.76080000  0.22320000  0.06122000  1
  O  O115  1  0.76970000  0.01612000  0.02999000  1
  O  O116  1  0.77150000  0.54329000  0.98726000  1
  O  O117  1  0.77950000  0.73279000  0.73048000  1
  O  O118  1  0.78170000  0.93064000  0.14261000  1
  O  O119  1  0.78640000  0.60436000  0.11086000  1
