# generated using pymatgen
data_Zn7H54C102N12O13
_symmetry_space_group_name_H-M   'P 1'
_cell_length_a   23.68753873
_cell_length_b   23.68753873
_cell_length_c   23.68753873
_cell_angle_alpha   94.20257059
_cell_angle_beta   94.20257059
_cell_angle_gamma   94.20257059
_symmetry_Int_Tables_number   1
_chemical_formula_structural   Zn7H54C102N12O13
_chemical_formula_sum   'Zn28 H216 C408 N48 O52'
_cell_volume   13178.28935882
_cell_formula_units_Z   4
loop_
 _symmetry_equiv_pos_site_id
 _symmetry_equiv_pos_as_xyz
  1  'x, y, z'
loop_
 _atom_site_type_symbol
 _atom_site_label
 _atom_site_symmetry_multiplicity
 _atom_site_fract_x
 _atom_site_fract_y
 _atom_site_fract_z
 _atom_site_occupancy
  C  C0  1  0.25000000  0.61860000  0.88140000  1
  C  C1  1  0.75000000  0.18720000  0.31280000  1
  C  C2  1  0.25000000  0.81280000  0.68720000  1
  C  C3  1  0.75000000  0.38140000  0.11860000  1
  C  C4  1  0.95810000  0.22170000  0.69110000  1
  C  C5  1  0.45810000  0.19110000  0.72170000  1
  C  C6  1  0.62130000  0.07840000  0.13020000  1
  C  C7  1  0.12130000  0.63020000  0.57840000  1
  C  C8  1  0.54230000  0.75610000  0.29200000  1
  C  C9  1  0.04230000  0.79200000  0.25610000  1
  C  C10  1  0.59900000  0.03870000  0.08180000  1
  C  C11  1  0.09900000  0.58180000  0.53870000  1
  C  C12  1  0.92440000  0.35520000  0.39350000  1
  C  C13  1  0.42440000  0.89350000  0.85520000  1
  C  C14  1  0.26600000  0.60160000  0.82870000  1
  C  C15  1  0.76600000  0.32870000  0.10160000  1
  C  C16  1  0.76360000  0.16540000  0.25980000  1
  C  C17  1  0.26360000  0.75980000  0.66540000  1
  C  C18  1  0.46870000  0.49370000  0.33850000  1
  C  C19  1  0.96870000  0.83850000  0.99370000  1
  C  C20  1  0.61860000  0.88140000  0.25000000  1
  C  C21  1  0.11860000  0.75000000  0.38140000  1
  C  C22  1  0.60160000  0.82870000  0.26600000  1
  C  C23  1  0.10160000  0.76600000  0.32870000  1
  C  C24  1  0.25340000  0.32530000  0.05960000  1
  C  C25  1  0.75340000  0.55960000  0.82530000  1
  C  C26  1  0.53340000  0.57700000  0.36600000  1
  C  C27  1  0.03340000  0.86600000  0.07700000  1
  C  C28  1  0.75840000  0.82340000  0.55920000  1
  C  C29  1  0.25840000  0.05920000  0.32340000  1
  C  C30  1  0.50250000  0.54450000  0.32620000  1
  C  C31  1  0.00250000  0.82620000  0.04450000  1
  C  C32  1  0.97320000  0.39670000  0.41420000  1
  C  C33  1  0.47320000  0.91420000  0.89670000  1
  C  C34  1  0.72340000  0.72590000  0.58040000  1
  C  C35  1  0.22340000  0.08040000  0.22590000  1
  C  C36  1  0.22590000  0.22340000  0.08040000  1
  C  C37  1  0.72590000  0.58040000  0.72340000  1
  C  C38  1  0.56830000  0.62390000  0.35410000  1
  C  C39  1  0.06830000  0.85410000  0.12390000  1
  C  C40  1  0.50460000  0.56130000  0.27190000  1
  C  C41  1  0.00460000  0.77190000  0.06130000  1
  C  C42  1  0.29480000  0.36440000  0.04660000  1
  C  C43  1  0.79480000  0.54660000  0.86440000  1
  C  C44  1  0.99370000  0.96870000  0.83850000  1
  C  C45  1  0.49370000  0.33850000  0.46870000  1
  C  C46  1  0.60010000  0.73710000  0.27990000  1
  C  C47  1  0.10010000  0.77990000  0.23710000  1
  C  C48  1  0.80100000  0.86430000  0.54530000  1
  C  C49  1  0.30100000  0.04530000  0.36430000  1
  C  C50  1  0.77360000  0.10910000  0.24520000  1
  C  C51  1  0.27360000  0.74520000  0.60910000  1
  C  C52  1  0.26760000  0.27140000  0.06600000  1
  C  C53  1  0.76760000  0.56600000  0.77140000  1
  C  C54  1  0.10910000  0.24520000  0.77360000  1
  C  C55  1  0.60910000  0.27360000  0.74520000  1
  C  C56  1  0.69110000  0.95810000  0.22170000  1
  C  C57  1  0.19110000  0.72170000  0.45810000  1
  C  C58  1  0.27830000  0.54190000  0.80890000  1
  C  C59  1  0.77830000  0.30890000  0.04190000  1
  C  C60  1  0.57310000  0.63820000  0.29960000  1
  C  C61  1  0.07310000  0.79960000  0.13820000  1
  C  C62  1  0.77140000  0.76760000  0.56600000  1
  C  C63  1  0.27140000  0.06600000  0.26760000  1
  C  C64  1  0.67130000  0.89840000  0.23400000  1
  C  C65  1  0.17130000  0.73400000  0.39840000  1
  C  C66  1  0.63530000  0.00300000  0.05300000  1
  C  C67  1  0.13530000  0.55300000  0.50300000  1
  C  C68  1  0.54170000  0.60610000  0.26080000  1
  C  C69  1  0.04170000  0.76080000  0.10610000  1
  C  C70  1  0.77820000  0.16590000  0.16820000  1
  C  C71  1  0.27820000  0.66820000  0.66590000  1
  C  C72  1  0.27990000  0.60010000  0.73710000  1
  C  C73  1  0.77990000  0.23710000  0.10010000  1
  C  C74  1  0.93130000  0.97840000  0.65760000  1
  C  C75  1  0.43130000  0.15760000  0.47840000  1
  C  C76  1  0.10830000  0.19130000  0.78240000  1
  C  C77  1  0.60830000  0.28240000  0.69130000  1
  C  C78  1  0.90250000  0.93380000  0.62660000  1
  C  C79  1  0.40250000  0.12660000  0.43380000  1
  C  C80  1  0.07700000  0.03340000  0.86600000  1
  C  C81  1  0.57700000  0.36600000  0.53340000  1
  C  C82  1  0.04450000  0.00250000  0.82620000  1
  C  C83  1  0.54450000  0.32620000  0.50250000  1
  C  C84  1  0.61340000  0.68220000  0.28400000  1
  C  C85  1  0.11340000  0.78400000  0.18220000  1
  C  C86  1  0.02820000  0.39640000  0.39760000  1
  C  C87  1  0.52820000  0.89760000  0.89640000  1
  C  C88  1  0.78240000  0.10830000  0.19130000  1
  C  C89  1  0.28240000  0.69130000  0.60830000  1
  C  C90  1  0.62270000  0.96750000  0.00680000  1
  C  C91  1  0.12270000  0.50680000  0.46750000  1
  C  C92  1  0.28400000  0.61340000  0.68220000  1
  C  C93  1  0.78400000  0.18220000  0.11340000  1
  C  C94  1  0.16150000  0.00630000  0.03130000  1
  C  C95  1  0.66150000  0.53130000  0.50630000  1
  C  C96  1  0.29200000  0.54230000  0.75610000  1
  C  C97  1  0.79200000  0.25610000  0.04230000  1
  C  C98  1  0.91960000  0.77410000  0.77660000  1
  C  C99  1  0.41960000  0.27660000  0.27410000  1
  C  C100  1  0.57170000  0.91870000  0.93500000  1
  C  C101  1  0.07170000  0.43500000  0.41870000  1
  C  C102  1  0.96750000  0.00680000  0.62270000  1
  C  C103  1  0.46750000  0.12270000  0.50680000  1
  C  C104  1  0.35000000  0.35410000  0.03950000  1
  C  C105  1  0.85000000  0.53950000  0.85410000  1
  C  C106  1  0.16540000  0.25980000  0.76360000  1
  C  C107  1  0.66540000  0.26360000  0.75980000  1
  C  C108  1  0.18720000  0.31280000  0.75000000  1
  C  C109  1  0.68720000  0.25000000  0.81280000  1
  C  C110  1  0.00300000  0.05300000  0.63530000  1
  C  C111  1  0.50300000  0.13530000  0.55300000  1
  C  C112  1  0.85410000  0.85000000  0.53950000  1
  C  C113  1  0.35410000  0.03950000  0.35000000  1
  C  C114  1  0.74390000  0.95770000  0.20800000  1
  C  C115  1  0.24390000  0.70800000  0.45770000  1
  C  C116  1  0.12390000  0.06830000  0.85410000  1
  C  C117  1  0.62390000  0.35410000  0.56830000  1
  C  C118  1  0.32340000  0.25840000  0.05920000  1
  C  C119  1  0.82340000  0.55920000  0.75840000  1
  C  C120  1  0.91870000  0.93500000  0.57170000  1
  C  C121  1  0.41870000  0.07170000  0.43500000  1
  C  C122  1  0.82530000  0.75340000  0.55960000  1
  C  C123  1  0.32530000  0.05960000  0.25340000  1
  C  C124  1  0.43380000  0.40250000  0.12660000  1
  C  C125  1  0.93380000  0.62660000  0.90250000  1
  C  C126  1  0.06130000  0.00460000  0.77190000  1
  C  C127  1  0.56130000  0.27190000  0.50460000  1
  C  C128  1  0.39640000  0.39760000  0.02820000  1
  C  C129  1  0.89640000  0.52820000  0.89760000  1
  C  C130  1  0.47840000  0.43130000  0.15760000  1
  C  C131  1  0.97840000  0.65760000  0.93130000  1
  C  C132  1  0.89760000  0.89640000  0.52820000  1
  C  C133  1  0.39760000  0.02820000  0.39640000  1
  C  C134  1  0.26080000  0.54170000  0.60610000  1
  C  C135  1  0.76080000  0.10610000  0.04170000  1
  C  C136  1  0.03950000  0.35000000  0.35410000  1
  C  C137  1  0.53950000  0.85410000  0.85000000  1
  C  C138  1  0.13400000  0.92300000  0.96660000  1
  C  C139  1  0.63400000  0.46660000  0.42300000  1
  C  C140  1  0.43500000  0.41870000  0.07170000  1
  C  C141  1  0.93500000  0.57170000  0.91870000  1
  C  C142  1  0.36430000  0.30100000  0.04530000  1
  C  C143  1  0.86430000  0.54530000  0.80100000  1
  C  C144  1  0.16590000  0.16820000  0.77820000  1
  C  C145  1  0.66590000  0.27820000  0.66820000  1
  C  C146  1  0.86440000  0.79480000  0.54660000  1
  C  C147  1  0.36440000  0.04660000  0.29480000  1
  C  C148  1  0.29960000  0.57310000  0.63820000  1
  C  C149  1  0.79960000  0.13820000  0.07310000  1
  C  C150  1  0.66820000  0.66590000  0.27820000  1
  C  C151  1  0.25480000  0.39090000  0.72640000  1
  C  C152  1  0.75480000  0.22640000  0.89090000  1
  C  C153  1  0.16820000  0.77820000  0.16590000  1
  C  C154  1  0.35520000  0.39350000  0.92440000  1
  C  C155  1  0.85520000  0.42440000  0.89350000  1
  C  C156  1  0.17380000  0.95550000  0.99750000  1
  C  C157  1  0.67380000  0.49750000  0.45550000  1
  C  C158  1  0.03870000  0.08180000  0.59900000  1
  C  C159  1  0.53870000  0.09900000  0.58180000  1
  C  C160  1  0.13820000  0.07310000  0.79960000  1
  C  C161  1  0.63820000  0.29960000  0.57310000  1
  C  C162  1  0.07840000  0.13020000  0.62130000  1
  C  C163  1  0.57840000  0.12130000  0.63020000  1
  C  C164  1  0.65760000  0.93130000  0.97840000  1
  C  C165  1  0.15760000  0.47840000  0.43130000  1
  C  C166  1  0.76290000  0.89990000  0.22010000  1
  C  C167  1  0.26290000  0.72010000  0.39990000  1
  C  C168  1  0.39670000  0.41420000  0.97320000  1
  C  C169  1  0.89670000  0.47320000  0.91420000  1
  C  C170  1  0.43400000  0.22860000  0.23240000  1
  C  C171  1  0.93400000  0.73240000  0.72860000  1
  C  C172  1  0.24020000  0.33460000  0.73640000  1
  C  C173  1  0.74020000  0.23640000  0.83460000  1
  C  C174  1  0.10610000  0.04170000  0.76080000  1
  C  C175  1  0.60610000  0.26080000  0.54170000  1
  C  C176  1  0.62660000  0.90250000  0.93380000  1
  C  C177  1  0.12660000  0.43380000  0.40250000  1
  C  C178  1  0.50680000  0.46750000  0.12270000  1
  C  C179  1  0.00680000  0.62270000  0.96750000  1
  C  C180  1  0.54530000  0.80100000  0.86430000  1
  C  C181  1  0.04530000  0.36430000  0.30100000  1
  C  C182  1  0.04660000  0.29480000  0.36440000  1
  C  C183  1  0.54660000  0.86440000  0.79480000  1
  C  C184  1  0.36980000  0.42160000  0.87870000  1
  C  C185  1  0.86980000  0.37870000  0.92160000  1
  C  C186  1  0.91420000  0.89670000  0.47320000  1
  C  C187  1  0.41420000  0.97320000  0.39670000  1
  C  C188  1  0.44040000  0.17470000  0.24660000  1
  C  C189  1  0.94040000  0.74660000  0.67470000  1
  C  C190  1  0.94080000  0.67660000  0.74160000  1
  C  C191  1  0.44080000  0.24160000  0.17660000  1
  C  C192  1  0.18220000  0.11340000  0.78400000  1
  C  C193  1  0.68220000  0.28400000  0.61340000  1
  C  C194  1  0.55300000  0.50300000  0.13530000  1
  C  C195  1  0.05300000  0.63530000  0.00300000  1
  C  C196  1  0.41820000  0.46130000  0.90100000  1
  C  C197  1  0.91820000  0.40100000  0.96130000  1
  C  C198  1  0.27190000  0.50460000  0.56130000  1
  C  C199  1  0.77190000  0.06130000  0.00460000  1
  C  C200  1  0.14590000  0.87610000  0.93170000  1
  C  C201  1  0.64590000  0.43170000  0.37610000  1
  C  C202  1  0.69130000  0.60830000  0.28240000  1
  C  C203  1  0.19130000  0.78240000  0.10830000  1
  C  C204  1  0.10650000  0.14480000  0.57560000  1
  C  C205  1  0.60650000  0.07560000  0.64480000  1
  C  C206  1  0.89350000  0.85520000  0.42440000  1
  C  C207  1  0.39350000  0.92440000  0.35520000  1
  C  C208  1  0.30870000  0.39170000  0.71760000  1
  C  C209  1  0.80870000  0.21760000  0.89170000  1
  C  C210  1  0.35410000  0.56830000  0.62390000  1
  C  C211  1  0.85410000  0.12390000  0.06830000  1
  C  C212  1  0.22810000  0.93870000  0.99540000  1
  C  C213  1  0.72810000  0.49540000  0.43870000  1
  C  C214  1  0.58180000  0.53870000  0.09900000  1
  C  C215  1  0.08180000  0.59900000  0.03870000  1
  C  C216  1  0.44700000  0.49700000  0.86470000  1
  C  C217  1  0.94700000  0.36470000  0.99700000  1
  C  C218  1  0.81780000  0.88660000  0.21600000  1
  C  C219  1  0.31780000  0.71600000  0.38660000  1
  C  C220  1  0.55920000  0.75840000  0.82340000  1
  C  C221  1  0.05920000  0.32340000  0.25840000  1
  C  C222  1  0.05960000  0.25340000  0.32530000  1
  C  C223  1  0.55960000  0.82530000  0.75340000  1
  C  C224  1  0.08580000  0.10330000  0.52680000  1
  C  C225  1  0.58580000  0.02680000  0.60330000  1
  C  C226  1  0.63020000  0.57840000  0.12130000  1
  C  C227  1  0.13020000  0.62130000  0.07840000  1
  C  C228  1  0.45340000  0.13560000  0.20520000  1
  C  C229  1  0.95340000  0.70520000  0.63560000  1
  C  C230  1  0.95470000  0.63570000  0.69900000  1
  C  C231  1  0.45470000  0.19900000  0.13570000  1
  C  C232  1  0.49320000  0.53250000  0.87730000  1
  C  C233  1  0.99320000  0.37730000  0.03250000  1
  C  C234  1  0.87340000  0.56620000  0.59750000  1
  C  C235  1  0.37340000  0.09750000  0.06620000  1
  C  C236  1  0.89390000  0.95830000  0.23920000  1
  C  C237  1  0.39390000  0.73920000  0.45830000  1
  C  C238  1  0.75980000  0.66540000  0.26360000  1
  C  C239  1  0.25980000  0.76360000  0.16540000  1
  C  C240  1  0.06600000  0.26760000  0.27140000  1
  C  C241  1  0.56600000  0.77140000  0.76760000  1
  C  C242  1  0.60330000  0.58580000  0.02680000  1
  C  C243  1  0.10330000  0.52680000  0.08580000  1
  C  C244  1  0.23710000  0.10010000  0.77990000  1
  C  C245  1  0.73710000  0.27990000  0.60010000  1
  C  C246  1  0.84240000  0.52160000  0.56870000  1
  C  C247  1  0.34240000  0.06870000  0.02160000  1
  C  C248  1  0.92160000  0.86980000  0.37870000  1
  C  C249  1  0.42160000  0.87870000  0.36980000  1
  C  C250  1  0.86180000  0.92690000  0.20040000  1
  C  C251  1  0.36180000  0.70040000  0.42690000  1
  C  C252  1  0.96130000  0.91820000  0.40100000  1
  C  C253  1  0.46130000  0.90100000  0.41820000  1
  C  C254  1  0.32620000  0.50250000  0.54450000  1
  C  C255  1  0.82620000  0.04450000  0.00250000  1
  C  C256  1  0.64480000  0.60650000  0.07560000  1
  C  C257  1  0.14480000  0.57560000  0.10650000  1
  C  C258  1  0.74520000  0.60910000  0.27360000  1
  C  C259  1  0.33180000  0.33410000  0.72180000  1
  C  C260  1  0.83180000  0.22180000  0.83410000  1
  C  C261  1  0.24520000  0.77360000  0.10910000  1
  C  C262  1  0.20040000  0.86180000  0.92690000  1
  C  C263  1  0.70040000  0.42690000  0.36180000  1
  C  C264  1  0.13560000  0.20520000  0.45340000  1
  C  C265  1  0.63560000  0.95340000  0.70520000  1
  C  C266  1  0.83410000  0.83180000  0.22180000  1
  C  C267  1  0.33410000  0.72180000  0.33180000  1
  C  C268  1  0.63570000  0.69900000  0.95470000  1
  C  C269  1  0.13570000  0.45470000  0.19900000  1
  C  C270  1  0.56500000  0.58130000  0.92830000  1
  C  C271  1  0.06500000  0.42830000  0.08130000  1
  C  C272  1  0.36600000  0.53340000  0.57700000  1
  C  C273  1  0.86600000  0.07700000  0.03340000  1
  C  C274  1  0.46050000  0.14590000  0.15000000  1
  C  C275  1  0.96050000  0.65000000  0.64590000  1
  C  C276  1  0.23920000  0.89390000  0.95830000  1
  C  C277  1  0.73920000  0.45830000  0.39390000  1
  C  C278  1  0.10240000  0.10360000  0.47180000  1
  C  C279  1  0.60240000  0.97180000  0.60360000  1
  C  C280  1  0.52160000  0.56870000  0.84240000  1
  C  C281  1  0.02160000  0.34240000  0.06870000  1
  C  C282  1  0.60360000  0.60240000  0.97180000  1
  C  C283  1  0.10360000  0.47180000  0.10240000  1
  C  C284  1  0.93870000  0.99540000  0.22810000  1
  C  C285  1  0.43870000  0.72810000  0.49540000  1
  C  C286  1  0.56620000  0.59750000  0.87340000  1
  C  C287  1  0.06620000  0.37340000  0.09750000  1
  C  C288  1  0.17470000  0.24660000  0.44040000  1
  C  C289  1  0.67470000  0.94040000  0.74660000  1
  C  C290  1  0.08130000  0.06500000  0.42830000  1
  C  C291  1  0.58130000  0.92830000  0.56500000  1
  C  C292  1  0.67660000  0.74160000  0.94080000  1
  C  C293  1  0.17660000  0.44080000  0.24160000  1
  C  C294  1  0.87610000  0.93170000  0.14590000  1
  C  C295  1  0.37610000  0.64590000  0.43170000  1
  C  C296  1  0.25610000  0.04230000  0.79200000  1
  C  C297  1  0.75610000  0.29200000  0.54230000  1
  C  C298  1  0.14590000  0.15000000  0.46050000  1
  C  C299  1  0.64590000  0.96050000  0.65000000  1
  C  C300  1  0.99700000  0.94700000  0.36470000  1
  C  C301  1  0.49700000  0.86470000  0.44700000  1
  C  C302  1  0.81280000  0.68720000  0.25000000  1
  C  C303  1  0.31280000  0.75000000  0.18720000  1
  C  C304  1  0.83460000  0.74020000  0.23640000  1
  C  C305  1  0.33460000  0.73640000  0.24020000  1
  C  C306  1  0.65000000  0.64590000  0.96050000  1
  C  C307  1  0.15000000  0.46050000  0.14590000  1
  C  C308  1  0.03250000  0.99320000  0.37730000  1
  C  C309  1  0.53250000  0.87730000  0.49320000  1
  C  C310  1  0.92830000  0.56500000  0.58130000  1
  C  C311  1  0.42830000  0.08130000  0.06500000  1
  C  C312  1  0.58040000  0.72340000  0.72590000  1
  C  C313  1  0.08040000  0.22590000  0.22340000  1
  C  C314  1  0.20800000  0.74390000  0.95770000  1
  C  C315  1  0.70800000  0.45770000  0.24390000  1
  C  C316  1  0.33850000  0.46870000  0.49370000  1
  C  C317  1  0.83850000  0.99370000  0.96870000  1
  C  C318  1  0.21600000  0.81780000  0.88660000  1
  C  C319  1  0.71600000  0.38660000  0.31780000  1
  C  C320  1  0.87730000  0.49320000  0.53250000  1
  C  C321  1  0.37730000  0.03250000  0.99320000  1
  C  C322  1  0.71760000  0.30870000  0.39170000  1
  C  C323  1  0.21760000  0.89170000  0.80870000  1
  C  C324  1  0.47180000  0.10240000  0.10360000  1
  C  C325  1  0.97180000  0.60360000  0.60240000  1
  C  C326  1  0.38660000  0.31780000  0.71600000  1
  C  C327  1  0.88660000  0.21600000  0.81780000  1
  C  C328  1  0.95550000  0.99750000  0.17380000  1
  C  C329  1  0.45550000  0.67380000  0.49750000  1
  C  C330  1  0.92300000  0.96660000  0.13400000  1
  C  C331  1  0.42300000  0.63400000  0.46660000  1
  C  C332  1  0.09750000  0.06620000  0.37340000  1
  C  C333  1  0.59750000  0.87340000  0.56620000  1
  C  C334  1  0.89170000  0.80870000  0.21760000  1
  C  C335  1  0.39170000  0.71760000  0.30870000  1
  C  C336  1  0.06870000  0.02160000  0.34240000  1
  C  C337  1  0.56870000  0.84240000  0.52160000  1
  C  C338  1  0.22010000  0.76290000  0.89990000  1
  C  C339  1  0.72010000  0.39990000  0.26290000  1
  C  C340  1  0.72180000  0.33180000  0.33410000  1
  C  C341  1  0.22180000  0.83410000  0.83180000  1
  C  C342  1  0.45830000  0.39390000  0.73920000  1
  C  C343  1  0.95830000  0.23920000  0.89390000  1
  C  C344  1  0.86470000  0.44700000  0.49700000  1
  C  C345  1  0.36470000  0.99700000  0.94700000  1
  C  C346  1  0.32870000  0.10160000  0.76600000  1
  C  C347  1  0.82870000  0.26600000  0.60160000  1
  C  C348  1  0.22860000  0.23240000  0.43400000  1
  C  C349  1  0.72860000  0.93400000  0.73240000  1
  C  C350  1  0.42690000  0.36180000  0.70040000  1
  C  C351  1  0.92690000  0.20040000  0.86180000  1
  C  C352  1  0.72170000  0.45810000  0.19110000  1
  C  C353  1  0.22170000  0.69110000  0.95810000  1
  C  C354  1  0.80890000  0.27830000  0.54190000  1
  C  C355  1  0.30890000  0.04190000  0.77830000  1
  C  C356  1  0.89090000  0.75480000  0.22640000  1
  C  C357  1  0.39090000  0.72640000  0.25480000  1
  C  C358  1  0.73240000  0.72860000  0.93400000  1
  C  C359  1  0.23240000  0.43400000  0.22860000  1
  C  C360  1  0.72640000  0.25480000  0.39090000  1
  C  C361  1  0.22640000  0.89090000  0.75480000  1
  C  C362  1  0.19900000  0.13570000  0.45470000  1
  C  C363  1  0.69900000  0.95470000  0.63570000  1
  C  C364  1  0.39990000  0.26290000  0.72010000  1
  C  C365  1  0.89990000  0.22010000  0.76290000  1
  C  C366  1  0.00630000  0.03130000  0.16150000  1
  C  C367  1  0.50630000  0.66150000  0.53130000  1
  C  C368  1  0.70520000  0.63560000  0.95340000  1
  C  C369  1  0.20520000  0.45340000  0.13560000  1
  C  C370  1  0.49540000  0.43870000  0.72810000  1
  C  C371  1  0.99540000  0.22810000  0.93870000  1
  C  C372  1  0.43170000  0.37610000  0.64590000  1
  C  C373  1  0.93170000  0.14590000  0.87610000  1
  C  C374  1  0.77410000  0.77660000  0.91960000  1
  C  C375  1  0.27410000  0.41960000  0.27660000  1
  C  C376  1  0.27660000  0.27410000  0.41960000  1
  C  C377  1  0.77660000  0.91960000  0.77410000  1
  C  C378  1  0.52680000  0.08580000  0.10330000  1
  C  C379  1  0.02680000  0.60330000  0.58580000  1
  C  C380  1  0.49750000  0.45550000  0.67380000  1
  C  C381  1  0.99750000  0.17380000  0.95550000  1
  C  C382  1  0.24160000  0.17660000  0.44080000  1
  C  C383  1  0.74160000  0.94080000  0.67660000  1
  C  C384  1  0.46660000  0.42300000  0.63400000  1
  C  C385  1  0.96660000  0.13400000  0.92300000  1
  C  C386  1  0.74660000  0.67470000  0.94040000  1
  C  C387  1  0.24660000  0.44040000  0.17470000  1
  C  C388  1  0.39840000  0.17130000  0.73400000  1
  C  C389  1  0.89840000  0.23400000  0.67130000  1
  C  C390  1  0.38140000  0.11860000  0.75000000  1
  C  C391  1  0.88140000  0.25000000  0.61860000  1
  C  C392  1  0.53130000  0.50630000  0.66150000  1
  C  C393  1  0.03130000  0.16150000  0.00630000  1
  C  C394  1  0.73640000  0.24020000  0.33460000  1
  C  C395  1  0.23640000  0.83460000  0.74020000  1
  C  C396  1  0.23400000  0.67130000  0.89840000  1
  C  C397  1  0.73400000  0.39840000  0.17130000  1
  C  C398  1  0.57560000  0.10650000  0.14480000  1
  C  C399  1  0.07560000  0.64480000  0.60650000  1
  C  C400  1  0.90100000  0.41820000  0.46130000  1
  C  C401  1  0.40100000  0.96130000  0.91820000  1
  C  C402  1  0.45770000  0.24390000  0.70800000  1
  C  C403  1  0.95770000  0.20800000  0.74390000  1
  C  C404  1  0.87870000  0.36980000  0.42160000  1
  C  C405  1  0.37870000  0.92160000  0.86980000  1
  C  C406  1  0.04190000  0.77830000  0.30890000  1
  C  C407  1  0.54190000  0.80890000  0.27830000  1
  H  H408  1  0.25000000  0.59180000  0.90820000  1
  H  H409  1  0.75000000  0.16040000  0.33960000  1
  H  H410  1  0.25000000  0.83960000  0.66040000  1
  H  H411  1  0.75000000  0.40820000  0.09180000  1
  H  H412  1  0.98700000  0.19360000  0.76530000  1
  H  H413  1  0.48700000  0.26530000  0.69360000  1
  H  H414  1  0.59180000  0.90820000  0.25000000  1
  H  H415  1  0.09180000  0.75000000  0.40820000  1
  H  H416  1  0.21670000  0.33530000  0.06410000  1
  H  H417  1  0.71670000  0.56410000  0.83530000  1
  H  H418  1  0.72180000  0.83380000  0.56410000  1
  H  H419  1  0.22180000  0.06410000  0.33380000  1
  H  H420  1  0.98950000  0.22340000  0.66970000  1
  H  H421  1  0.48950000  0.16970000  0.72340000  1
  H  H422  1  0.65830000  0.08330000  0.14710000  1
  H  H423  1  0.15830000  0.64710000  0.58330000  1
  H  H424  1  0.53190000  0.56850000  0.40360000  1
  H  H425  1  0.03190000  0.90360000  0.06850000  1
  H  H426  1  0.07900000  0.26830000  0.77400000  1
  H  H427  1  0.57900000  0.27400000  0.76830000  1
  H  H428  1  0.28460000  0.40110000  0.04230000  1
  H  H429  1  0.78460000  0.54230000  0.90110000  1
  H  H430  1  0.66970000  0.98950000  0.22340000  1
  H  H431  1  0.16970000  0.72340000  0.48950000  1
  H  H432  1  0.79190000  0.90120000  0.54000000  1
  H  H433  1  0.29190000  0.04000000  0.40120000  1
  H  H434  1  0.58890000  0.64590000  0.38380000  1
  H  H435  1  0.08890000  0.88380000  0.14590000  1
  H  H436  1  0.92510000  0.32490000  0.36640000  1
  H  H437  1  0.42510000  0.86640000  0.82490000  1
  H  H438  1  0.92760000  0.98870000  0.69570000  1
  H  H439  1  0.42760000  0.19570000  0.48870000  1
  H  H440  1  0.48090000  0.54230000  0.24230000  1
  H  H441  1  0.98090000  0.74230000  0.04230000  1
  H  H442  1  0.07600000  0.16960000  0.79050000  1
  H  H443  1  0.57600000  0.29050000  0.66960000  1
  H  H444  1  0.77400000  0.07900000  0.26830000  1
  H  H445  1  0.27400000  0.76830000  0.57900000  1
  H  H446  1  0.06850000  0.03190000  0.90360000  1
  H  H447  1  0.56850000  0.40360000  0.53190000  1
  H  H448  1  0.87680000  0.90730000  0.63980000  1
  H  H449  1  0.37680000  0.13980000  0.40730000  1
  H  H450  1  0.27660000  0.51050000  0.83030000  1
  H  H451  1  0.77660000  0.33030000  0.01050000  1
  H  H452  1  0.16040000  0.33960000  0.75000000  1
  H  H453  1  0.66040000  0.25000000  0.83960000  1
  H  H454  1  0.54450000  0.61390000  0.22320000  1
  H  H455  1  0.04450000  0.72320000  0.11390000  1
  H  H456  1  0.00450000  0.06850000  0.67260000  1
  H  H457  1  0.50450000  0.17260000  0.56850000  1
  H  H458  1  0.67260000  0.00450000  0.06850000  1
  H  H459  1  0.17260000  0.56850000  0.50450000  1
  H  H460  1  0.22320000  0.54450000  0.61390000  1
  H  H461  1  0.72320000  0.11390000  0.04450000  1
  H  H462  1  0.09640000  0.93150000  0.96810000  1
  H  H463  1  0.59640000  0.46810000  0.43150000  1
  H  H464  1  0.40730000  0.37680000  0.13980000  1
  H  H465  1  0.90730000  0.63980000  0.87680000  1
  H  H466  1  0.23170000  0.42100000  0.72600000  1
  H  H467  1  0.73170000  0.22600000  0.92100000  1
  H  H468  1  0.14590000  0.08890000  0.88380000  1
  H  H469  1  0.64590000  0.38380000  0.58890000  1
  H  H470  1  0.79050000  0.07600000  0.16960000  1
  H  H471  1  0.29050000  0.66960000  0.57600000  1
  H  H472  1  0.76530000  0.98700000  0.19360000  1
  H  H473  1  0.26530000  0.69360000  0.48700000  1
  H  H474  1  0.48870000  0.42760000  0.19570000  1
  H  H475  1  0.98870000  0.69570000  0.92760000  1
  H  H476  1  0.32490000  0.36640000  0.92510000  1
  H  H477  1  0.82490000  0.42510000  0.86640000  1
  H  H478  1  0.08330000  0.14710000  0.65830000  1
  H  H479  1  0.58330000  0.15830000  0.64710000  1
  H  H480  1  0.04230000  0.98090000  0.74230000  1
  H  H481  1  0.54230000  0.24230000  0.48090000  1
  H  H482  1  0.30640000  0.51300000  0.73470000  1
  H  H483  1  0.80640000  0.23470000  0.01300000  1
  H  H484  1  0.33380000  0.22180000  0.06410000  1
  H  H485  1  0.83380000  0.56410000  0.72180000  1
  H  H486  1  0.54000000  0.79190000  0.90120000  1
  H  H487  1  0.04000000  0.40120000  0.29190000  1
  H  H488  1  0.83530000  0.71670000  0.56410000  1
  H  H489  1  0.33530000  0.06410000  0.21670000  1
  H  H490  1  0.04230000  0.28460000  0.40110000  1
  H  H491  1  0.54230000  0.90110000  0.78460000  1
  H  H492  1  0.43590000  0.16470000  0.28330000  1
  H  H493  1  0.93590000  0.78330000  0.66470000  1
  H  H494  1  0.93590000  0.66620000  0.77820000  1
  H  H495  1  0.43590000  0.27820000  0.16620000  1
  H  H496  1  0.35290000  0.41670000  0.84170000  1
  H  H497  1  0.85290000  0.34170000  0.91670000  1
  H  H498  1  0.56850000  0.50450000  0.17260000  1
  H  H499  1  0.06850000  0.67260000  0.00450000  1
  H  H500  1  0.11390000  0.04450000  0.72320000  1
  H  H501  1  0.61390000  0.22320000  0.54450000  1
  H  H502  1  0.24230000  0.48090000  0.54230000  1
  H  H503  1  0.74230000  0.04230000  0.98090000  1
  H  H504  1  0.11620000  0.85410000  0.91110000  1
  H  H505  1  0.61620000  0.41110000  0.35410000  1
  H  H506  1  0.40120000  0.29190000  0.04000000  1
  H  H507  1  0.90120000  0.54000000  0.79190000  1
  H  H508  1  0.66960000  0.57600000  0.29050000  1
  H  H509  1  0.16960000  0.79050000  0.07600000  1
  H  H510  1  0.69570000  0.92760000  0.98870000  1
  H  H511  1  0.19570000  0.48870000  0.42760000  1
  H  H512  1  0.90110000  0.78460000  0.54230000  1
  H  H513  1  0.40110000  0.04230000  0.28460000  1
  H  H514  1  0.86640000  0.82490000  0.42510000  1
  H  H515  1  0.36640000  0.92510000  0.32490000  1
  H  H516  1  0.63980000  0.87680000  0.90730000  1
  H  H517  1  0.13980000  0.40730000  0.37680000  1
  H  H518  1  0.86020000  0.59270000  0.62320000  1
  H  H519  1  0.36020000  0.12320000  0.09270000  1
  H  H520  1  0.13360000  0.17510000  0.57490000  1
  H  H521  1  0.63360000  0.07490000  0.67510000  1
  H  H522  1  0.09890000  0.21540000  0.45770000  1
  H  H523  1  0.59890000  0.95770000  0.71540000  1
  H  H524  1  0.80430000  0.51130000  0.57240000  1
  H  H525  1  0.30430000  0.07240000  0.01130000  1
  H  H526  1  0.33040000  0.42400000  0.70950000  1
  H  H527  1  0.83040000  0.20950000  0.92400000  1
  H  H528  1  0.59880000  0.70810000  0.96000000  1
  H  H529  1  0.09880000  0.46000000  0.20810000  1
  H  H530  1  0.38380000  0.58890000  0.64590000  1
  H  H531  1  0.88380000  0.14590000  0.08890000  1
  H  H532  1  0.25770000  0.95770000  0.01910000  1
  H  H533  1  0.75770000  0.51910000  0.45770000  1
  H  H534  1  0.88610000  0.95550000  0.27680000  1
  H  H535  1  0.38610000  0.77680000  0.45550000  1
  H  H536  1  0.43150000  0.49550000  0.82740000  1
  H  H537  1  0.93150000  0.32740000  0.99550000  1
  H  H538  1  0.64710000  0.58330000  0.15830000  1
  H  H539  1  0.14710000  0.65830000  0.08330000  1
  H  H540  1  0.56410000  0.72180000  0.83380000  1
  H  H541  1  0.06410000  0.33380000  0.22180000  1
  H  H542  1  0.06410000  0.21670000  0.33530000  1
  H  H543  1  0.56410000  0.83530000  0.71670000  1
  H  H544  1  0.45770000  0.09890000  0.21540000  1
  H  H545  1  0.95770000  0.71540000  0.59890000  1
  H  H546  1  0.16470000  0.28330000  0.43590000  1
  H  H547  1  0.66470000  0.93590000  0.78330000  1
  H  H548  1  0.96000000  0.59880000  0.70810000  1
  H  H549  1  0.46000000  0.20810000  0.09880000  1
  H  H550  1  0.66620000  0.77820000  0.93590000  1
  H  H551  1  0.16620000  0.43590000  0.27820000  1
  H  H552  1  0.69360000  0.48700000  0.26530000  1
  H  H553  1  0.19360000  0.76530000  0.98700000  1
  H  H554  1  0.95770000  0.01910000  0.25770000  1
  H  H555  1  0.45770000  0.75770000  0.51910000  1
  H  H556  1  0.91670000  0.85290000  0.34170000  1
  H  H557  1  0.41670000  0.84170000  0.35290000  1
  H  H558  1  0.67510000  0.63360000  0.07490000  1
  H  H559  1  0.17510000  0.57490000  0.13360000  1
  H  H560  1  0.51130000  0.57240000  0.80430000  1
  H  H561  1  0.01130000  0.30430000  0.07240000  1
  H  H562  1  0.73470000  0.30640000  0.51300000  1
  H  H563  1  0.23470000  0.01300000  0.80640000  1
  H  H564  1  0.70950000  0.33040000  0.42400000  1
  H  H565  1  0.20950000  0.92400000  0.83040000  1
  H  H566  1  0.85410000  0.91110000  0.11620000  1
  H  H567  1  0.35410000  0.61620000  0.41110000  1
  H  H568  1  0.76830000  0.57900000  0.27400000  1
  H  H569  1  0.26830000  0.77400000  0.07900000  1
  H  H570  1  0.59270000  0.62320000  0.86020000  1
  H  H571  1  0.09270000  0.36020000  0.12320000  1
  H  H572  1  0.40360000  0.53190000  0.56850000  1
  H  H573  1  0.90360000  0.06850000  0.03190000  1
  H  H574  1  0.27680000  0.88610000  0.95550000  1
  H  H575  1  0.77680000  0.45550000  0.38610000  1
  H  H576  1  0.82740000  0.43150000  0.49550000  1
  H  H577  1  0.32740000  0.99550000  0.93150000  1
  H  H578  1  0.99550000  0.93150000  0.32740000  1
  H  H579  1  0.49550000  0.82740000  0.43150000  1
  H  H580  1  0.45550000  0.38610000  0.77680000  1
  H  H581  1  0.95550000  0.27680000  0.88610000  1
  H  H582  1  0.83960000  0.66040000  0.25000000  1
  H  H583  1  0.33960000  0.75000000  0.16040000  1
  H  H584  1  0.72340000  0.48950000  0.16970000  1
  H  H585  1  0.22340000  0.66970000  0.98950000  1
  H  H586  1  0.12320000  0.09270000  0.36020000  1
  H  H587  1  0.62320000  0.86020000  0.59270000  1
  H  H588  1  0.93150000  0.96810000  0.09640000  1
  H  H589  1  0.43150000  0.59640000  0.46810000  1
  H  H590  1  0.72600000  0.23170000  0.42100000  1
  H  H591  1  0.22600000  0.92100000  0.73170000  1
  H  H592  1  0.92400000  0.83040000  0.20950000  1
  H  H593  1  0.42400000  0.70950000  0.33040000  1
  H  H594  1  0.51910000  0.45770000  0.75770000  1
  H  H595  1  0.01910000  0.25770000  0.95770000  1
  H  H596  1  0.07240000  0.01130000  0.30430000  1
  H  H597  1  0.57240000  0.80430000  0.51130000  1
  H  H598  1  0.57490000  0.13360000  0.17510000  1
  H  H599  1  0.07490000  0.67510000  0.63360000  1
  H  H600  1  0.41110000  0.35410000  0.61620000  1
  H  H601  1  0.91110000  0.11620000  0.85410000  1
  H  H602  1  0.20810000  0.09880000  0.46000000  1
  H  H603  1  0.70810000  0.96000000  0.59880000  1
  H  H604  1  0.83030000  0.27660000  0.51050000  1
  H  H605  1  0.33030000  0.01050000  0.77660000  1
  H  H606  1  0.71540000  0.59890000  0.95770000  1
  H  H607  1  0.21540000  0.45770000  0.09890000  1
  H  H608  1  0.92100000  0.73170000  0.22600000  1
  H  H609  1  0.42100000  0.72600000  0.23170000  1
  H  H610  1  0.46810000  0.43150000  0.59640000  1
  H  H611  1  0.96810000  0.09640000  0.93150000  1
  H  H612  1  0.84170000  0.35290000  0.41670000  1
  H  H613  1  0.34170000  0.91670000  0.85290000  1
  H  H614  1  0.01050000  0.77660000  0.33030000  1
  H  H615  1  0.51050000  0.83030000  0.27660000  1
  H  H616  1  0.27820000  0.16620000  0.43590000  1
  H  H617  1  0.77820000  0.93590000  0.66620000  1
  H  H618  1  0.78330000  0.66470000  0.93590000  1
  H  H619  1  0.28330000  0.43590000  0.16470000  1
  H  H620  1  0.40820000  0.09180000  0.75000000  1
  H  H621  1  0.90820000  0.25000000  0.59180000  1
  H  H622  1  0.01300000  0.80640000  0.23470000  1
  H  H623  1  0.51300000  0.73470000  0.30640000  1
  N  N624  1  0.95490000  0.43500000  0.45570000  1
  N  N625  1  0.45490000  0.95570000  0.93500000  1
  N  N626  1  0.76300000  0.20000000  0.21650000  1
  N  N627  1  0.26300000  0.71650000  0.70000000  1
  N  N628  1  0.26750000  0.63320000  0.78300000  1
  N  N629  1  0.76750000  0.28300000  0.13320000  1
  N  N630  1  0.56790000  0.95730000  0.97820000  1
  N  N631  1  0.06790000  0.47820000  0.45730000  1
  N  N632  1  0.63320000  0.78300000  0.26750000  1
  N  N633  1  0.13320000  0.76750000  0.28300000  1
  N  N634  1  0.71700000  0.86680000  0.23250000  1
  N  N635  1  0.21700000  0.73250000  0.36680000  1
  N  N636  1  0.95730000  0.97820000  0.56790000  1
  N  N637  1  0.45730000  0.06790000  0.47820000  1
  N  N638  1  0.20000000  0.21650000  0.76300000  1
  N  N639  1  0.70000000  0.26300000  0.71650000  1
  N  N640  1  0.47820000  0.45730000  0.06790000  1
  N  N641  1  0.97820000  0.56790000  0.95730000  1
  N  N642  1  0.43500000  0.45570000  0.95490000  1
  N  N643  1  0.93500000  0.45490000  0.95570000  1
  N  N644  1  0.71650000  0.70000000  0.26300000  1
  N  N645  1  0.21650000  0.76300000  0.20000000  1
  N  N646  1  0.04430000  0.06500000  0.54510000  1
  N  N647  1  0.54430000  0.04510000  0.56500000  1
  N  N648  1  0.95570000  0.93500000  0.45490000  1
  N  N649  1  0.45570000  0.95490000  0.43500000  1
  N  N650  1  0.28350000  0.30000000  0.73700000  1
  N  N651  1  0.78350000  0.23700000  0.80000000  1
  N  N652  1  0.56500000  0.54430000  0.04510000  1
  N  N653  1  0.06500000  0.54510000  0.04430000  1
  N  N654  1  0.52180000  0.54270000  0.93210000  1
  N  N655  1  0.02180000  0.43210000  0.04270000  1
  N  N656  1  0.80000000  0.78350000  0.23700000  1
  N  N657  1  0.30000000  0.73700000  0.28350000  1
  N  N658  1  0.04270000  0.02180000  0.43210000  1
  N  N659  1  0.54270000  0.93210000  0.52180000  1
  N  N660  1  0.28300000  0.13320000  0.76750000  1
  N  N661  1  0.78300000  0.26750000  0.63320000  1
  N  N662  1  0.36680000  0.21700000  0.73250000  1
  N  N663  1  0.86680000  0.23250000  0.71700000  1
  N  N664  1  0.93210000  0.52180000  0.54270000  1
  N  N665  1  0.43210000  0.04270000  0.02180000  1
  N  N666  1  0.23250000  0.71700000  0.86680000  1
  N  N667  1  0.73250000  0.36680000  0.21700000  1
  N  N668  1  0.73700000  0.28350000  0.30000000  1
  N  N669  1  0.23700000  0.80000000  0.78350000  1
  N  N670  1  0.54510000  0.04430000  0.06500000  1
  N  N671  1  0.04510000  0.56500000  0.54430000  1
  O  O672  1  0.12276667  0.12276667  0.12276667  1
  O  O673  1  0.37723333  0.37723333  0.37723333  1
  O  O674  1  0.62276667  0.62276667  0.62276667  1
  O  O675  1  0.87723333  0.87723333  0.87723333  1
  O  O676  1  0.67581000  0.74111000  0.58521000  1
  O  O677  1  0.17581000  0.08521000  0.24111000  1
  O  O678  1  0.17732000  0.24102000  0.08772000  1
  O  O679  1  0.67732000  0.58772000  0.74102000  1
  O  O680  1  0.46661000  0.48591000  0.39041000  1
  O  O681  1  0.96661000  0.89041000  0.98591000  1
  O  O682  1  0.98591000  0.96661000  0.89041000  1
  O  O683  1  0.48591000  0.39041000  0.46661000  1
  O  O684  1  0.44499000  0.46019000  0.29729000  1
  O  O685  1  0.94499000  0.79729000  0.96019000  1
  O  O686  1  0.10959000  0.01409000  0.03339000  1
  O  O687  1  0.60959000  0.53339000  0.51409000  1
  O  O688  1  0.96019000  0.94499000  0.79729000  1
  O  O689  1  0.46019000  0.29729000  0.44499000  1
  O  O690  1  0.74102000  0.67732000  0.58772000  1
  O  O691  1  0.24102000  0.08772000  0.17732000  1
  O  O692  1  0.24111000  0.17581000  0.08521000  1
  O  O693  1  0.74111000  0.58521000  0.67581000  1
  O  O694  1  0.41228000  0.25898000  0.32268000  1
  O  O695  1  0.91228000  0.82268000  0.75898000  1
  O  O696  1  0.91479000  0.75889000  0.82419000  1
  O  O697  1  0.41479000  0.32419000  0.25889000  1
  O  O698  1  0.20271000  0.03981000  0.05501000  1
  O  O699  1  0.70271000  0.55501000  0.53981000  1
  O  O700  1  0.29729000  0.44499000  0.46019000  1
  O  O701  1  0.79729000  0.96019000  0.94499000  1
  O  O702  1  0.58521000  0.67581000  0.74111000  1
  O  O703  1  0.08521000  0.24111000  0.17581000  1
  O  O704  1  0.08772000  0.17732000  0.24102000  1
  O  O705  1  0.58772000  0.74102000  0.67732000  1
  O  O706  1  0.75889000  0.82419000  0.91479000  1
  O  O707  1  0.25889000  0.41479000  0.32419000  1
  O  O708  1  0.25898000  0.32268000  0.41228000  1
  O  O709  1  0.75898000  0.91228000  0.82268000  1
  O  O710  1  0.03981000  0.05501000  0.20271000  1
  O  O711  1  0.53981000  0.70271000  0.55501000  1
  O  O712  1  0.39041000  0.46661000  0.48591000  1
  O  O713  1  0.89041000  0.98591000  0.96661000  1
  O  O714  1  0.55501000  0.53981000  0.70271000  1
  O  O715  1  0.05501000  0.20271000  0.03981000  1
  O  O716  1  0.01409000  0.03339000  0.10959000  1
  O  O717  1  0.51409000  0.60959000  0.53339000  1
  O  O718  1  0.53339000  0.51409000  0.60959000  1
  O  O719  1  0.03339000  0.10959000  0.01409000  1
  O  O720  1  0.82268000  0.75898000  0.91228000  1
  O  O721  1  0.32268000  0.41228000  0.25898000  1
  O  O722  1  0.32419000  0.25889000  0.41479000  1
  O  O723  1  0.82419000  0.91479000  0.75889000  1
  Zn  Zn724  1  0.07192667  0.07192667  0.07192667  1
  Zn  Zn725  1  0.42807333  0.42807333  0.42807333  1
  Zn  Zn726  1  0.57192667  0.57192667  0.57192667  1
  Zn  Zn727  1  0.92807333  0.92807333  0.92807333  1
  Zn  Zn728  1  0.25000000  0.71733000  0.78267000  1
  Zn  Zn729  1  0.00000000  0.50000000  0.50000000  1
  Zn  Zn730  1  0.50000000  0.00000000  0.00000000  1
  Zn  Zn731  1  0.75000000  0.28267000  0.21733000  1
  Zn  Zn732  1  0.89210000  0.89280000  0.80024000  1
  Zn  Zn733  1  0.39210000  0.30024000  0.39280000  1
  Zn  Zn734  1  0.39280000  0.39210000  0.30024000  1
  Zn  Zn735  1  0.89280000  0.80024000  0.89210000  1
  Zn  Zn736  1  0.69976000  0.60720000  0.60790000  1
  Zn  Zn737  1  0.19976000  0.10790000  0.10720000  1
  Zn  Zn738  1  0.71733000  0.78267000  0.25000000  1
  Zn  Zn739  1  0.21733000  0.75000000  0.28267000  1
  Zn  Zn740  1  0.50000000  0.50000000  0.00000000  1
  Zn  Zn741  1  0.00000000  0.00000000  0.50000000  1
  Zn  Zn742  1  0.50000000  0.00000000  0.50000000  1
  Zn  Zn743  1  1.00000000  0.50000000  1.00000000  1
  Zn  Zn744  1  0.28267000  0.21733000  0.75000000  1
  Zn  Zn745  1  0.78267000  0.25000000  0.71733000  1
  Zn  Zn746  1  0.80024000  0.89210000  0.89280000  1
  Zn  Zn747  1  0.30024000  0.39280000  0.39210000  1
  Zn  Zn748  1  0.60720000  0.60790000  0.69976000  1
  Zn  Zn749  1  0.10720000  0.19976000  0.10790000  1
  Zn  Zn750  1  0.10790000  0.10720000  0.19976000  1
  Zn  Zn751  1  0.60790000  0.69976000  0.60720000  1
