# generated using pymatgen
data_LaH8C15NO7
_symmetry_space_group_name_H-M   'P 1'
_cell_length_a   10.13400000
_cell_length_b   10.35520000
_cell_length_c   10.74360000
_cell_angle_alpha   78.16250000
_cell_angle_beta   89.43000000
_cell_angle_gamma   65.23900000
_symmetry_Int_Tables_number   1
_chemical_formula_structural   LaH8C15NO7
_chemical_formula_sum   'La2 H16 C30 N2 O14'
_cell_volume   998.33664701
_cell_formula_units_Z   2
loop_
 _symmetry_equiv_pos_site_id
 _symmetry_equiv_pos_as_xyz
  1  'x, y, z'
loop_
 _atom_site_type_symbol
 _atom_site_label
 _atom_site_symmetry_multiplicity
 _atom_site_fract_x
 _atom_site_fract_y
 _atom_site_fract_z
 _atom_site_occupancy
  La  La0  1  0.03339000  0.20630000  0.00051000  1
  La  La1  1  0.96661000  0.79370000  0.99949000  1
  H  H2  1  0.10930000  0.50250000  0.45840000  1
  H  H3  1  0.14420000  0.36470000  0.68080000  1
  H  H4  1  0.23220000  0.73440000  0.79300000  1
  H  H5  1  0.25000000  0.38560000  0.78100000  1
  H  H6  1  0.31210000  0.76790000  0.36020000  1
  H  H7  1  0.34310000  0.55410000  0.14010000  1
  H  H8  1  0.43380000  0.68460000  0.56520000  1
  H  H9  1  0.47830000  0.16920000  0.03040000  1
  H  H10  1  0.52170000  0.83080000  0.96960000  1
  H  H11  1  0.56620000  0.31540000  0.43480000  1
  H  H12  1  0.65690000  0.44590000  0.85990000  1
  H  H13  1  0.68790000  0.23210000  0.63980000  1
  H  H14  1  0.75000000  0.61440000  0.21900000  1
  H  H15  1  0.76780000  0.26560000  0.20700000  1
  H  H16  1  0.85580000  0.63530000  0.31920000  1
  H  H17  1  0.89070000  0.49750000  0.54160000  1
  C  C18  1  0.11870000  0.69600000  0.26050000  1
  C  C19  1  0.17580000  0.53870000  0.48040000  1
  C  C20  1  0.19900000  0.64310000  0.39030000  1
  C  C21  1  0.23470000  0.41480000  0.02280000  1
  C  C22  1  0.23480000  0.94270000  0.89590000  1
  C  C23  1  0.24840000  0.48630000  0.60230000  1
  C  C24  1  0.29550000  0.69720000  0.42160000  1
  C  C25  1  0.32880000  0.70960000  0.82480000  1
  C  C26  1  0.34330000  0.54420000  0.63160000  1
  C  C27  1  0.35840000  0.80370000  0.88410000  1
  C  C28  1  0.36790000  0.64770000  0.54310000  1
  C  C29  1  0.38960000  0.36770000  0.07640000  1
  C  C30  1  0.41830000  0.46210000  0.13540000  1
  C  C31  1  0.44100000  0.58080000  0.81290000  1
  C  C32  1  0.49950000  0.23440000  0.06820000  1
  C  C33  1  0.50050000  0.76560000  0.93180000  1
  C  C34  1  0.55900000  0.41920000  0.18710000  1
  C  C35  1  0.58170000  0.53790000  0.86460000  1
  C  C36  1  0.61040000  0.63230000  0.92360000  1
  C  C37  1  0.63210000  0.35230000  0.45690000  1
  C  C38  1  0.64160000  0.19630000  0.11590000  1
  C  C39  1  0.65670000  0.45580000  0.36840000  1
  C  C40  1  0.67120000  0.29040000  0.17520000  1
  C  C41  1  0.70450000  0.30280000  0.57840000  1
  C  C42  1  0.75160000  0.51370000  0.39770000  1
  C  C43  1  0.76520000  0.05730000  0.10410000  1
  C  C44  1  0.76530000  0.58520000  0.97720000  1
  C  C45  1  0.80100000  0.35690000  0.60970000  1
  C  C46  1  0.82420000  0.46130000  0.51960000  1
  C  C47  1  0.88130000  0.30400000  0.73950000  1
  N  N48  1  0.23690000  0.37480000  0.69220000  1
  N  N49  1  0.76310000  0.62520000  0.30780000  1
  O  O50  1  0.01520000  0.66410000  0.24080000  1
  O  O51  1  0.10840000  0.94660000  0.91150000  1
  O  O52  1  0.14800000  0.54720000  0.00910000  1
  O  O53  1  0.15850000  0.76910000  0.17170000  1
  O  O54  1  0.20320000  0.31810000  0.99400000  1
  O  O55  1  0.25830000  0.05380000  0.89250000  1
  O  O56  1  0.41550000  0.48500000  0.75340000  1
  O  O57  1  0.58450000  0.51500000  0.24660000  1
  O  O58  1  0.74170000  0.94620000  0.10750000  1
  O  O59  1  0.79680000  0.68190000  0.00600000  1
  O  O60  1  0.84150000  0.23090000  0.82830000  1
  O  O61  1  0.85200000  0.45280000  0.99090000  1
  O  O62  1  0.89160000  0.05340000  0.08850000  1
  O  O63  1  0.98480000  0.33590000  0.75920000  1
