# generated using pymatgen
data_MgAl7(PO4)8
_symmetry_space_group_name_H-M   'P 1'
_cell_length_a   9.27690000
_cell_length_b   14.61060000
_cell_length_c   14.79840000
_cell_angle_alpha   90.00000000
_cell_angle_beta   90.00000000
_cell_angle_gamma   90.00000000
_symmetry_Int_Tables_number   1
_chemical_formula_structural   MgAl7(PO4)8
_chemical_formula_sum   'Mg2 Al14 P16 O64'
_cell_volume   2005.79104635
_cell_formula_units_Z   2
loop_
 _symmetry_equiv_pos_site_id
 _symmetry_equiv_pos_as_xyz
  1  'x, y, z'
loop_
 _atom_site_type_symbol
 _atom_site_label
 _atom_site_symmetry_multiplicity
 _atom_site_fract_x
 _atom_site_fract_y
 _atom_site_fract_z
 _atom_site_occupancy
  Mg  Mg0  1  0.66770000  0.25000000  0.52040000  1
  Mg  Mg1  1  0.33230000  0.75000000  0.47960000  1
  Al  Al2  1  0.90150000  0.75000000  0.36440000  1
  Al  Al3  1  0.90150000  0.25000000  0.13560000  1
  Al  Al4  1  0.85740000  0.38500000  0.84700000  1
  Al  Al5  1  0.85740000  0.11500000  0.84700000  1
  Al  Al6  1  0.85740000  0.88500000  0.65300000  1
  Al  Al7  1  0.85740000  0.61500000  0.65300000  1
  Al  Al8  1  0.66770000  0.75000000  0.97960000  1
  Al  Al9  1  0.33230000  0.25000000  0.02040000  1
  Al  Al10  1  0.14260000  0.38500000  0.34700000  1
  Al  Al11  1  0.14260000  0.11500000  0.34700000  1
  Al  Al12  1  0.14260000  0.88500000  0.15300000  1
  Al  Al13  1  0.14260000  0.61500000  0.15300000  1
  Al  Al14  1  0.09850000  0.75000000  0.86440000  1
  Al  Al15  1  0.09850000  0.25000000  0.63560000  1
  P  P16  1  0.87650000  0.25000000  0.34300000  1
  P  P17  1  0.87650000  0.75000000  0.15700000  1
  P  P18  1  0.85180000  0.89690000  0.86657000  1
  P  P19  1  0.85180000  0.60310000  0.86657000  1
  P  P20  1  0.85180000  0.39690000  0.63343000  1
  P  P21  1  0.85180000  0.10310000  0.63343000  1
  P  P22  1  0.68200000  0.25000000  0.97210000  1
  P  P23  1  0.68200000  0.75000000  0.52790000  1
  P  P24  1  0.31800000  0.25000000  0.47210000  1
  P  P25  1  0.31800000  0.75000000  0.02790000  1
  P  P26  1  0.14820000  0.89690000  0.36657000  1
  P  P27  1  0.14820000  0.60310000  0.36657000  1
  P  P28  1  0.14820000  0.39690000  0.13343000  1
  P  P29  1  0.14820000  0.10310000  0.13343000  1
  P  P30  1  0.12350000  0.25000000  0.84300000  1
  P  P31  1  0.12350000  0.75000000  0.65700000  1
  O  O32  1  0.99740000  0.85100000  0.87940000  1
  O  O33  1  0.99740000  0.64900000  0.87940000  1
  O  O34  1  0.99740000  0.35100000  0.62060000  1
  O  O35  1  0.99740000  0.14900000  0.62060000  1
  O  O36  1  0.96670000  0.33620000  0.35920000  1
  O  O37  1  0.96670000  0.16380000  0.35920000  1
  O  O38  1  0.96670000  0.83620000  0.14080000  1
  O  O39  1  0.96670000  0.66380000  0.14080000  1
  O  O40  1  0.87300000  0.99930000  0.88510000  1
  O  O41  1  0.87300000  0.50070000  0.88510000  1
  O  O42  1  0.87300000  0.49930000  0.61490000  1
  O  O43  1  0.87300000  0.00070000  0.61490000  1
  O  O44  1  0.82560000  0.75000000  0.25560000  1
  O  O45  1  0.82560000  0.25000000  0.24440000  1
  O  O46  1  0.80170000  0.88330000  0.76920000  1
  O  O47  1  0.80170000  0.61670000  0.76920000  1
  O  O48  1  0.80170000  0.38330000  0.73080000  1
  O  O49  1  0.80170000  0.11670000  0.73080000  1
  O  O50  1  0.75590000  0.75000000  0.43840000  1
  O  O51  1  0.75590000  0.25000000  0.06160000  1
  O  O52  1  0.74710000  0.25000000  0.40180000  1
  O  O53  1  0.74710000  0.75000000  0.09820000  1
  O  O54  1  0.74380000  0.86030000  0.93320000  1
  O  O55  1  0.74380000  0.63970000  0.93320000  1
  O  O56  1  0.74380000  0.36030000  0.56680000  1
  O  O57  1  0.74380000  0.13970000  0.56680000  1
  O  O58  1  0.72790000  0.33370000  0.92170000  1
  O  O59  1  0.72790000  0.16630000  0.92170000  1
  O  O60  1  0.72790000  0.83370000  0.57830000  1
  O  O61  1  0.72790000  0.66630000  0.57830000  1
  O  O62  1  0.52650000  0.25000000  0.98620000  1
  O  O63  1  0.52650000  0.75000000  0.51380000  1
  O  O64  1  0.47350000  0.25000000  0.48620000  1
  O  O65  1  0.47350000  0.75000000  0.01380000  1
  O  O66  1  0.27210000  0.33370000  0.42170000  1
  O  O67  1  0.27210000  0.16630000  0.42170000  1
  O  O68  1  0.27210000  0.83370000  0.07830000  1
  O  O69  1  0.27210000  0.66630000  0.07830000  1
  O  O70  1  0.25620000  0.86030000  0.43320000  1
  O  O71  1  0.25620000  0.63970000  0.43320000  1
  O  O72  1  0.25620000  0.36030000  0.06680000  1
  O  O73  1  0.25620000  0.13970000  0.06680000  1
  O  O74  1  0.25290000  0.25000000  0.90180000  1
  O  O75  1  0.25290000  0.75000000  0.59820000  1
  O  O76  1  0.24410000  0.75000000  0.93840000  1
  O  O77  1  0.24410000  0.25000000  0.56160000  1
  O  O78  1  0.19830000  0.88330000  0.26920000  1
  O  O79  1  0.19830000  0.61670000  0.26920000  1
  O  O80  1  0.19830000  0.38330000  0.23080000  1
  O  O81  1  0.19830000  0.11670000  0.23080000  1
  O  O82  1  0.17440000  0.75000000  0.75560000  1
  O  O83  1  0.17440000  0.25000000  0.74440000  1
  O  O84  1  0.12700000  0.99930000  0.38510000  1
  O  O85  1  0.12700000  0.50070000  0.38510000  1
  O  O86  1  0.12700000  0.49930000  0.11490000  1
  O  O87  1  0.12700000  0.00070000  0.11490000  1
  O  O88  1  0.03330000  0.33620000  0.85920000  1
  O  O89  1  0.03330000  0.16380000  0.85920000  1
  O  O90  1  0.03330000  0.83620000  0.64080000  1
  O  O91  1  0.03330000  0.66380000  0.64080000  1
  O  O92  1  0.00260000  0.85100000  0.37940000  1
  O  O93  1  0.00260000  0.64900000  0.37940000  1
  O  O94  1  0.00260000  0.35100000  0.12060000  1
  O  O95  1  0.00260000  0.14900000  0.12060000  1
