# generated using pymatgen
data_Tm4H5(C5O4)6
_symmetry_space_group_name_H-M   'P 1'
_cell_length_a   11.28740000
_cell_length_b   11.89170000
_cell_length_c   17.53520000
_cell_angle_alpha   90.00000000
_cell_angle_beta   90.00000000
_cell_angle_gamma   106.72300000
_symmetry_Int_Tables_number   1
_chemical_formula_structural   Tm4H5(C5O4)6
_chemical_formula_sum   'Tm8 H10 C60 O48'
_cell_volume   2254.14201795
_cell_formula_units_Z   2
loop_
 _symmetry_equiv_pos_site_id
 _symmetry_equiv_pos_as_xyz
  1  'x, y, z'
loop_
 _atom_site_type_symbol
 _atom_site_label
 _atom_site_symmetry_multiplicity
 _atom_site_fract_x
 _atom_site_fract_y
 _atom_site_fract_z
 _atom_site_occupancy
  Tm  Tm0  1  0.20569000  0.83216000  0.51280000  1
  Tm  Tm1  1  0.20569000  0.83216000  0.98720000  1
  Tm  Tm2  1  0.23855000  0.35657000  0.50175000  1
  Tm  Tm3  1  0.23855000  0.35657000  0.99825000  1
  Tm  Tm4  1  0.76145000  0.64343000  0.00175000  1
  Tm  Tm5  1  0.76145000  0.64343000  0.49825000  1
  Tm  Tm6  1  0.79431000  0.16784000  0.01280000  1
  Tm  Tm7  1  0.79431000  0.16784000  0.48720000  1
  H  H8  1  0.00260000  0.19750000  0.25000000  1
  H  H9  1  0.05430000  0.32200000  0.75000000  1
  H  H10  1  0.23390000  0.46940000  0.25000000  1
  H  H11  1  0.35800000  0.43080000  0.75000000  1
  H  H12  1  0.38570000  0.18640000  0.25000000  1
  H  H13  1  0.61430000  0.81360000  0.75000000  1
  H  H14  1  0.64200000  0.56920000  0.25000000  1
  H  H15  1  0.76610000  0.53060000  0.75000000  1
  H  H16  1  0.94570000  0.67800000  0.25000000  1
  H  H17  1  0.99740000  0.80250000  0.75000000  1
  C  C18  1  0.00350000  0.63590000  0.25000000  1
  C  C19  1  0.00690000  0.35630000  0.60880000  1
  C  C20  1  0.00690000  0.35630000  0.89120000  1
  C  C21  1  0.03320000  0.15060000  0.11140000  1
  C  C22  1  0.03320000  0.15060000  0.38860000  1
  C  C23  1  0.04460000  0.14070000  0.25000000  1
  C  C24  1  0.04550000  0.60540000  0.18090000  1
  C  C25  1  0.04550000  0.60540000  0.31910000  1
  C  C26  1  0.07510000  0.09940000  0.18130000  1
  C  C27  1  0.07510000  0.09940000  0.31870000  1
  C  C28  1  0.13300000  0.54190000  0.18040000  1
  C  C29  1  0.13300000  0.54190000  0.31960000  1
  C  C30  1  0.14160000  0.01670000  0.18100000  1
  C  C31  1  0.14160000  0.01670000  0.31900000  1
  C  C32  1  0.16960000  0.96100000  0.11020000  1
  C  C33  1  0.16960000  0.96100000  0.38980000  1
  C  C34  1  0.17500000  0.97710000  0.25000000  1
  C  C35  1  0.17540000  0.49480000  0.11000000  1
  C  C36  1  0.17540000  0.49480000  0.39000000  1
  C  C37  1  0.17580000  0.51120000  0.25000000  1
  C  C38  1  0.39070000  0.49890000  0.61040000  1
  C  C39  1  0.39070000  0.49890000  0.88960000  1
  C  C40  1  0.40870000  0.50790000  0.75000000  1
  C  C41  1  0.42900000  0.25250000  0.10750000  1
  C  C42  1  0.42900000  0.25250000  0.39250000  1
  C  C43  1  0.43740000  0.26300000  0.25000000  1
  C  C44  1  0.44620000  0.56480000  0.68020000  1
  C  C45  1  0.44620000  0.56480000  0.81980000  1
  C  C46  1  0.47580000  0.31980000  0.18050000  1
  C  C47  1  0.47580000  0.31980000  0.31950000  1
  C  C48  1  0.52420000  0.68020000  0.68050000  1
  C  C49  1  0.52420000  0.68020000  0.81950000  1
  C  C50  1  0.55380000  0.43520000  0.18020000  1
  C  C51  1  0.55380000  0.43520000  0.31980000  1
  C  C52  1  0.56260000  0.73700000  0.75000000  1
  C  C53  1  0.57100000  0.74750000  0.60750000  1
  C  C54  1  0.57100000  0.74750000  0.89250000  1
  C  C55  1  0.59130000  0.49210000  0.25000000  1
  C  C56  1  0.60930000  0.50110000  0.11040000  1
  C  C57  1  0.60930000  0.50110000  0.38960000  1
  C  C58  1  0.82420000  0.48880000  0.75000000  1
  C  C59  1  0.82460000  0.50520000  0.61000000  1
  C  C60  1  0.82460000  0.50520000  0.89000000  1
  C  C61  1  0.82500000  0.02290000  0.75000000  1
  C  C62  1  0.83040000  0.03900000  0.61020000  1
  C  C63  1  0.83040000  0.03900000  0.88980000  1
  C  C64  1  0.85840000  0.98330000  0.68100000  1
  C  C65  1  0.85840000  0.98330000  0.81900000  1
  C  C66  1  0.86700000  0.45810000  0.68040000  1
  C  C67  1  0.86700000  0.45810000  0.81960000  1
  C  C68  1  0.92490000  0.90060000  0.68130000  1
  C  C69  1  0.92490000  0.90060000  0.81870000  1
  C  C70  1  0.95450000  0.39460000  0.68090000  1
  C  C71  1  0.95450000  0.39460000  0.81910000  1
  C  C72  1  0.95540000  0.85930000  0.75000000  1
  C  C73  1  0.96680000  0.84940000  0.61140000  1
  C  C74  1  0.96680000  0.84940000  0.88860000  1
  C  C75  1  0.99310000  0.64370000  0.10880000  1
  C  C76  1  0.99310000  0.64370000  0.39120000  1
  C  C77  1  0.99650000  0.36410000  0.75000000  1
  O  O78  1  0.06690000  0.70680000  0.06180000  1
  O  O79  1  0.06690000  0.70680000  0.43820000  1
  O  O80  1  0.08140000  0.87810000  0.60000000  1
  O  O81  1  0.08140000  0.87810000  0.90000000  1
  O  O82  1  0.10700000  0.46840000  0.05190000  1
  O  O83  1  0.10700000  0.46840000  0.44810000  1
  O  O84  1  0.11040000  0.22520000  0.07350000  1
  O  O85  1  0.11040000  0.22520000  0.42650000  1
  O  O86  1  0.11050000  0.96410000  0.05000000  1
  O  O87  1  0.11050000  0.96410000  0.45000000  1
  O  O88  1  0.12130000  0.38580000  0.60300000  1
  O  O89  1  0.12130000  0.38580000  0.89700000  1
  O  O90  1  0.25230000  0.90690000  0.11220000  1
  O  O91  1  0.25230000  0.90690000  0.38780000  1
  O  O92  1  0.28010000  0.47540000  0.11010000  1
  O  O93  1  0.28010000  0.47540000  0.38990000  1
  O  O94  1  0.34610000  0.54790000  0.55740000  1
  O  O95  1  0.34610000  0.54790000  0.94260000  1
  O  O96  1  0.37980000  0.39110000  0.60540000  1
  O  O97  1  0.37980000  0.39110000  0.89460000  1
  O  O98  1  0.39250000  0.30660000  0.05420000  1
  O  O99  1  0.39250000  0.30660000  0.44580000  1
  O  O100  1  0.43050000  0.14890000  0.10360000  1
  O  O101  1  0.43050000  0.14890000  0.39640000  1
  O  O102  1  0.56950000  0.85110000  0.60360000  1
  O  O103  1  0.56950000  0.85110000  0.89640000  1
  O  O104  1  0.60750000  0.69340000  0.55420000  1
  O  O105  1  0.60750000  0.69340000  0.94580000  1
  O  O106  1  0.62020000  0.60890000  0.10540000  1
  O  O107  1  0.62020000  0.60890000  0.39460000  1
  O  O108  1  0.65390000  0.45210000  0.05740000  1
  O  O109  1  0.65390000  0.45210000  0.44260000  1
  O  O110  1  0.71990000  0.52460000  0.61010000  1
  O  O111  1  0.71990000  0.52460000  0.88990000  1
  O  O112  1  0.74770000  0.09310000  0.61220000  1
  O  O113  1  0.74770000  0.09310000  0.88780000  1
  O  O114  1  0.87870000  0.61420000  0.10300000  1
  O  O115  1  0.87870000  0.61420000  0.39700000  1
  O  O116  1  0.88950000  0.03590000  0.55000000  1
  O  O117  1  0.88950000  0.03590000  0.95000000  1
  O  O118  1  0.88960000  0.77480000  0.57350000  1
  O  O119  1  0.88960000  0.77480000  0.92650000  1
  O  O120  1  0.89300000  0.53160000  0.55190000  1
  O  O121  1  0.89300000  0.53160000  0.94810000  1
  O  O122  1  0.91860000  0.12190000  0.10000000  1
  O  O123  1  0.91860000  0.12190000  0.40000000  1
  O  O124  1  0.93310000  0.29320000  0.56180000  1
  O  O125  1  0.93310000  0.29320000  0.93820000  1
