# generated using pymatgen
data_ZnH6(C2O)5
_symmetry_space_group_name_H-M   'P 1'
_cell_length_a   13.07570000
_cell_length_b   14.11570000
_cell_length_c   16.66310000
_cell_angle_alpha   66.60200000
_cell_angle_beta   87.13800000
_cell_angle_gamma   89.75700000
_symmetry_Int_Tables_number   1
_chemical_formula_structural   ZnH6(C2O)5
_chemical_formula_sum   'Zn8 H48 C80 O40'
_cell_volume   2818.71698550
_cell_formula_units_Z   8
loop_
 _symmetry_equiv_pos_site_id
 _symmetry_equiv_pos_as_xyz
  1  'x, y, z'
loop_
 _atom_site_type_symbol
 _atom_site_label
 _atom_site_symmetry_multiplicity
 _atom_site_fract_x
 _atom_site_fract_y
 _atom_site_fract_z
 _atom_site_occupancy
  Zn  Zn0  1  0.09717000  0.53893000  0.71826000  1
  Zn  Zn1  1  0.23522000  0.83370000  0.41793000  1
  Zn  Zn2  1  0.25292000  0.41008000  0.87105000  1
  Zn  Zn3  1  0.40818000  0.95917000  0.25723000  1
  Zn  Zn4  1  0.59182000  0.04083000  0.74277000  1
  Zn  Zn5  1  0.74708000  0.58992000  0.12895000  1
  Zn  Zn6  1  0.76478000  0.16630000  0.58207000  1
  Zn  Zn7  1  0.90283000  0.46107000  0.28174000  1
  H  H8  1  0.01310000  0.18250000  0.99970000  1
  H  H9  1  0.08720000  0.73110000  0.24550000  1
  H  H10  1  0.08890000  0.11870000  0.77640000  1
  H  H11  1  0.12090000  0.27660000  0.48630000  1
  H  H12  1  0.12470000  0.18840000  0.62740000  1
  H  H13  1  0.14440000  0.60700000  0.09020000  1
  H  H14  1  0.17050000  0.09700000  0.91470000  1
  H  H15  1  0.17110000  0.22780000  0.26290000  1
  H  H16  1  0.17150000  0.51850000  0.23950000  1
  H  H17  1  0.19500000  0.59890000  0.95310000  1
  H  H18  1  0.22190000  0.97460000  0.04460000  1
  H  H19  1  0.22750000  0.25780000  0.60750000  1
  H  H20  1  0.23100000  0.52450000  0.36320000  1
  H  H21  1  0.23330000  0.52720000  0.09300000  1
  H  H22  1  0.25050000  0.02380000  0.89110000  1
  H  H23  1  0.27470000  0.52670000  0.49350000  1
  H  H24  1  0.29720000  0.11410000  0.73610000  1
  H  H25  1  0.30230000  0.62310000  0.34830000  1
  H  H26  1  0.31030000  0.04910000  0.48310000  1
  H  H27  1  0.31890000  0.81170000  0.72440000  1
  H  H28  1  0.35300000  0.63220000  0.20260000  1
  H  H29  1  0.38300000  0.82550000  0.95480000  1
  H  H30  1  0.42070000  0.31700000  0.69740000  1
  H  H31  1  0.49080000  0.63740000  0.55220000  1
  H  H32  1  0.50920000  0.36260000  0.44780000  1
  H  H33  1  0.57930000  0.68300000  0.30260000  1
  H  H34  1  0.61700000  0.17450000  0.04520000  1
  H  H35  1  0.64700000  0.36780000  0.79740000  1
  H  H36  1  0.68110000  0.18830000  0.27560000  1
  H  H37  1  0.68970000  0.95090000  0.51690000  1
  H  H38  1  0.69770000  0.37690000  0.65170000  1
  H  H39  1  0.70280000  0.88590000  0.26390000  1
  H  H40  1  0.72530000  0.47330000  0.50650000  1
  H  H41  1  0.74950000  0.97620000  0.10890000  1
  H  H42  1  0.76670000  0.47280000  0.90700000  1
  H  H43  1  0.76900000  0.47550000  0.63680000  1
  H  H44  1  0.77250000  0.74220000  0.39250000  1
  H  H45  1  0.77810000  0.02540000  0.95540000  1
  H  H46  1  0.80500000  0.40110000  0.04690000  1
  H  H47  1  0.82850000  0.48150000  0.76050000  1
  H  H48  1  0.82890000  0.77220000  0.73710000  1
  H  H49  1  0.82950000  0.90300000  0.08530000  1
  H  H50  1  0.85560000  0.39300000  0.90980000  1
  H  H51  1  0.87530000  0.81160000  0.37260000  1
  H  H52  1  0.87910000  0.72340000  0.51370000  1
  H  H53  1  0.91110000  0.88130000  0.22360000  1
  H  H54  1  0.91280000  0.26890000  0.75450000  1
  H  H55  1  0.98690000  0.81750000  0.00030000  1
  C  C56  1  0.02620000  0.76110000  0.12720000  1
  C  C57  1  0.03240000  0.82680000  0.03940000  1
  C  C58  1  0.04880000  0.32840000  0.84000000  1
  C  C59  1  0.05490000  0.34140000  0.32430000  1
  C  C60  1  0.09150000  0.77590000  0.18520000  1
  C  C61  1  0.10560000  0.90680000  0.00830000  1
  C  C62  1  0.13280000  0.26250000  0.36860000  1
  C  C63  1  0.15290000  0.23920000  0.45590000  1
  C  C64  1  0.15820000  0.10290000  0.79030000  1
  C  C65  1  0.16220000  0.85640000  0.15420000  1
  C  C66  1  0.17120000  0.92110000  0.06560000  1
  C  C67  1  0.17950000  0.04940000  0.88450000  1
  C  C68  1  0.18220000  0.20960000  0.32300000  1
  C  C69  1  0.19950000  0.64620000  0.78120000  1
  C  C70  1  0.20010000  0.18610000  0.63140000  1
  C  C71  1  0.21570000  0.58770000  0.10650000  1
  C  C72  1  0.22080000  0.16000000  0.49800000  1
  C  C73  1  0.22440000  0.56130000  0.20130000  1
  C  C74  1  0.22760000  0.13040000  0.72410000  1
  C  C75  1  0.23160000  0.87430000  0.21700000  1
  C  C76  1  0.23780000  0.65790000  0.92260000  1
  C  C77  1  0.24770000  0.13000000  0.36670000  1
  C  C78  1  0.25000000  0.69730000  0.83160000  1
  C  C79  1  0.26640000  0.10450000  0.45370000  1
  C  C80  1  0.27420000  0.45570000  0.66810000  1
  C  C81  1  0.28850000  0.70530000  0.96850000  1
  C  C82  1  0.29600000  0.56090000  0.33520000  1
  C  C83  1  0.29770000  0.59080000  0.23830000  1
  C  C84  1  0.30050000  0.07500000  0.31600000  1
  C  C85  1  0.31180000  0.78440000  0.78650000  1
  C  C86  1  0.32620000  0.47640000  0.51480000  1
  C  C87  1  0.34010000  0.42760000  0.60460000  1
  C  C88  1  0.34980000  0.79220000  0.92340000  1
  C  C89  1  0.36280000  0.83110000  0.83270000  1
  C  C90  1  0.38840000  0.45040000  0.45720000  1
  C  C91  1  0.41330000  0.35180000  0.63620000  1
  C  C92  1  0.43780000  0.91830000  0.78610000  1
  C  C93  1  0.44630000  0.75570000  0.38880000  1
  C  C94  1  0.46480000  0.37760000  0.48800000  1
  C  C95  1  0.47590000  0.32730000  0.57700000  1
  C  C96  1  0.52410000  0.67270000  0.42300000  1
  C  C97  1  0.53520000  0.62240000  0.51200000  1
  C  C98  1  0.55370000  0.24430000  0.61120000  1
  C  C99  1  0.56220000  0.08170000  0.21390000  1
  C  C100  1  0.58670000  0.64820000  0.36380000  1
  C  C101  1  0.61160000  0.54960000  0.54280000  1
  C  C102  1  0.63720000  0.16890000  0.16730000  1
  C  C103  1  0.65020000  0.20780000  0.07660000  1
  C  C104  1  0.65990000  0.57240000  0.39540000  1
  C  C105  1  0.67380000  0.52360000  0.48520000  1
  C  C106  1  0.68820000  0.21560000  0.21350000  1
  C  C107  1  0.69950000  0.92500000  0.68400000  1
  C  C108  1  0.70230000  0.40920000  0.76170000  1
  C  C109  1  0.70400000  0.43910000  0.66480000  1
  C  C110  1  0.71150000  0.29470000  0.03150000  1
  C  C111  1  0.72580000  0.54430000  0.33190000  1
  C  C112  1  0.73360000  0.89550000  0.54630000  1
  C  C113  1  0.75000000  0.30270000  0.16840000  1
  C  C114  1  0.75230000  0.87000000  0.63330000  1
  C  C115  1  0.76220000  0.34210000  0.07740000  1
  C  C116  1  0.76840000  0.12570000  0.78300000  1
  C  C117  1  0.77240000  0.86960000  0.27590000  1
  C  C118  1  0.77560000  0.43870000  0.79870000  1
  C  C119  1  0.77920000  0.84000000  0.50200000  1
  C  C120  1  0.78430000  0.41230000  0.89350000  1
  C  C121  1  0.79990000  0.81390000  0.36860000  1
  C  C122  1  0.80050000  0.35380000  0.21880000  1
  C  C123  1  0.81780000  0.79040000  0.67700000  1
  C  C124  1  0.82050000  0.95060000  0.11550000  1
  C  C125  1  0.82880000  0.07890000  0.93440000  1
  C  C126  1  0.83780000  0.14360000  0.84580000  1
  C  C127  1  0.84180000  0.89710000  0.20970000  1
  C  C128  1  0.84710000  0.76080000  0.54410000  1
  C  C129  1  0.86720000  0.73750000  0.63140000  1
  C  C130  1  0.89440000  0.09320000  0.99170000  1
  C  C131  1  0.90850000  0.22410000  0.81480000  1
  C  C132  1  0.94510000  0.65860000  0.67570000  1
  C  C133  1  0.95120000  0.67160000  0.16000000  1
  C  C134  1  0.96760000  0.17320000  0.96060000  1
  C  C135  1  0.97380000  0.23890000  0.87280000  1
  O  O136  1  0.00040000  0.62400000  0.62799000  1
  O  O137  1  0.03200000  0.40010000  0.76741000  1
  O  O138  1  0.04320000  0.37060000  0.24438000  1
  O  O139  1  0.10770000  0.96520000  0.92012000  1
  O  O140  1  0.12090000  0.32600000  0.88741000  1
  O  O141  1  0.16681000  0.55145000  0.82187000  1
  O  O142  1  0.18770000  0.69280000  0.70151000  1
  O  O143  1  0.20160000  0.51700000  0.63714000  1
  O  O144  1  0.21500000  0.82230000  0.29730000  1
  O  O145  1  0.24470000  0.12990000  0.58330000  1
  O  O146  1  0.28380000  0.67200000  0.05761000  1
  O  O147  1  0.29500000  0.41850000  0.74664000  1
  O  O148  1  0.30110000  0.94240000  0.18291000  1
  O  O149  1  0.32320000  0.12290000  0.23700000  1
  O  O150  1  0.32480000  0.97954000  0.35626000  1
  O  O151  1  0.37030000  0.75460000  0.43771000  1
  O  O152  1  0.38180000  0.49390000  0.36764000  1
  O  O153  1  0.45690000  0.94810000  0.70570000  1
  O  O154  1  0.46480000  0.82090000  0.31092000  1
  O  O155  1  0.48350000  0.95650000  0.83160000  1
  O  O156  1  0.51650000  0.04350000  0.16840000  1
  O  O157  1  0.53520000  0.17910000  0.68908000  1
  O  O158  1  0.54310000  0.05190000  0.29430000  1
  O  O159  1  0.61820000  0.50610000  0.63236000  1
  O  O160  1  0.62970000  0.24540000  0.56229000  1
  O  O161  1  0.67520000  0.02046000  0.64374000  1
  O  O162  1  0.67680000  0.87710000  0.76300000  1
  O  O163  1  0.69890000  0.05760000  0.81709000  1
  O  O164  1  0.70500000  0.58150000  0.25336000  1
  O  O165  1  0.71620000  0.32800000  0.94239000  1
  O  O166  1  0.75530000  0.87010000  0.41670000  1
  O  O167  1  0.78500000  0.17770000  0.70270000  1
  O  O168  1  0.79840000  0.48300000  0.36286000  1
  O  O169  1  0.81230000  0.30720000  0.29849000  1
  O  O170  1  0.83319000  0.44855000  0.17813000  1
  O  O171  1  0.87910000  0.67400000  0.11259000  1
  O  O172  1  0.89230000  0.03480000  0.07988000  1
  O  O173  1  0.95680000  0.62940000  0.75562000  1
  O  O174  1  0.96800000  0.59990000  0.23259000  1
  O  O175  1  0.99960000  0.37600000  0.37201000  1
