# generated using pymatgen
data_AlAgH18C18(NO2)3
_symmetry_space_group_name_H-M   'P 1'
_cell_length_a   14.05630000
_cell_length_b   14.05630000
_cell_length_c   14.05630000
_cell_angle_alpha   90.00000000
_cell_angle_beta   90.00000000
_cell_angle_gamma   90.00000000
_symmetry_Int_Tables_number   1
_chemical_formula_structural   AlAgH18C18(NO2)3
_chemical_formula_sum   'Al4 Ag4 H72 C72 N12 O24'
_cell_volume   2777.23770543
_cell_formula_units_Z   4
loop_
 _symmetry_equiv_pos_site_id
 _symmetry_equiv_pos_as_xyz
  1  'x, y, z'
loop_
 _atom_site_type_symbol
 _atom_site_label
 _atom_site_symmetry_multiplicity
 _atom_site_fract_x
 _atom_site_fract_y
 _atom_site_fract_z
 _atom_site_occupancy
  Al  Al0  1  0.22936000  0.77064000  0.27064000  1
  Al  Al1  1  0.27064000  0.22936000  0.77064000  1
  Al  Al2  1  0.72936000  0.72936000  0.72936000  1
  Al  Al3  1  0.77064000  0.27064000  0.22936000  1
  Ag  Ag4  1  0.12590000  0.37410000  0.62590000  1
  Ag  Ag5  1  0.37410000  0.62590000  0.12590000  1
  Ag  Ag6  1  0.62590000  0.12590000  0.37410000  1
  Ag  Ag7  1  0.87410000  0.87410000  0.87410000  1
  H  H8  1  0.03050000  0.76810000  0.71680000  1
  H  H9  1  0.05250000  0.69120000  0.79780000  1
  H  H10  1  0.06250000  0.66270000  0.68810000  1
  H  H11  1  0.07800000  0.20990000  0.24530000  1
  H  H12  1  0.07960000  0.32370000  0.24300000  1
  H  H13  1  0.10010000  0.26850000  0.34040000  1
  H  H14  1  0.15960000  0.89990000  0.76850000  1
  H  H15  1  0.16270000  0.81190000  0.93750000  1
  H  H16  1  0.17630000  0.75700000  0.57960000  1
  H  H17  1  0.18810000  0.43750000  0.33730000  1
  H  H18  1  0.19120000  0.70220000  0.94750000  1
  H  H19  1  0.20220000  0.55250000  0.80880000  1
  H  H20  1  0.20990000  0.24530000  0.07800000  1
  H  H21  1  0.21680000  0.46950000  0.23190000  1
  H  H22  1  0.23150000  0.65960000  0.60010000  1
  H  H23  1  0.23190000  0.21680000  0.46950000  1
  H  H24  1  0.24300000  0.07960000  0.32370000  1
  H  H25  1  0.24530000  0.07800000  0.20990000  1
  H  H26  1  0.25470000  0.92200000  0.70990000  1
  H  H27  1  0.25700000  0.92040000  0.82370000  1
  H  H28  1  0.26810000  0.78320000  0.96950000  1
  H  H29  1  0.26850000  0.34040000  0.10010000  1
  H  H30  1  0.28320000  0.53050000  0.73190000  1
  H  H31  1  0.29010000  0.75470000  0.57800000  1
  H  H32  1  0.29780000  0.44750000  0.30880000  1
  H  H33  1  0.30880000  0.29780000  0.44750000  1
  H  H34  1  0.31190000  0.56250000  0.83730000  1
  H  H35  1  0.32370000  0.24300000  0.07960000  1
  H  H36  1  0.33730000  0.18810000  0.43750000  1
  H  H37  1  0.34040000  0.10010000  0.26850000  1
  H  H38  1  0.39990000  0.73150000  0.84040000  1
  H  H39  1  0.42040000  0.67630000  0.74300000  1
  H  H40  1  0.42200000  0.79010000  0.74530000  1
  H  H41  1  0.43750000  0.33730000  0.18810000  1
  H  H42  1  0.44750000  0.30880000  0.29780000  1
  H  H43  1  0.46950000  0.23190000  0.21680000  1
  H  H44  1  0.53050000  0.73190000  0.28320000  1
  H  H45  1  0.55250000  0.80880000  0.20220000  1
  H  H46  1  0.56250000  0.83730000  0.31190000  1
  H  H47  1  0.57800000  0.29010000  0.75470000  1
  H  H48  1  0.57960000  0.17630000  0.75700000  1
  H  H49  1  0.60010000  0.23150000  0.65960000  1
  H  H50  1  0.65960000  0.60010000  0.23150000  1
  H  H51  1  0.66270000  0.68810000  0.06250000  1
  H  H52  1  0.67630000  0.74300000  0.42040000  1
  H  H53  1  0.68810000  0.06250000  0.66270000  1
  H  H54  1  0.69120000  0.79780000  0.05250000  1
  H  H55  1  0.70220000  0.94750000  0.19120000  1
  H  H56  1  0.70990000  0.25470000  0.92200000  1
  H  H57  1  0.71680000  0.03050000  0.76810000  1
  H  H58  1  0.73150000  0.84040000  0.39990000  1
  H  H59  1  0.73190000  0.28320000  0.53050000  1
  H  H60  1  0.74300000  0.42040000  0.67630000  1
  H  H61  1  0.74530000  0.42200000  0.79010000  1
  H  H62  1  0.75470000  0.57800000  0.29010000  1
  H  H63  1  0.75700000  0.57960000  0.17630000  1
  H  H64  1  0.76810000  0.71680000  0.03050000  1
  H  H65  1  0.76850000  0.15960000  0.89990000  1
  H  H66  1  0.78320000  0.96950000  0.26810000  1
  H  H67  1  0.79010000  0.74530000  0.42200000  1
  H  H68  1  0.79780000  0.05250000  0.69120000  1
  H  H69  1  0.80880000  0.20220000  0.55250000  1
  H  H70  1  0.81190000  0.93750000  0.16270000  1
  H  H71  1  0.82370000  0.25700000  0.92040000  1
  H  H72  1  0.83730000  0.31190000  0.56250000  1
  H  H73  1  0.84040000  0.39990000  0.73150000  1
  H  H74  1  0.89990000  0.76850000  0.15960000  1
  H  H75  1  0.92040000  0.82370000  0.25700000  1
  H  H76  1  0.92200000  0.70990000  0.25470000  1
  H  H77  1  0.93750000  0.16270000  0.81190000  1
  H  H78  1  0.94750000  0.19120000  0.70220000  1
  H  H79  1  0.96950000  0.26810000  0.78320000  1
  C  C80  1  0.00510000  0.76260000  0.02550000  1
  C  C81  1  0.02550000  0.00510000  0.76260000  1
  C  C82  1  0.02630000  0.70060000  0.73390000  1
  C  C83  1  0.04071000  0.76973000  0.19570000  1
  C  C84  1  0.06320000  0.26780000  0.28130000  1
  C  C85  1  0.07310000  0.76360000  0.10069000  1
  C  C86  1  0.07564000  0.17010000  0.76741000  1
  C  C87  1  0.10069000  0.07310000  0.76360000  1
  C  C88  1  0.17010000  0.76741000  0.07564000  1
  C  C89  1  0.19570000  0.04071000  0.76973000  1
  C  C90  1  0.20060000  0.76610000  0.97370000  1
  C  C91  1  0.21870000  0.93680000  0.76780000  1
  C  C92  1  0.23027000  0.69570000  0.45929000  1
  C  C93  1  0.23220000  0.71870000  0.56320000  1
  C  C94  1  0.23259000  0.57564000  0.32990000  1
  C  C95  1  0.23390000  0.47370000  0.29940000  1
  C  C96  1  0.23640000  0.60069000  0.42690000  1
  C  C97  1  0.23740000  0.52550000  0.49490000  1
  C  C98  1  0.26260000  0.47450000  0.99490000  1
  C  C99  1  0.26360000  0.39931000  0.92690000  1
  C  C100  1  0.26610000  0.52630000  0.79940000  1
  C  C101  1  0.26741000  0.42436000  0.82990000  1
  C  C102  1  0.26780000  0.28130000  0.06320000  1
  C  C103  1  0.26973000  0.30430000  0.95929000  1
  C  C104  1  0.28130000  0.06320000  0.26780000  1
  C  C105  1  0.29940000  0.23390000  0.47370000  1
  C  C106  1  0.30430000  0.95929000  0.26973000  1
  C  C107  1  0.32990000  0.23259000  0.57564000  1
  C  C108  1  0.39931000  0.92690000  0.26360000  1
  C  C109  1  0.42436000  0.82990000  0.26741000  1
  C  C110  1  0.42690000  0.23640000  0.60069000  1
  C  C111  1  0.43680000  0.73220000  0.78130000  1
  C  C112  1  0.45929000  0.23027000  0.69570000  1
  C  C113  1  0.47370000  0.29940000  0.23390000  1
  C  C114  1  0.47450000  0.99490000  0.26260000  1
  C  C115  1  0.49490000  0.23740000  0.52550000  1
  C  C116  1  0.50510000  0.73740000  0.97450000  1
  C  C117  1  0.52550000  0.49490000  0.23740000  1
  C  C118  1  0.52630000  0.79940000  0.26610000  1
  C  C119  1  0.54071000  0.73027000  0.80430000  1
  C  C120  1  0.56320000  0.23220000  0.71870000  1
  C  C121  1  0.57310000  0.73640000  0.89931000  1
  C  C122  1  0.57564000  0.32990000  0.23259000  1
  C  C123  1  0.60069000  0.42690000  0.23640000  1
  C  C124  1  0.67010000  0.73259000  0.92436000  1
  C  C125  1  0.69570000  0.45929000  0.23027000  1
  C  C126  1  0.70060000  0.73390000  0.02630000  1
  C  C127  1  0.71870000  0.56320000  0.23220000  1
  C  C128  1  0.73027000  0.80430000  0.54071000  1
  C  C129  1  0.73220000  0.78130000  0.43680000  1
  C  C130  1  0.73259000  0.92436000  0.67010000  1
  C  C131  1  0.73390000  0.02630000  0.70060000  1
  C  C132  1  0.73640000  0.89931000  0.57310000  1
  C  C133  1  0.73740000  0.97450000  0.50510000  1
  C  C134  1  0.76260000  0.02550000  0.00510000  1
  C  C135  1  0.76360000  0.10069000  0.07310000  1
  C  C136  1  0.76610000  0.97370000  0.20060000  1
  C  C137  1  0.76741000  0.07564000  0.17010000  1
  C  C138  1  0.76780000  0.21870000  0.93680000  1
  C  C139  1  0.76973000  0.19570000  0.04071000  1
  C  C140  1  0.78130000  0.43680000  0.73220000  1
  C  C141  1  0.79940000  0.26610000  0.52630000  1
  C  C142  1  0.80430000  0.54071000  0.73027000  1
  C  C143  1  0.82990000  0.26741000  0.42436000  1
  C  C144  1  0.89931000  0.57310000  0.73640000  1
  C  C145  1  0.92436000  0.67010000  0.73259000  1
  C  C146  1  0.92690000  0.26360000  0.39931000  1
  C  C147  1  0.93680000  0.76780000  0.21870000  1
  C  C148  1  0.95929000  0.26973000  0.30430000  1
  C  C149  1  0.97370000  0.20060000  0.76610000  1
  C  C150  1  0.97450000  0.50510000  0.73740000  1
  C  C151  1  0.99490000  0.26260000  0.47450000  1
  N  N152  1  0.03684000  0.45266000  0.73660000  1
  N  N153  1  0.04734000  0.26340000  0.53684000  1
  N  N154  1  0.23660000  0.46316000  0.54734000  1
  N  N155  1  0.26340000  0.53684000  0.04734000  1
  N  N156  1  0.45266000  0.73660000  0.03684000  1
  N  N157  1  0.46316000  0.54734000  0.23660000  1
  N  N158  1  0.53684000  0.04734000  0.26340000  1
  N  N159  1  0.54734000  0.23660000  0.46316000  1
  N  N160  1  0.73660000  0.03684000  0.45266000  1
  N  N161  1  0.76340000  0.96316000  0.95266000  1
  N  N162  1  0.95266000  0.76340000  0.96316000  1
  N  N163  1  0.96316000  0.95266000  0.76340000  1
  O  O164  1  0.09716000  0.77724000  0.26548000  1
  O  O165  1  0.13753000  0.23595000  0.77206000  1
  O  O166  1  0.22276000  0.76548000  0.40284000  1
  O  O167  1  0.22794000  0.63753000  0.26405000  1
  O  O168  1  0.23452000  0.90284000  0.27724000  1
  O  O169  1  0.23595000  0.77206000  0.13753000  1
  O  O170  1  0.26405000  0.22794000  0.63753000  1
  O  O171  1  0.26548000  0.09716000  0.77724000  1
  O  O172  1  0.27206000  0.36247000  0.76405000  1
  O  O173  1  0.27724000  0.23452000  0.90284000  1
  O  O174  1  0.36247000  0.76405000  0.27206000  1
  O  O175  1  0.40284000  0.22276000  0.76548000  1
  O  O176  1  0.59716000  0.72276000  0.73452000  1
  O  O177  1  0.63753000  0.26405000  0.22794000  1
  O  O178  1  0.72276000  0.73452000  0.59716000  1
  O  O179  1  0.72794000  0.86247000  0.73595000  1
  O  O180  1  0.73452000  0.59716000  0.72276000  1
  O  O181  1  0.73595000  0.72794000  0.86247000  1
  O  O182  1  0.76405000  0.27206000  0.36247000  1
  O  O183  1  0.76548000  0.40284000  0.22276000  1
  O  O184  1  0.77206000  0.13753000  0.23595000  1
  O  O185  1  0.77724000  0.26548000  0.09716000  1
  O  O186  1  0.86247000  0.73595000  0.72794000  1
  O  O187  1  0.90284000  0.27724000  0.23452000  1
