# generated using pymatgen
data_Cd3H26C28(NO6)2
_symmetry_space_group_name_H-M   'P 1'
_cell_length_a   8.96900000
_cell_length_b   9.41900000
_cell_length_c   17.29000000
_cell_angle_alpha   100.46800000
_cell_angle_beta   92.75400000
_cell_angle_gamma   117.70200000
_symmetry_Int_Tables_number   1
_chemical_formula_structural   Cd3H26C28(NO6)2
_chemical_formula_sum   'Cd3 H26 C28 N2 O12'
_cell_volume   1256.88084435
_cell_formula_units_Z   1
loop_
 _symmetry_equiv_pos_site_id
 _symmetry_equiv_pos_as_xyz
  1  'x, y, z'
loop_
 _atom_site_type_symbol
 _atom_site_label
 _atom_site_symmetry_multiplicity
 _atom_site_fract_x
 _atom_site_fract_y
 _atom_site_fract_z
 _atom_site_occupancy
  Cd  Cd0  1  0.45725000  0.84964000  0.79928000  1
  Cd  Cd1  1  0.50000000  0.00000000  0.00000000  1
  Cd  Cd2  1  0.54275000  0.15036000  0.20072000  1
  H  H3  1  0.00940000  0.59960000  0.06580000  1
  H  H4  1  0.01500000  0.97060000  0.88400000  1
  H  H5  1  0.02500000  0.83400000  0.03600000  1
  H  H6  1  0.02810000  0.34550000  0.84940000  1
  H  H7  1  0.03910000  0.06680000  0.81640000  1
  H  H8  1  0.05140000  0.35470000  0.57570000  1
  H  H9  1  0.11360000  0.77390000  0.52910000  1
  H  H10  1  0.23320000  0.50280000  0.69220000  1
  H  H11  1  0.25100000  0.44900000  0.99200000  1
  H  H12  1  0.29320000  0.91190000  0.64710000  1
  H  H13  1  0.29700000  0.17900000  0.96500000  1
  H  H14  1  0.31350000  0.35150000  0.83570000  1
  H  H15  1  0.44760000  0.41310000  0.91250000  1
  H  H16  1  0.55240000  0.58690000  0.08750000  1
  H  H17  1  0.68650000  0.64850000  0.16430000  1
  H  H18  1  0.70300000  0.82100000  0.03500000  1
  H  H19  1  0.70680000  0.08810000  0.35290000  1
  H  H20  1  0.74900000  0.55100000  0.00800000  1
  H  H21  1  0.76680000  0.49720000  0.30780000  1
  H  H22  1  0.88640000  0.22610000  0.47090000  1
  H  H23  1  0.94860000  0.64530000  0.42430000  1
  H  H24  1  0.96090000  0.93320000  0.18360000  1
  H  H25  1  0.97190000  0.65450000  0.15060000  1
  H  H26  1  0.97500000  0.16600000  0.96400000  1
  H  H27  1  0.98500000  0.02940000  0.11600000  1
  H  H28  1  0.99060000  0.40040000  0.93420000  1
  C  C29  1  0.03150000  0.83300000  0.08520000  1
  C  C30  1  0.04670000  0.34580000  0.90520000  1
  C  C31  1  0.05890000  0.54580000  0.53820000  1
  C  C32  1  0.06050000  0.07970000  0.87350000  1
  C  C33  1  0.09860000  0.46880000  0.58870000  1
  C  C34  1  0.13530000  0.71490000  0.56160000  1
  C  C35  1  0.20850000  0.55920000  0.65910000  1
  C  C36  1  0.21890000  0.93540000  0.11910000  1
  C  C37  1  0.23630000  0.44020000  0.93590000  1
  C  C38  1  0.24370000  0.79760000  0.63280000  1
  C  C39  1  0.25370000  0.17560000  0.90190000  1
  C  C40  1  0.31120000  0.61620000  0.92490000  1
  C  C41  1  0.32680000  0.35260000  0.89180000  1
  C  C42  1  0.33020000  0.08210000  0.85200000  1
  C  C43  1  0.66980000  0.91790000  0.14800000  1
  C  C44  1  0.67320000  0.64740000  0.10820000  1
  C  C45  1  0.68880000  0.38380000  0.07510000  1
  C  C46  1  0.74630000  0.82440000  0.09810000  1
  C  C47  1  0.75630000  0.20240000  0.36720000  1
  C  C48  1  0.76370000  0.55980000  0.06410000  1
  C  C49  1  0.78110000  0.06460000  0.88090000  1
  C  C50  1  0.79150000  0.44080000  0.34090000  1
  C  C51  1  0.86470000  0.28510000  0.43840000  1
  C  C52  1  0.90140000  0.53120000  0.41130000  1
  C  C53  1  0.93950000  0.92030000  0.12650000  1
  C  C54  1  0.94110000  0.45420000  0.46180000  1
  C  C55  1  0.95330000  0.65420000  0.09480000  1
  C  C56  1  0.96850000  0.16700000  0.91480000  1
  N  N57  1  0.28060000  0.72140000  0.68210000  1
  N  N58  1  0.71940000  0.27860000  0.31790000  1
  O  O59  1  0.27080000  0.92720000  0.18620000  1
  O  O60  1  0.31590000  0.03740000  0.08220000  1
  O  O61  1  0.31880000  0.63390000  0.85480000  1
  O  O62  1  0.35160000  0.97920000  0.88340000  1
  O  O63  1  0.35870000  0.09720000  0.78430000  1
  O  O64  1  0.35970000  0.72800000  0.98670000  1
  O  O65  1  0.64030000  0.27200000  0.01330000  1
  O  O66  1  0.64130000  0.90280000  0.21570000  1
  O  O67  1  0.64840000  0.02080000  0.11660000  1
  O  O68  1  0.68120000  0.36610000  0.14520000  1
  O  O69  1  0.68410000  0.96260000  0.91780000  1
  O  O70  1  0.72920000  0.07280000  0.81380000  1
