# generated using pymatgen
data_NiH7C11O5
_symmetry_space_group_name_H-M   'P 1'
_cell_length_a   10.07000000
_cell_length_b   13.10700000
_cell_length_c   15.21600000
_cell_angle_alpha   78.42000000
_cell_angle_beta   76.52700000
_cell_angle_gamma   68.20400000
_symmetry_Int_Tables_number   1
_chemical_formula_structural   NiH7C11O5
_chemical_formula_sum   'Ni4 H28 C44 O20'
_cell_volume   1798.86324862
_cell_formula_units_Z   4
loop_
 _symmetry_equiv_pos_site_id
 _symmetry_equiv_pos_as_xyz
  1  'x, y, z'
loop_
 _atom_site_type_symbol
 _atom_site_label
 _atom_site_symmetry_multiplicity
 _atom_site_fract_x
 _atom_site_fract_y
 _atom_site_fract_z
 _atom_site_occupancy
  Ni  Ni0  1  0.01571000  0.57777000  0.34037000  1
  Ni  Ni1  1  0.26229000  0.19755000  0.73966000  1
  Ni  Ni2  1  0.73771000  0.80245000  0.26034000  1
  Ni  Ni3  1  0.98429000  0.42223000  0.65963000  1
  H  H4  1  0.01360000  0.74450000  0.25970000  1
  H  H5  1  0.07100000  0.22450000  0.65870000  1
  H  H6  1  0.12670000  0.94570000  0.55710000  1
  H  H7  1  0.15910000  0.53270000  0.06790000  1
  H  H8  1  0.17180000  0.08180000  0.78990000  1
  H  H9  1  0.20570000  0.77030000  0.51730000  1
  H  H10  1  0.26930000  0.09470000  0.83270000  1
  H  H11  1  0.27450000  0.50950000  0.78760000  1
  H  H12  1  0.28080000  0.58470000  0.58650000  1
  H  H13  1  0.37450000  0.66270000  0.03290000  1
  H  H14  1  0.38420000  0.38030000  0.03200000  1
  H  H15  1  0.39510000  0.27480000  0.44600000  1
  H  H16  1  0.47670000  0.09950000  0.40390000  1
  H  H17  1  0.48490000  0.52510000  0.27510000  1
  H  H18  1  0.51510000  0.47490000  0.72490000  1
  H  H19  1  0.52330000  0.90050000  0.59610000  1
  H  H20  1  0.60490000  0.72520000  0.55400000  1
  H  H21  1  0.61580000  0.61970000  0.96800000  1
  H  H22  1  0.62550000  0.33730000  0.96710000  1
  H  H23  1  0.71920000  0.41530000  0.41350000  1
  H  H24  1  0.72550000  0.49050000  0.21240000  1
  H  H25  1  0.73070000  0.90530000  0.16730000  1
  H  H26  1  0.79430000  0.22970000  0.48270000  1
  H  H27  1  0.82820000  0.91820000  0.21010000  1
  H  H28  1  0.84090000  0.46730000  0.93210000  1
  H  H29  1  0.87330000  0.05430000  0.44290000  1
  H  H30  1  0.92900000  0.77550000  0.34130000  1
  H  H31  1  0.98640000  0.25550000  0.74030000  1
  C  C32  1  0.04970000  0.45330000  0.91943000  1
  C  C33  1  0.09350000  0.39990000  0.83387000  1
  C  C34  1  0.09510000  0.51930000  0.04014000  1
  C  C35  1  0.14760000  0.47230000  0.95945000  1
  C  C36  1  0.22300000  0.90080000  0.55760000  1
  C  C37  1  0.24800000  0.62920000  0.20360000  1
  C  C38  1  0.25820000  0.05160000  0.61660000  1
  C  C39  1  0.27030000  0.79590000  0.53350000  1
  C  C40  1  0.30290000  0.38270000  0.59230000  1
  C  C41  1  0.30300000  0.44820000  0.91764000  1
  C  C42  1  0.31520000  0.94030000  0.58250000  1
  C  C43  1  0.34490000  0.47570000  0.82450000  1
  C  C44  1  0.37000000  0.55030000  0.55158000  1
  C  C45  1  0.40480000  0.59990000  0.16120000  1
  C  C46  1  0.40630000  0.44060000  0.54055000  1
  C  C47  1  0.40980000  0.39790000  0.96950000  1
  C  C48  1  0.41440000  0.72760000  0.53302000  1
  C  C49  1  0.44530000  0.62710000  0.06920000  1
  C  C50  1  0.45900000  0.87410000  0.58050000  1
  C  C51  1  0.46060000  0.61160000  0.51291000  1
  C  C52  1  0.48910000  0.45350000  0.78660000  1
  C  C53  1  0.49230000  0.23120000  0.44440000  1
  C  C54  1  0.50770000  0.76880000  0.55560000  1
  C  C55  1  0.51090000  0.54650000  0.21340000  1
  C  C56  1  0.53940000  0.38840000  0.48709000  1
  C  C57  1  0.54100000  0.12590000  0.41950000  1
  C  C58  1  0.55470000  0.37290000  0.93080000  1
  C  C59  1  0.58560000  0.27240000  0.46698000  1
  C  C60  1  0.59020000  0.60210000  0.03050000  1
  C  C61  1  0.59370000  0.55940000  0.45945000  1
  C  C62  1  0.59520000  0.40010000  0.83880000  1
  C  C63  1  0.63000000  0.44970000  0.44842000  1
  C  C64  1  0.65510000  0.52430000  0.17550000  1
  C  C65  1  0.68480000  0.05970000  0.41750000  1
  C  C66  1  0.69700000  0.55180000  0.08236000  1
  C  C67  1  0.69710000  0.61730000  0.40770000  1
  C  C68  1  0.72970000  0.20410000  0.46650000  1
  C  C69  1  0.74180000  0.94840000  0.38340000  1
  C  C70  1  0.75200000  0.37080000  0.79640000  1
  C  C71  1  0.77700000  0.09920000  0.44240000  1
  C  C72  1  0.85240000  0.52770000  0.04055000  1
  C  C73  1  0.90490000  0.48070000  0.95986000  1
  C  C74  1  0.90650000  0.60010000  0.16613000  1
  C  C75  1  0.95030000  0.54670000  0.08057000  1
  O  O76  1  0.02930000  0.45582000  0.77014000  1
  O  O77  1  0.06363000  0.25703000  0.70356000  1
  O  O78  1  0.13310000  0.11208000  0.60231000  1
  O  O79  1  0.15840000  0.71055000  0.16631000  1
  O  O80  1  0.17350000  0.43017000  0.58010000  1
  O  O81  1  0.18750000  0.30459000  0.83494000  1
  O  O82  1  0.18880000  0.08390000  0.84151000  1
  O  O83  1  0.21800000  0.56941000  0.27525000  1
  O  O84  1  0.33580000  0.07376000  0.65742000  1
  O  O85  1  0.35010000  0.29707000  0.64398000  1
  O  O86  1  0.64990000  0.70293000  0.35602000  1
  O  O87  1  0.66420000  0.92624000  0.34258000  1
  O  O88  1  0.78200000  0.43059000  0.72475000  1
  O  O89  1  0.81120000  0.91610000  0.15849000  1
  O  O90  1  0.81250000  0.69541000  0.16506000  1
  O  O91  1  0.82650000  0.56983000  0.41990000  1
  O  O92  1  0.84160000  0.28945000  0.83369000  1
  O  O93  1  0.86690000  0.88792000  0.39769000  1
  O  O94  1  0.93637000  0.74297000  0.29644000  1
  O  O95  1  0.97070000  0.54418000  0.22986000  1
