# generated using pymatgen
data_Cu2P2(CO2)3
_symmetry_space_group_name_H-M   'P 1'
_cell_length_a   4.32760000
_cell_length_b   6.76240000
_cell_length_c   17.31810000
_cell_angle_alpha   90.00000000
_cell_angle_beta   90.00000000
_cell_angle_gamma   90.00000000
_symmetry_Int_Tables_number   1
_chemical_formula_structural   Cu2P2(CO2)3
_chemical_formula_sum   'Cu4 P4 C6 O12'
_cell_volume   506.81354257
_cell_formula_units_Z   2
loop_
 _symmetry_equiv_pos_site_id
 _symmetry_equiv_pos_as_xyz
  1  'x, y, z'
loop_
 _atom_site_type_symbol
 _atom_site_label
 _atom_site_symmetry_multiplicity
 _atom_site_fract_x
 _atom_site_fract_y
 _atom_site_fract_z
 _atom_site_occupancy
  Cu  Cu0  1  0.99300000  0.27470000  0.75670000  1
  Cu  Cu1  1  0.99300000  0.77470000  0.74330000  1
  Cu  Cu2  1  0.00700000  0.77470000  0.25670000  1
  Cu  Cu3  1  0.00700000  0.27470000  0.24330000  1
  P  P4  1  0.52600000  0.00900000  0.83970000  1
  P  P5  1  0.52600000  0.50900000  0.66030000  1
  P  P6  1  0.47400000  0.50900000  0.33970000  1
  P  P7  1  0.47400000  0.00900000  0.16030000  1
  C  C8  1  0.63600000  0.45900000  0.43710000  1
  C  C9  1  0.63600000  0.95900000  0.06290000  1
  C  C10  1  0.50000000  0.07700000  0.00000000  1
  C  C11  1  0.50000000  0.57700000  0.50000000  1
  C  C12  1  0.36400000  0.95900000  0.93710000  1
  C  C13  1  0.36400000  0.45900000  0.56290000  1
  O  O14  1  0.77400000  0.53800000  0.28530000  1
  O  O15  1  0.77400000  0.03800000  0.21470000  1
  O  O16  1  0.71400000  0.19300000  0.83730000  1
  O  O17  1  0.71400000  0.69300000  0.66270000  1
  O  O18  1  0.67300000  0.81400000  0.81360000  1
  O  O19  1  0.67300000  0.31400000  0.68640000  1
  O  O20  1  0.32700000  0.31400000  0.31360000  1
  O  O21  1  0.32700000  0.81400000  0.18640000  1
  O  O22  1  0.28600000  0.69300000  0.33730000  1
  O  O23  1  0.28600000  0.19300000  0.16270000  1
  O  O24  1  0.22600000  0.03800000  0.78530000  1
  O  O25  1  0.22600000  0.53800000  0.71470000  1
