# generated using pymatgen
data_Sc2P2O8F
_symmetry_space_group_name_H-M   'P 1'
_cell_length_a   10.28260000
_cell_length_b   12.69770000
_cell_length_c   17.86400000
_cell_angle_alpha   90.00000000
_cell_angle_beta   102.76100000
_cell_angle_gamma   90.00000000
_symmetry_Int_Tables_number   1
_chemical_formula_structural   Sc2P2O8F
_chemical_formula_sum   'Sc16 P16 O64 F8'
_cell_volume   2274.80884234
_cell_formula_units_Z   8
loop_
 _symmetry_equiv_pos_site_id
 _symmetry_equiv_pos_as_xyz
  1  'x, y, z'
loop_
 _atom_site_type_symbol
 _atom_site_label
 _atom_site_symmetry_multiplicity
 _atom_site_fract_x
 _atom_site_fract_y
 _atom_site_fract_z
 _atom_site_occupancy
  Sc  Sc0  1  0.03105000  0.11361000  0.79189000  1
  Sc  Sc1  1  0.06037000  0.52145000  0.37252000  1
  Sc  Sc2  1  0.13449000  0.85329000  0.57684000  1
  Sc  Sc3  1  0.24602000  0.06920000  0.27905000  1
  Sc  Sc4  1  0.25398000  0.56920000  0.22095000  1
  Sc  Sc5  1  0.36551000  0.35329000  0.92316000  1
  Sc  Sc6  1  0.43963000  0.02145000  0.12748000  1
  Sc  Sc7  1  0.46895000  0.61361000  0.70811000  1
  Sc  Sc8  1  0.53105000  0.38639000  0.29189000  1
  Sc  Sc9  1  0.56037000  0.97855000  0.87252000  1
  Sc  Sc10  1  0.63449000  0.64671000  0.07684000  1
  Sc  Sc11  1  0.74602000  0.43080000  0.77905000  1
  Sc  Sc12  1  0.75398000  0.93080000  0.72095000  1
  Sc  Sc13  1  0.86551000  0.14671000  0.42316000  1
  Sc  Sc14  1  0.93963000  0.47855000  0.62748000  1
  Sc  Sc15  1  0.96895000  0.88639000  0.20811000  1
  P  P16  1  0.06465000  0.38209000  0.80734000  1
  P  P17  1  0.08021000  0.95350000  0.39262000  1
  P  P18  1  0.20051000  0.58870000  0.55789000  1
  P  P19  1  0.22280000  0.33851000  0.29917000  1
  P  P20  1  0.27720000  0.83851000  0.20083000  1
  P  P21  1  0.29949000  0.08870000  0.94211000  1
  P  P22  1  0.41979000  0.45350000  0.10738000  1
  P  P23  1  0.43535000  0.88209000  0.69266000  1
  P  P24  1  0.56465000  0.11791000  0.30734000  1
  P  P25  1  0.58021000  0.54650000  0.89262000  1
  P  P26  1  0.70051000  0.91130000  0.05789000  1
  P  P27  1  0.72280000  0.16149000  0.79917000  1
  P  P28  1  0.77720000  0.66149000  0.70083000  1
  P  P29  1  0.79949000  0.41130000  0.44211000  1
  P  P30  1  0.91979000  0.04650000  0.60738000  1
  P  P31  1  0.93535000  0.61791000  0.19266000  1
  O  O32  1  0.05140000  0.98986000  0.60625000  1
  O  O33  1  0.05410000  0.87307000  0.32717000  1
  O  O34  1  0.05940000  0.45382000  0.73786000  1
  O  O35  1  0.06440000  0.60740000  0.16330000  1
  O  O36  1  0.08620000  0.26752000  0.78453000  1
  O  O37  1  0.10350000  0.54910000  0.60543000  1
  O  O38  1  0.12890000  0.84310000  0.16205000  1
  O  O39  1  0.13330000  0.89870000  0.46887000  1
  O  O40  1  0.13730000  0.37253000  0.35610000  1
  O  O41  1  0.15560000  0.07610000  0.89586000  1
  O  O42  1  0.17390000  0.70601000  0.53945000  1
  O  O43  1  0.17990000  0.52800000  0.48216000  1
  O  O44  1  0.18170000  0.22545000  0.27346000  1
  O  O45  1  0.18330000  0.03707000  0.37974000  1
  O  O46  1  0.18380000  0.41256000  0.87212000  1
  O  O47  1  0.19380000  0.41297000  0.22971000  1
  O  O48  1  0.30620000  0.91297000  0.27029000  1
  O  O49  1  0.31620000  0.91256000  0.62788000  1
  O  O50  1  0.31670000  0.53707000  0.12026000  1
  O  O51  1  0.31830000  0.72545000  0.22654000  1
  O  O52  1  0.32010000  0.02800000  0.01784000  1
  O  O53  1  0.32610000  0.20601000  0.96055000  1
  O  O54  1  0.34440000  0.57610000  0.60414000  1
  O  O55  1  0.36270000  0.87253000  0.14390000  1
  O  O56  1  0.36670000  0.39870000  0.03113000  1
  O  O57  1  0.37110000  0.34310000  0.33795000  1
  O  O58  1  0.39650000  0.04910000  0.89457000  1
  O  O59  1  0.41380000  0.76752000  0.71547000  1
  O  O60  1  0.43560000  0.10740000  0.33670000  1
  O  O61  1  0.44060000  0.95382000  0.76214000  1
  O  O62  1  0.44590000  0.37307000  0.17283000  1
  O  O63  1  0.44860000  0.48986000  0.89375000  1
  O  O64  1  0.55140000  0.51014000  0.10625000  1
  O  O65  1  0.55410000  0.62693000  0.82717000  1
  O  O66  1  0.55940000  0.04618000  0.23786000  1
  O  O67  1  0.56440000  0.89260000  0.66330000  1
  O  O68  1  0.58620000  0.23248000  0.28453000  1
  O  O69  1  0.60350000  0.95090000  0.10543000  1
  O  O70  1  0.62890000  0.65690000  0.66205000  1
  O  O71  1  0.63330000  0.60130000  0.96887000  1
  O  O72  1  0.63730000  0.12747000  0.85610000  1
  O  O73  1  0.65560000  0.42390000  0.39586000  1
  O  O74  1  0.67390000  0.79399000  0.03945000  1
  O  O75  1  0.67990000  0.97200000  0.98216000  1
  O  O76  1  0.68170000  0.27455000  0.77346000  1
  O  O77  1  0.68330000  0.46293000  0.87974000  1
  O  O78  1  0.68380000  0.08744000  0.37212000  1
  O  O79  1  0.69380000  0.08703000  0.72971000  1
  O  O80  1  0.80620000  0.58703000  0.77029000  1
  O  O81  1  0.81620000  0.58744000  0.12788000  1
  O  O82  1  0.81670000  0.96293000  0.62026000  1
  O  O83  1  0.81830000  0.77455000  0.72654000  1
  O  O84  1  0.82010000  0.47200000  0.51784000  1
  O  O85  1  0.82610000  0.29399000  0.46055000  1
  O  O86  1  0.84440000  0.92390000  0.10414000  1
  O  O87  1  0.86270000  0.62747000  0.64390000  1
  O  O88  1  0.86670000  0.10130000  0.53113000  1
  O  O89  1  0.87110000  0.15690000  0.83795000  1
  O  O90  1  0.89650000  0.45090000  0.39457000  1
  O  O91  1  0.91380000  0.73248000  0.21547000  1
  O  O92  1  0.93560000  0.39260000  0.83670000  1
  O  O93  1  0.94060000  0.54618000  0.26214000  1
  O  O94  1  0.94590000  0.12693000  0.67283000  1
  O  O95  1  0.94860000  0.01014000  0.39375000  1
  F  F96  1  0.05330000  0.03385000  0.22052000  1
  F  F97  1  0.21040000  0.58579000  0.32681000  1
  F  F98  1  0.28960000  0.08579000  0.17319000  1
  F  F99  1  0.44670000  0.53385000  0.27948000  1
  F  F100  1  0.55330000  0.46615000  0.72052000  1
  F  F101  1  0.71040000  0.91421000  0.82681000  1
  F  F102  1  0.78960000  0.41421000  0.67319000  1
  F  F103  1  0.94670000  0.96615000  0.77948000  1
