# generated using pymatgen
data_Cu7H40C80(NO6)4
_symmetry_space_group_name_H-M   'P 1'
_cell_length_a   33.78310000
_cell_length_b   33.78310000
_cell_length_c   43.45600000
_cell_angle_alpha   90.00000000
_cell_angle_beta   90.00000000
_cell_angle_gamma   120.00000000
_symmetry_Int_Tables_number   1
_chemical_formula_structural   Cu7H40C80(NO6)4
_chemical_formula_sum   'Cu42 H240 C480 N24 O144'
_cell_volume   42951.60306103
_cell_formula_units_Z   6
loop_
 _symmetry_equiv_pos_site_id
 _symmetry_equiv_pos_as_xyz
  1  'x, y, z'
loop_
 _atom_site_type_symbol
 _atom_site_label
 _atom_site_symmetry_multiplicity
 _atom_site_fract_x
 _atom_site_fract_y
 _atom_site_fract_z
 _atom_site_occupancy
  Cu  Cu0  1  0.95752000  0.47876000  0.48912000  1
  Cu  Cu1  1  0.95752000  0.47876000  0.01088000  1
  Cu  Cu2  1  0.80895000  0.19106000  0.59988000  1
  Cu  Cu3  1  0.80895000  0.61789000  0.90012000  1
  Cu  Cu4  1  0.80894000  0.19105000  0.90012000  1
  Cu  Cu5  1  0.80894000  0.61789000  0.59988000  1
  Cu  Cu6  1  0.80807000  0.19192000  0.25000000  1
  Cu  Cu7  1  0.80807000  0.61614000  0.25000000  1
  Cu  Cu8  1  0.77845000  0.22155000  0.94414000  1
  Cu  Cu9  1  0.77845000  0.22155000  0.55586000  1
  Cu  Cu10  1  0.77845000  0.55690000  0.94414000  1
  Cu  Cu11  1  0.77845000  0.55690000  0.55586000  1
  Cu  Cu12  1  0.61789000  0.80894000  0.40012000  1
  Cu  Cu13  1  0.61789000  0.80894000  0.09988000  1
  Cu  Cu14  1  0.61615000  0.80808000  0.75000000  1
  Cu  Cu15  1  0.55690000  0.77845000  0.44414000  1
  Cu  Cu16  1  0.55690000  0.77845000  0.05586000  1
  Cu  Cu17  1  0.52124000  0.04248000  0.48912000  1
  Cu  Cu18  1  0.52124000  0.04248000  0.01088000  1
  Cu  Cu19  1  0.52124000  0.47876000  0.48912000  1
  Cu  Cu20  1  0.52124000  0.47876000  0.01088000  1
  Cu  Cu21  1  0.47876000  0.52124000  0.98912000  1
  Cu  Cu22  1  0.47876000  0.52124000  0.51088000  1
  Cu  Cu23  1  0.47876000  0.95752000  0.98912000  1
  Cu  Cu24  1  0.47876000  0.95752000  0.51088000  1
  Cu  Cu25  1  0.44310000  0.22155000  0.94414000  1
  Cu  Cu26  1  0.44310000  0.22155000  0.55586000  1
  Cu  Cu27  1  0.38385000  0.19192000  0.25000000  1
  Cu  Cu28  1  0.38211000  0.19105000  0.59988000  1
  Cu  Cu29  1  0.38211000  0.19106000  0.90012000  1
  Cu  Cu30  1  0.22155000  0.44310000  0.44414000  1
  Cu  Cu31  1  0.22155000  0.44310000  0.05586000  1
  Cu  Cu32  1  0.22155000  0.77845000  0.44414000  1
  Cu  Cu33  1  0.22155000  0.77845000  0.05586000  1
  Cu  Cu34  1  0.19192000  0.38384000  0.75000000  1
  Cu  Cu35  1  0.19192000  0.80807000  0.75000000  1
  Cu  Cu36  1  0.19105000  0.38210000  0.40012000  1
  Cu  Cu37  1  0.19105000  0.38210000  0.09988000  1
  Cu  Cu38  1  0.19105000  0.80894000  0.40012000  1
  Cu  Cu39  1  0.19105000  0.80894000  0.09988000  1
  Cu  Cu40  1  0.04248000  0.52124000  0.98912000  1
  Cu  Cu41  1  0.04248000  0.52124000  0.51088000  1
  H  H42  1  0.99240000  0.29630000  0.37590000  1
  H  H43  1  0.99240000  0.29630000  0.12410000  1
  H  H44  1  0.99240000  0.69610000  0.37590000  1
  H  H45  1  0.99240000  0.69610000  0.12410000  1
  H  H46  1  0.97370000  0.40280000  0.41810000  1
  H  H47  1  0.97370000  0.40280000  0.08190000  1
  H  H48  1  0.97370000  0.57090000  0.41810000  1
  H  H49  1  0.97370000  0.57090000  0.08190000  1
  H  H50  1  0.95480000  0.33750000  0.27880000  1
  H  H51  1  0.95480000  0.33750000  0.22120000  1
  H  H52  1  0.95480000  0.61730000  0.27880000  1
  H  H53  1  0.95480000  0.61730000  0.22120000  1
  H  H54  1  0.95240000  0.38990000  0.36610000  1
  H  H55  1  0.95240000  0.38990000  0.13390000  1
  H  H56  1  0.95240000  0.56250000  0.36610000  1
  H  H57  1  0.95240000  0.56250000  0.13390000  1
  H  H58  1  0.93900000  0.25020000  0.33910000  1
  H  H59  1  0.93900000  0.25020000  0.16090000  1
  H  H60  1  0.93900000  0.68880000  0.33910000  1
  H  H61  1  0.93900000  0.68880000  0.16090000  1
  H  H62  1  0.93870000  0.30320000  0.88550000  1
  H  H63  1  0.93870000  0.30320000  0.61450000  1
  H  H64  1  0.93870000  0.63550000  0.88550000  1
  H  H65  1  0.93870000  0.63550000  0.61450000  1
  H  H66  1  0.90090000  0.35520000  0.95570000  1
  H  H67  1  0.90090000  0.35520000  0.54430000  1
  H  H68  1  0.90090000  0.54570000  0.95570000  1
  H  H69  1  0.90090000  0.54570000  0.54430000  1
  H  H70  1  0.89890000  0.34380000  0.32930000  1
  H  H71  1  0.89890000  0.34380000  0.17070000  1
  H  H72  1  0.89890000  0.55510000  0.32930000  1
  H  H73  1  0.89890000  0.55510000  0.17070000  1
  H  H74  1  0.84480000  0.22780000  0.36500000  1
  H  H75  1  0.84480000  0.22780000  0.13500000  1
  H  H76  1  0.84480000  0.61700000  0.36500000  1
  H  H77  1  0.84480000  0.61700000  0.13500000  1
  H  H78  1  0.83645000  0.16355000  0.97800000  1
  H  H79  1  0.83645000  0.16355000  0.52200000  1
  H  H80  1  0.83645000  0.67290000  0.97800000  1
  H  H81  1  0.83645000  0.67290000  0.52200000  1
  H  H82  1  0.77220000  0.15520000  0.36500000  1
  H  H83  1  0.77220000  0.15520000  0.13500000  1
  H  H84  1  0.77220000  0.61700000  0.36500000  1
  H  H85  1  0.77220000  0.61700000  0.13500000  1
  H  H86  1  0.74980000  0.06100000  0.33910000  1
  H  H87  1  0.74980000  0.06100000  0.16090000  1
  H  H88  1  0.74980000  0.68880000  0.33910000  1
  H  H89  1  0.74980000  0.68880000  0.16090000  1
  H  H90  1  0.74885000  0.25115000  0.86670000  1
  H  H91  1  0.74885000  0.25115000  0.63330000  1
  H  H92  1  0.74885000  0.49770000  0.86670000  1
  H  H93  1  0.74885000  0.49770000  0.63330000  1
  H  H94  1  0.70370000  0.00760000  0.37590000  1
  H  H95  1  0.70370000  0.00760000  0.12410000  1
  H  H96  1  0.70370000  0.69610000  0.37590000  1
  H  H97  1  0.70370000  0.69610000  0.12410000  1
  H  H98  1  0.69680000  0.06130000  0.88550000  1
  H  H99  1  0.69680000  0.06130000  0.61450000  1
  H  H100  1  0.69680000  0.63550000  0.88550000  1
  H  H101  1  0.69680000  0.63550000  0.61450000  1
  H  H102  1  0.69610000  0.70370000  0.87590000  1
  H  H103  1  0.69610000  0.70370000  0.62410000  1
  H  H104  1  0.69610000  0.99240000  0.87590000  1
  H  H105  1  0.69610000  0.99240000  0.62410000  1
  H  H106  1  0.68880000  0.74980000  0.83910000  1
  H  H107  1  0.68880000  0.74980000  0.66090000  1
  H  H108  1  0.68880000  0.93900000  0.83910000  1
  H  H109  1  0.68880000  0.93900000  0.66090000  1
  H  H110  1  0.67290000  0.83645000  0.47800000  1
  H  H111  1  0.67290000  0.83645000  0.02200000  1
  H  H112  1  0.66250000  0.04520000  0.27880000  1
  H  H113  1  0.66250000  0.04520000  0.22120000  1
  H  H114  1  0.66250000  0.61730000  0.27880000  1
  H  H115  1  0.66250000  0.61730000  0.22120000  1
  H  H116  1  0.65620000  0.10110000  0.32930000  1
  H  H117  1  0.65620000  0.10110000  0.17070000  1
  H  H118  1  0.65620000  0.55510000  0.32930000  1
  H  H119  1  0.65620000  0.55510000  0.17070000  1
  H  H120  1  0.64480000  0.09910000  0.95570000  1
  H  H121  1  0.64480000  0.09910000  0.54430000  1
  H  H122  1  0.64480000  0.54570000  0.95570000  1
  H  H123  1  0.64480000  0.54570000  0.54430000  1
  H  H124  1  0.63550000  0.69680000  0.38550000  1
  H  H125  1  0.63550000  0.69680000  0.11450000  1
  H  H126  1  0.63550000  0.93870000  0.38550000  1
  H  H127  1  0.63550000  0.93870000  0.11450000  1
  H  H128  1  0.61730000  0.66250000  0.77880000  1
  H  H129  1  0.61730000  0.66250000  0.72120000  1
  H  H130  1  0.61730000  0.95480000  0.77880000  1
  H  H131  1  0.61730000  0.95480000  0.72120000  1
  H  H132  1  0.61700000  0.77220000  0.86500000  1
  H  H133  1  0.61700000  0.77220000  0.63500000  1
  H  H134  1  0.61700000  0.84480000  0.86500000  1
  H  H135  1  0.61700000  0.84480000  0.63500000  1
  H  H136  1  0.61010000  0.04760000  0.36610000  1
  H  H137  1  0.61010000  0.04760000  0.13390000  1
  H  H138  1  0.61010000  0.56250000  0.36610000  1
  H  H139  1  0.61010000  0.56250000  0.13390000  1
  H  H140  1  0.59720000  0.02630000  0.41810000  1
  H  H141  1  0.59720000  0.02630000  0.08190000  1
  H  H142  1  0.59720000  0.57090000  0.41810000  1
  H  H143  1  0.59720000  0.57090000  0.08190000  1
  H  H144  1  0.57090000  0.59720000  0.91810000  1
  H  H145  1  0.57090000  0.59720000  0.58190000  1
  H  H146  1  0.57090000  0.97370000  0.91810000  1
  H  H147  1  0.57090000  0.97370000  0.58190000  1
  H  H148  1  0.56250000  0.61010000  0.86610000  1
  H  H149  1  0.56250000  0.61010000  0.63390000  1
  H  H150  1  0.56250000  0.95240000  0.86610000  1
  H  H151  1  0.56250000  0.95240000  0.63390000  1
  H  H152  1  0.55510000  0.65620000  0.82930000  1
  H  H153  1  0.55510000  0.65620000  0.67070000  1
  H  H154  1  0.55510000  0.89890000  0.82930000  1
  H  H155  1  0.55510000  0.89890000  0.67070000  1
  H  H156  1  0.54570000  0.64480000  0.45570000  1
  H  H157  1  0.54570000  0.64480000  0.04430000  1
  H  H158  1  0.54570000  0.90090000  0.45570000  1
  H  H159  1  0.54570000  0.90090000  0.04430000  1
  H  H160  1  0.50230000  0.25115000  0.86670000  1
  H  H161  1  0.50230000  0.25115000  0.63330000  1
  H  H162  1  0.49770000  0.74885000  0.36670000  1
  H  H163  1  0.49770000  0.74885000  0.13330000  1
  H  H164  1  0.45430000  0.09910000  0.95570000  1
  H  H165  1  0.45430000  0.09910000  0.54430000  1
  H  H166  1  0.45430000  0.35520000  0.95570000  1
  H  H167  1  0.45430000  0.35520000  0.54430000  1
  H  H168  1  0.44490000  0.10110000  0.32930000  1
  H  H169  1  0.44490000  0.10110000  0.17070000  1
  H  H170  1  0.44490000  0.34380000  0.32930000  1
  H  H171  1  0.44490000  0.34380000  0.17070000  1
  H  H172  1  0.43750000  0.04760000  0.36610000  1
  H  H173  1  0.43750000  0.04760000  0.13390000  1
  H  H174  1  0.43750000  0.38990000  0.36610000  1
  H  H175  1  0.43750000  0.38990000  0.13390000  1
  H  H176  1  0.42910000  0.02630000  0.41810000  1
  H  H177  1  0.42910000  0.02630000  0.08190000  1
  H  H178  1  0.42910000  0.40280000  0.41810000  1
  H  H179  1  0.42910000  0.40280000  0.08190000  1
  H  H180  1  0.40280000  0.42910000  0.91810000  1
  H  H181  1  0.40280000  0.42910000  0.58190000  1
  H  H182  1  0.40280000  0.97370000  0.91810000  1
  H  H183  1  0.40280000  0.97370000  0.58190000  1
  H  H184  1  0.38990000  0.43750000  0.86610000  1
  H  H185  1  0.38990000  0.43750000  0.63390000  1
  H  H186  1  0.38990000  0.95240000  0.86610000  1
  H  H187  1  0.38990000  0.95240000  0.63390000  1
  H  H188  1  0.38300000  0.15520000  0.36500000  1
  H  H189  1  0.38300000  0.15520000  0.13500000  1
  H  H190  1  0.38300000  0.22780000  0.36500000  1
  H  H191  1  0.38300000  0.22780000  0.13500000  1
  H  H192  1  0.38270000  0.04520000  0.27880000  1
  H  H193  1  0.38270000  0.04520000  0.22120000  1
  H  H194  1  0.38270000  0.33750000  0.27880000  1
  H  H195  1  0.38270000  0.33750000  0.22120000  1
  H  H196  1  0.36450000  0.06130000  0.88550000  1
  H  H197  1  0.36450000  0.06130000  0.61450000  1
  H  H198  1  0.36450000  0.30320000  0.88550000  1
  H  H199  1  0.36450000  0.30320000  0.61450000  1
  H  H200  1  0.35520000  0.45430000  0.45570000  1
  H  H201  1  0.35520000  0.45430000  0.04430000  1
  H  H202  1  0.35520000  0.90090000  0.45570000  1
  H  H203  1  0.35520000  0.90090000  0.04430000  1
  H  H204  1  0.34380000  0.44490000  0.82930000  1
  H  H205  1  0.34380000  0.44490000  0.67070000  1
  H  H206  1  0.34380000  0.89890000  0.82930000  1
  H  H207  1  0.34380000  0.89890000  0.67070000  1
  H  H208  1  0.33750000  0.38270000  0.77880000  1
  H  H209  1  0.33750000  0.38270000  0.72120000  1
  H  H210  1  0.33750000  0.95480000  0.77880000  1
  H  H211  1  0.33750000  0.95480000  0.72120000  1
  H  H212  1  0.32710000  0.16355000  0.97800000  1
  H  H213  1  0.32710000  0.16355000  0.52200000  1
  H  H214  1  0.31120000  0.06100000  0.33910000  1
  H  H215  1  0.31120000  0.06100000  0.16090000  1
  H  H216  1  0.31120000  0.25020000  0.33910000  1
  H  H217  1  0.31120000  0.25020000  0.16090000  1
  H  H218  1  0.30390000  0.00760000  0.37590000  1
  H  H219  1  0.30390000  0.00760000  0.12410000  1
  H  H220  1  0.30390000  0.29630000  0.37590000  1
  H  H221  1  0.30390000  0.29630000  0.12410000  1
  H  H222  1  0.30320000  0.36450000  0.38550000  1
  H  H223  1  0.30320000  0.36450000  0.11450000  1
  H  H224  1  0.30320000  0.93870000  0.38550000  1
  H  H225  1  0.30320000  0.93870000  0.11450000  1
  H  H226  1  0.29630000  0.30390000  0.87590000  1
  H  H227  1  0.29630000  0.30390000  0.62410000  1
  H  H228  1  0.29630000  0.99240000  0.87590000  1
  H  H229  1  0.29630000  0.99240000  0.62410000  1
  H  H230  1  0.25115000  0.50230000  0.36670000  1
  H  H231  1  0.25115000  0.50230000  0.13330000  1
  H  H232  1  0.25115000  0.74885000  0.36670000  1
  H  H233  1  0.25115000  0.74885000  0.13330000  1
  H  H234  1  0.25020000  0.31120000  0.83910000  1
  H  H235  1  0.25020000  0.31120000  0.66090000  1
  H  H236  1  0.25020000  0.93900000  0.83910000  1
  H  H237  1  0.25020000  0.93900000  0.66090000  1
  H  H238  1  0.22780000  0.38300000  0.86500000  1
  H  H239  1  0.22780000  0.38300000  0.63500000  1
  H  H240  1  0.22780000  0.84480000  0.86500000  1
  H  H241  1  0.22780000  0.84480000  0.63500000  1
  H  H242  1  0.16355000  0.32710000  0.47800000  1
  H  H243  1  0.16355000  0.32710000  0.02200000  1
  H  H244  1  0.16355000  0.83645000  0.47800000  1
  H  H245  1  0.16355000  0.83645000  0.02200000  1
  H  H246  1  0.15520000  0.38300000  0.86500000  1
  H  H247  1  0.15520000  0.38300000  0.63500000  1
  H  H248  1  0.15520000  0.77220000  0.86500000  1
  H  H249  1  0.15520000  0.77220000  0.63500000  1
  H  H250  1  0.10110000  0.44490000  0.82930000  1
  H  H251  1  0.10110000  0.44490000  0.67070000  1
  H  H252  1  0.10110000  0.65620000  0.82930000  1
  H  H253  1  0.10110000  0.65620000  0.67070000  1
  H  H254  1  0.09910000  0.45430000  0.45570000  1
  H  H255  1  0.09910000  0.45430000  0.04430000  1
  H  H256  1  0.09910000  0.64480000  0.45570000  1
  H  H257  1  0.09910000  0.64480000  0.04430000  1
  H  H258  1  0.06130000  0.36450000  0.38550000  1
  H  H259  1  0.06130000  0.36450000  0.11450000  1
  H  H260  1  0.06130000  0.69680000  0.38550000  1
  H  H261  1  0.06130000  0.69680000  0.11450000  1
  H  H262  1  0.06100000  0.31120000  0.83910000  1
  H  H263  1  0.06100000  0.31120000  0.66090000  1
  H  H264  1  0.06100000  0.74980000  0.83910000  1
  H  H265  1  0.06100000  0.74980000  0.66090000  1
  H  H266  1  0.04760000  0.43750000  0.86610000  1
  H  H267  1  0.04760000  0.43750000  0.63390000  1
  H  H268  1  0.04760000  0.61010000  0.86610000  1
  H  H269  1  0.04760000  0.61010000  0.63390000  1
  H  H270  1  0.04520000  0.38270000  0.77880000  1
  H  H271  1  0.04520000  0.38270000  0.72120000  1
  H  H272  1  0.04520000  0.66250000  0.77880000  1
  H  H273  1  0.04520000  0.66250000  0.72120000  1
  H  H274  1  0.02630000  0.42910000  0.91810000  1
  H  H275  1  0.02630000  0.42910000  0.58190000  1
  H  H276  1  0.02630000  0.59720000  0.91810000  1
  H  H277  1  0.02630000  0.59720000  0.58190000  1
  H  H278  1  0.00760000  0.30390000  0.87590000  1
  H  H279  1  0.00760000  0.30390000  0.62410000  1
  H  H280  1  0.00760000  0.70370000  0.87590000  1
  H  H281  1  0.00760000  0.70370000  0.62410000  1
  C  C282  1  0.99770000  0.40230000  0.91879000  1
  C  C283  1  0.99770000  0.40230000  0.58121000  1
  C  C284  1  0.99770000  0.59540000  0.91879000  1
  C  C285  1  0.99770000  0.59540000  0.58121000  1
  C  C286  1  0.98779000  0.36690000  0.89834000  1
  C  C287  1  0.98779000  0.36690000  0.60166000  1
  C  C288  1  0.98779000  0.62089000  0.89834000  1
  C  C289  1  0.98779000  0.62089000  0.60166000  1
  C  C290  1  0.97760000  0.34760000  0.37453000  1
  C  C291  1  0.97760000  0.34760000  0.12547000  1
  C  C292  1  0.97760000  0.63000000  0.37453000  1
  C  C293  1  0.97760000  0.63000000  0.12547000  1
  C  C294  1  0.97660000  0.43550000  0.96310000  1
  C  C295  1  0.97660000  0.43550000  0.53690000  1
  C  C296  1  0.97660000  0.54110000  0.96310000  1
  C  C297  1  0.97660000  0.54110000  0.53690000  1
  C  C298  1  0.97360000  0.30590000  0.36649000  1
  C  C299  1  0.97360000  0.30590000  0.13351000  1
  C  C300  1  0.97360000  0.66770000  0.36649000  1
  C  C301  1  0.97360000  0.66770000  0.13351000  1
  C  C302  1  0.96519000  0.39790000  0.94024000  1
  C  C303  1  0.96519000  0.39790000  0.55976000  1
  C  C304  1  0.96519000  0.56729000  0.94024000  1
  C  C305  1  0.96519000  0.56729000  0.55976000  1
  C  C306  1  0.94980000  0.36180000  0.36060000  1
  C  C307  1  0.94980000  0.36180000  0.13940000  1
  C  C308  1  0.94980000  0.58800000  0.36060000  1
  C  C309  1  0.94980000  0.58800000  0.13940000  1
  C  C310  1  0.94540000  0.32710000  0.89933000  1
  C  C311  1  0.94540000  0.32710000  0.60067000  1
  C  C312  1  0.94540000  0.61830000  0.89933000  1
  C  C313  1  0.94540000  0.61830000  0.60067000  1
  C  C314  1  0.94169000  0.27839000  0.34457000  1
  C  C315  1  0.94169000  0.27839000  0.15543000  1
  C  C316  1  0.94169000  0.66330000  0.34457000  1
  C  C317  1  0.94169000  0.66330000  0.15543000  1
  C  C318  1  0.93280000  0.31560000  0.26563000  1
  C  C319  1  0.93280000  0.31560000  0.23437000  1
  C  C320  1  0.93280000  0.61720000  0.26563000  1
  C  C321  1  0.93280000  0.61720000  0.23437000  1
  C  C322  1  0.92287000  0.35820000  0.94123000  1
  C  C323  1  0.92287000  0.35820000  0.55877000  1
  C  C324  1  0.92287000  0.56467000  0.94123000  1
  C  C325  1  0.92287000  0.56467000  0.55877000  1
  C  C326  1  0.91780000  0.33420000  0.33871000  1
  C  C327  1  0.91780000  0.33420000  0.16129000  1
  C  C328  1  0.91780000  0.58360000  0.33871000  1
  C  C329  1  0.91780000  0.58360000  0.16129000  1
  C  C330  1  0.91380000  0.29260000  0.33068000  1
  C  C331  1  0.91380000  0.29260000  0.16932000  1
  C  C332  1  0.91380000  0.62120000  0.33068000  1
  C  C333  1  0.91380000  0.62120000  0.16932000  1
  C  C334  1  0.91300000  0.32280000  0.92078000  1
  C  C335  1  0.91300000  0.32280000  0.57922000  1
  C  C336  1  0.91300000  0.59020000  0.92078000  1
  C  C337  1  0.91300000  0.59020000  0.57922000  1
  C  C338  1  0.89130000  0.27430000  0.27410000  1
  C  C339  1  0.89130000  0.27430000  0.22590000  1
  C  C340  1  0.89130000  0.61700000  0.27410000  1
  C  C341  1  0.89130000  0.61700000  0.22590000  1
  C  C342  1  0.87940000  0.26200000  0.30490000  1
  C  C343  1  0.87940000  0.26200000  0.19510000  1
  C  C344  1  0.87940000  0.61740000  0.30490000  1
  C  C345  1  0.87940000  0.61740000  0.19510000  1
  C  C346  1  0.87160000  0.28250000  0.92180000  1
  C  C347  1  0.87160000  0.28250000  0.57820000  1
  C  C348  1  0.87160000  0.58910000  0.92180000  1
  C  C349  1  0.87160000  0.58910000  0.57820000  1
  C  C350  1  0.84060000  0.22460000  0.31500000  1
  C  C351  1  0.84060000  0.22460000  0.18500000  1
  C  C352  1  0.84060000  0.61600000  0.31500000  1
  C  C353  1  0.84060000  0.61600000  0.18500000  1
  C  C354  1  0.82810000  0.21140000  0.34756000  1
  C  C355  1  0.82810000  0.21140000  0.15244000  1
  C  C356  1  0.82810000  0.61670000  0.34756000  1
  C  C357  1  0.82810000  0.61670000  0.15244000  1
  C  C358  1  0.82455000  0.17545000  0.96340000  1
  C  C359  1  0.82455000  0.17545000  0.53660000  1
  C  C360  1  0.82455000  0.64910000  0.96340000  1
  C  C361  1  0.82455000  0.64910000  0.53660000  1
  C  C362  1  0.78860000  0.17190000  0.34756000  1
  C  C363  1  0.78860000  0.17190000  0.15244000  1
  C  C364  1  0.78860000  0.61670000  0.34756000  1
  C  C365  1  0.78860000  0.61670000  0.15244000  1
  C  C366  1  0.77540000  0.15940000  0.31500000  1
  C  C367  1  0.77540000  0.15940000  0.18500000  1
  C  C368  1  0.77540000  0.61600000  0.31500000  1
  C  C369  1  0.77540000  0.61600000  0.18500000  1
  C  C370  1  0.76055000  0.23945000  0.88160000  1
  C  C371  1  0.76055000  0.23945000  0.61840000  1
  C  C372  1  0.76055000  0.52110000  0.88160000  1
  C  C373  1  0.76055000  0.52110000  0.61840000  1
  C  C374  1  0.73800000  0.12060000  0.30490000  1
  C  C375  1  0.73800000  0.12060000  0.19510000  1
  C  C376  1  0.73800000  0.61740000  0.30490000  1
  C  C377  1  0.73800000  0.61740000  0.19510000  1
  C  C378  1  0.72570000  0.10870000  0.27410000  1
  C  C379  1  0.72570000  0.10870000  0.22590000  1
  C  C380  1  0.72570000  0.61700000  0.27410000  1
  C  C381  1  0.72570000  0.61700000  0.22590000  1
  C  C382  1  0.72161000  0.05831000  0.34457000  1
  C  C383  1  0.72161000  0.05831000  0.15543000  1
  C  C384  1  0.72161000  0.66330000  0.34457000  1
  C  C385  1  0.72161000  0.66330000  0.15543000  1
  C  C386  1  0.71750000  0.12840000  0.92180000  1
  C  C387  1  0.71750000  0.12840000  0.57820000  1
  C  C388  1  0.71750000  0.58910000  0.92180000  1
  C  C389  1  0.71750000  0.58910000  0.57820000  1
  C  C390  1  0.70740000  0.08620000  0.33068000  1
  C  C391  1  0.70740000  0.08620000  0.16932000  1
  C  C392  1  0.70740000  0.62120000  0.33068000  1
  C  C393  1  0.70740000  0.62120000  0.16932000  1
  C  C394  1  0.69410000  0.02640000  0.36649000  1
  C  C395  1  0.69410000  0.02640000  0.13351000  1
  C  C396  1  0.69410000  0.66770000  0.36649000  1
  C  C397  1  0.69410000  0.66770000  0.13351000  1
  C  C398  1  0.68440000  0.06720000  0.26563000  1
  C  C399  1  0.68440000  0.06720000  0.23437000  1
  C  C400  1  0.68440000  0.61720000  0.26563000  1
  C  C401  1  0.68440000  0.61720000  0.23437000  1
  C  C402  1  0.67720000  0.08700000  0.92078000  1
  C  C403  1  0.67720000  0.08700000  0.57922000  1
  C  C404  1  0.67720000  0.59020000  0.92078000  1
  C  C405  1  0.67720000  0.59020000  0.57922000  1
  C  C406  1  0.67290000  0.05460000  0.89933000  1
  C  C407  1  0.67290000  0.05460000  0.60067000  1
  C  C408  1  0.67290000  0.61830000  0.89933000  1
  C  C409  1  0.67290000  0.61830000  0.60067000  1
  C  C410  1  0.66770000  0.69410000  0.86649000  1
  C  C411  1  0.66770000  0.69410000  0.63351000  1
  C  C412  1  0.66770000  0.97360000  0.86649000  1
  C  C413  1  0.66770000  0.97360000  0.63351000  1
  C  C414  1  0.66580000  0.08220000  0.33871000  1
  C  C415  1  0.66580000  0.08220000  0.16129000  1
  C  C416  1  0.66580000  0.58360000  0.33871000  1
  C  C417  1  0.66580000  0.58360000  0.16129000  1
  C  C418  1  0.66330000  0.72161000  0.84457000  1
  C  C419  1  0.66330000  0.72161000  0.65543000  1
  C  C420  1  0.66330000  0.94169000  0.84457000  1
  C  C421  1  0.66330000  0.94169000  0.65543000  1
  C  C422  1  0.65240000  0.02240000  0.37453000  1
  C  C423  1  0.65240000  0.02240000  0.12547000  1
  C  C424  1  0.65240000  0.63000000  0.37453000  1
  C  C425  1  0.65240000  0.63000000  0.12547000  1
  C  C426  1  0.64910000  0.82455000  0.46340000  1
  C  C427  1  0.64910000  0.82455000  0.03660000  1
  C  C428  1  0.64180000  0.07713000  0.94123000  1
  C  C429  1  0.64180000  0.07713000  0.55877000  1
  C  C430  1  0.64180000  0.56467000  0.94123000  1
  C  C431  1  0.64180000  0.56467000  0.55877000  1
  C  C432  1  0.63820000  0.05020000  0.36060000  1
  C  C433  1  0.63820000  0.05020000  0.13940000  1
  C  C434  1  0.63820000  0.58800000  0.36060000  1
  C  C435  1  0.63820000  0.58800000  0.13940000  1
  C  C436  1  0.63310000  0.01221000  0.89834000  1
  C  C437  1  0.63310000  0.01221000  0.60166000  1
  C  C438  1  0.63310000  0.62089000  0.89834000  1
  C  C439  1  0.63310000  0.62089000  0.60166000  1
  C  C440  1  0.63000000  0.65240000  0.87453000  1
  C  C441  1  0.63000000  0.65240000  0.62547000  1
  C  C442  1  0.63000000  0.97760000  0.87453000  1
  C  C443  1  0.63000000  0.97760000  0.62547000  1
  C  C444  1  0.62120000  0.70740000  0.83068000  1
  C  C445  1  0.62120000  0.70740000  0.66932000  1
  C  C446  1  0.62120000  0.91380000  0.83068000  1
  C  C447  1  0.62120000  0.91380000  0.66932000  1
  C  C448  1  0.62089000  0.63310000  0.39834000  1
  C  C449  1  0.62089000  0.63310000  0.10166000  1
  C  C450  1  0.62089000  0.98779000  0.39834000  1
  C  C451  1  0.62089000  0.98779000  0.10166000  1
  C  C452  1  0.61830000  0.67290000  0.39933000  1
  C  C453  1  0.61830000  0.67290000  0.10067000  1
  C  C454  1  0.61830000  0.94540000  0.39933000  1
  C  C455  1  0.61830000  0.94540000  0.10067000  1
  C  C456  1  0.61740000  0.73800000  0.80490000  1
  C  C457  1  0.61740000  0.73800000  0.69510000  1
  C  C458  1  0.61740000  0.87940000  0.80490000  1
  C  C459  1  0.61740000  0.87940000  0.69510000  1
  C  C460  1  0.61720000  0.68440000  0.76563000  1
  C  C461  1  0.61720000  0.68440000  0.73437000  1
  C  C462  1  0.61720000  0.93280000  0.76563000  1
  C  C463  1  0.61720000  0.93280000  0.73437000  1
  C  C464  1  0.61700000  0.72570000  0.77410000  1
  C  C465  1  0.61700000  0.72570000  0.72590000  1
  C  C466  1  0.61700000  0.89130000  0.77410000  1
  C  C467  1  0.61700000  0.89130000  0.72590000  1
  C  C468  1  0.61670000  0.78860000  0.84756000  1
  C  C469  1  0.61670000  0.78860000  0.65244000  1
  C  C470  1  0.61670000  0.82810000  0.84756000  1
  C  C471  1  0.61670000  0.82810000  0.65244000  1
  C  C472  1  0.61600000  0.77540000  0.81500000  1
  C  C473  1  0.61600000  0.77540000  0.68500000  1
  C  C474  1  0.61600000  0.84060000  0.81500000  1
  C  C475  1  0.61600000  0.84060000  0.68500000  1
  C  C476  1  0.60210000  0.03481000  0.94024000  1
  C  C477  1  0.60210000  0.03481000  0.55976000  1
  C  C478  1  0.60210000  0.56729000  0.94024000  1
  C  C479  1  0.60210000  0.56729000  0.55976000  1
  C  C480  1  0.59770000  0.00230000  0.91879000  1
  C  C481  1  0.59770000  0.00230000  0.58121000  1
  C  C482  1  0.59770000  0.59540000  0.91879000  1
  C  C483  1  0.59770000  0.59540000  0.58121000  1
  C  C484  1  0.59540000  0.59770000  0.41879000  1
  C  C485  1  0.59540000  0.59770000  0.08121000  1
  C  C486  1  0.59540000  0.99770000  0.41879000  1
  C  C487  1  0.59540000  0.99770000  0.08121000  1
  C  C488  1  0.59020000  0.67720000  0.42078000  1
  C  C489  1  0.59020000  0.67720000  0.07922000  1
  C  C490  1  0.59020000  0.91300000  0.42078000  1
  C  C491  1  0.59020000  0.91300000  0.07922000  1
  C  C492  1  0.58910000  0.71750000  0.42180000  1
  C  C493  1  0.58910000  0.71750000  0.07820000  1
  C  C494  1  0.58910000  0.87160000  0.42180000  1
  C  C495  1  0.58910000  0.87160000  0.07820000  1
  C  C496  1  0.58800000  0.63820000  0.86060000  1
  C  C497  1  0.58800000  0.63820000  0.63940000  1
  C  C498  1  0.58800000  0.94980000  0.86060000  1
  C  C499  1  0.58800000  0.94980000  0.63940000  1
  C  C500  1  0.58360000  0.66580000  0.83871000  1
  C  C501  1  0.58360000  0.66580000  0.66129000  1
  C  C502  1  0.58360000  0.91780000  0.83871000  1
  C  C503  1  0.58360000  0.91780000  0.66129000  1
  C  C504  1  0.56729000  0.60210000  0.44024000  1
  C  C505  1  0.56729000  0.60210000  0.05976000  1
  C  C506  1  0.56729000  0.96519000  0.44024000  1
  C  C507  1  0.56729000  0.96519000  0.05976000  1
  C  C508  1  0.56467000  0.64180000  0.44123000  1
  C  C509  1  0.56467000  0.64180000  0.05877000  1
  C  C510  1  0.56467000  0.92287000  0.44123000  1
  C  C511  1  0.56467000  0.92287000  0.05877000  1
  C  C512  1  0.56450000  0.02340000  0.96310000  1
  C  C513  1  0.56450000  0.02340000  0.53690000  1
  C  C514  1  0.56450000  0.54110000  0.96310000  1
  C  C515  1  0.56450000  0.54110000  0.53690000  1
  C  C516  1  0.54110000  0.56450000  0.46310000  1
  C  C517  1  0.54110000  0.56450000  0.03690000  1
  C  C518  1  0.54110000  0.97660000  0.46310000  1
  C  C519  1  0.54110000  0.97660000  0.03690000  1
  C  C520  1  0.52110000  0.76055000  0.38160000  1
  C  C521  1  0.52110000  0.76055000  0.11840000  1
  C  C522  1  0.47890000  0.23945000  0.88160000  1
  C  C523  1  0.47890000  0.23945000  0.61840000  1
  C  C524  1  0.45890000  0.02340000  0.96310000  1
  C  C525  1  0.45890000  0.02340000  0.53690000  1
  C  C526  1  0.45890000  0.43550000  0.96310000  1
  C  C527  1  0.45890000  0.43550000  0.53690000  1
  C  C528  1  0.43550000  0.45890000  0.46310000  1
  C  C529  1  0.43550000  0.45890000  0.03690000  1
  C  C530  1  0.43550000  0.97660000  0.46310000  1
  C  C531  1  0.43550000  0.97660000  0.03690000  1
  C  C532  1  0.43533000  0.07713000  0.94123000  1
  C  C533  1  0.43533000  0.07713000  0.55877000  1
  C  C534  1  0.43533000  0.35820000  0.94123000  1
  C  C535  1  0.43533000  0.35820000  0.55877000  1
  C  C536  1  0.43271000  0.03481000  0.94024000  1
  C  C537  1  0.43271000  0.03481000  0.55976000  1
  C  C538  1  0.43271000  0.39790000  0.94024000  1
  C  C539  1  0.43271000  0.39790000  0.55976000  1
  C  C540  1  0.41640000  0.08220000  0.33871000  1
  C  C541  1  0.41640000  0.08220000  0.16129000  1
  C  C542  1  0.41640000  0.33420000  0.33871000  1
  C  C543  1  0.41640000  0.33420000  0.16129000  1
  C  C544  1  0.41200000  0.05020000  0.36060000  1
  C  C545  1  0.41200000  0.05020000  0.13940000  1
  C  C546  1  0.41200000  0.36180000  0.36060000  1
  C  C547  1  0.41200000  0.36180000  0.13940000  1
  C  C548  1  0.41090000  0.12840000  0.92180000  1
  C  C549  1  0.41090000  0.12840000  0.57820000  1
  C  C550  1  0.41090000  0.28250000  0.92180000  1
  C  C551  1  0.41090000  0.28250000  0.57820000  1
  C  C552  1  0.40980000  0.08700000  0.92078000  1
  C  C553  1  0.40980000  0.08700000  0.57922000  1
  C  C554  1  0.40980000  0.32280000  0.92078000  1
  C  C555  1  0.40980000  0.32280000  0.57922000  1
  C  C556  1  0.40460000  0.00230000  0.91879000  1
  C  C557  1  0.40460000  0.00230000  0.58121000  1
  C  C558  1  0.40460000  0.40230000  0.91879000  1
  C  C559  1  0.40460000  0.40230000  0.58121000  1
  C  C560  1  0.40230000  0.40460000  0.41879000  1
  C  C561  1  0.40230000  0.40460000  0.08121000  1
  C  C562  1  0.40230000  0.99770000  0.41879000  1
  C  C563  1  0.40230000  0.99770000  0.08121000  1
  C  C564  1  0.39790000  0.43271000  0.44024000  1
  C  C565  1  0.39790000  0.43271000  0.05976000  1
  C  C566  1  0.39790000  0.96519000  0.44024000  1
  C  C567  1  0.39790000  0.96519000  0.05976000  1
  C  C568  1  0.38400000  0.15940000  0.31500000  1
  C  C569  1  0.38400000  0.15940000  0.18500000  1
  C  C570  1  0.38400000  0.22460000  0.31500000  1
  C  C571  1  0.38400000  0.22460000  0.18500000  1
  C  C572  1  0.38330000  0.17190000  0.34756000  1
  C  C573  1  0.38330000  0.17190000  0.15244000  1
  C  C574  1  0.38330000  0.21140000  0.34756000  1
  C  C575  1  0.38330000  0.21140000  0.15244000  1
  C  C576  1  0.38300000  0.10870000  0.27410000  1
  C  C577  1  0.38300000  0.10870000  0.22590000  1
  C  C578  1  0.38300000  0.27430000  0.27410000  1
  C  C579  1  0.38300000  0.27430000  0.22590000  1
  C  C580  1  0.38280000  0.06720000  0.26563000  1
  C  C581  1  0.38280000  0.06720000  0.23437000  1
  C  C582  1  0.38280000  0.31560000  0.26563000  1
  C  C583  1  0.38280000  0.31560000  0.23437000  1
  C  C584  1  0.38260000  0.12060000  0.30490000  1
  C  C585  1  0.38260000  0.12060000  0.19510000  1
  C  C586  1  0.38260000  0.26200000  0.30490000  1
  C  C587  1  0.38260000  0.26200000  0.19510000  1
  C  C588  1  0.38170000  0.05460000  0.89933000  1
  C  C589  1  0.38170000  0.05460000  0.60067000  1
  C  C590  1  0.38170000  0.32710000  0.89933000  1
  C  C591  1  0.38170000  0.32710000  0.60067000  1
  C  C592  1  0.37911000  0.01221000  0.89834000  1
  C  C593  1  0.37911000  0.01221000  0.60166000  1
  C  C594  1  0.37911000  0.36690000  0.89834000  1
  C  C595  1  0.37911000  0.36690000  0.60166000  1
  C  C596  1  0.37880000  0.08620000  0.33068000  1
  C  C597  1  0.37880000  0.08620000  0.16932000  1
  C  C598  1  0.37880000  0.29260000  0.33068000  1
  C  C599  1  0.37880000  0.29260000  0.16932000  1
  C  C600  1  0.37000000  0.02240000  0.37453000  1
  C  C601  1  0.37000000  0.02240000  0.12547000  1
  C  C602  1  0.37000000  0.34760000  0.37453000  1
  C  C603  1  0.37000000  0.34760000  0.12547000  1
  C  C604  1  0.36690000  0.37911000  0.39834000  1
  C  C605  1  0.36690000  0.37911000  0.10166000  1
  C  C606  1  0.36690000  0.98779000  0.39834000  1
  C  C607  1  0.36690000  0.98779000  0.10166000  1
  C  C608  1  0.36180000  0.41200000  0.86060000  1
  C  C609  1  0.36180000  0.41200000  0.63940000  1
  C  C610  1  0.36180000  0.94980000  0.86060000  1
  C  C611  1  0.36180000  0.94980000  0.63940000  1
  C  C612  1  0.35820000  0.43533000  0.44123000  1
  C  C613  1  0.35820000  0.43533000  0.05877000  1
  C  C614  1  0.35820000  0.92287000  0.44123000  1
  C  C615  1  0.35820000  0.92287000  0.05877000  1
  C  C616  1  0.35090000  0.17545000  0.96340000  1
  C  C617  1  0.35090000  0.17545000  0.53660000  1
  C  C618  1  0.34760000  0.37000000  0.87453000  1
  C  C619  1  0.34760000  0.37000000  0.62547000  1
  C  C620  1  0.34760000  0.97760000  0.87453000  1
  C  C621  1  0.34760000  0.97760000  0.62547000  1
  C  C622  1  0.33670000  0.05831000  0.34457000  1
  C  C623  1  0.33670000  0.05831000  0.15543000  1
  C  C624  1  0.33670000  0.27839000  0.34457000  1
  C  C625  1  0.33670000  0.27839000  0.15543000  1
  C  C626  1  0.33420000  0.41640000  0.83871000  1
  C  C627  1  0.33420000  0.41640000  0.66129000  1
  C  C628  1  0.33420000  0.91780000  0.83871000  1
  C  C629  1  0.33420000  0.91780000  0.66129000  1
  C  C630  1  0.33230000  0.02640000  0.36649000  1
  C  C631  1  0.33230000  0.02640000  0.13351000  1
  C  C632  1  0.33230000  0.30590000  0.36649000  1
  C  C633  1  0.33230000  0.30590000  0.13351000  1
  C  C634  1  0.32710000  0.38170000  0.39933000  1
  C  C635  1  0.32710000  0.38170000  0.10067000  1
  C  C636  1  0.32710000  0.94540000  0.39933000  1
  C  C637  1  0.32710000  0.94540000  0.10067000  1
  C  C638  1  0.32280000  0.40980000  0.42078000  1
  C  C639  1  0.32280000  0.40980000  0.07922000  1
  C  C640  1  0.32280000  0.91300000  0.42078000  1
  C  C641  1  0.32280000  0.91300000  0.07922000  1
  C  C642  1  0.31560000  0.38280000  0.76563000  1
  C  C643  1  0.31560000  0.38280000  0.73437000  1
  C  C644  1  0.31560000  0.93280000  0.76563000  1
  C  C645  1  0.31560000  0.93280000  0.73437000  1
  C  C646  1  0.30590000  0.33230000  0.86649000  1
  C  C647  1  0.30590000  0.33230000  0.63351000  1
  C  C648  1  0.30590000  0.97360000  0.86649000  1
  C  C649  1  0.30590000  0.97360000  0.63351000  1
  C  C650  1  0.29260000  0.37880000  0.83068000  1
  C  C651  1  0.29260000  0.37880000  0.66932000  1
  C  C652  1  0.29260000  0.91380000  0.83068000  1
  C  C653  1  0.29260000  0.91380000  0.66932000  1
  C  C654  1  0.28250000  0.41090000  0.42180000  1
  C  C655  1  0.28250000  0.41090000  0.07820000  1
  C  C656  1  0.28250000  0.87160000  0.42180000  1
  C  C657  1  0.28250000  0.87160000  0.07820000  1
  C  C658  1  0.27839000  0.33670000  0.84457000  1
  C  C659  1  0.27839000  0.33670000  0.65543000  1
  C  C660  1  0.27839000  0.94169000  0.84457000  1
  C  C661  1  0.27839000  0.94169000  0.65543000  1
  C  C662  1  0.27430000  0.38300000  0.77410000  1
  C  C663  1  0.27430000  0.38300000  0.72590000  1
  C  C664  1  0.27430000  0.89130000  0.77410000  1
  C  C665  1  0.27430000  0.89130000  0.72590000  1
  C  C666  1  0.26200000  0.38260000  0.80490000  1
  C  C667  1  0.26200000  0.38260000  0.69510000  1
  C  C668  1  0.26200000  0.87940000  0.80490000  1
  C  C669  1  0.26200000  0.87940000  0.69510000  1
  C  C670  1  0.23945000  0.47890000  0.38160000  1
  C  C671  1  0.23945000  0.47890000  0.11840000  1
  C  C672  1  0.23945000  0.76055000  0.38160000  1
  C  C673  1  0.23945000  0.76055000  0.11840000  1
  C  C674  1  0.22460000  0.38400000  0.81500000  1
  C  C675  1  0.22460000  0.38400000  0.68500000  1
  C  C676  1  0.22460000  0.84060000  0.81500000  1
  C  C677  1  0.22460000  0.84060000  0.68500000  1
  C  C678  1  0.21140000  0.38330000  0.84756000  1
  C  C679  1  0.21140000  0.38330000  0.65244000  1
  C  C680  1  0.21140000  0.82810000  0.84756000  1
  C  C681  1  0.21140000  0.82810000  0.65244000  1
  C  C682  1  0.17545000  0.35090000  0.46340000  1
  C  C683  1  0.17545000  0.35090000  0.03660000  1
  C  C684  1  0.17545000  0.82455000  0.46340000  1
  C  C685  1  0.17545000  0.82455000  0.03660000  1
  C  C686  1  0.17190000  0.38330000  0.84756000  1
  C  C687  1  0.17190000  0.38330000  0.65244000  1
  C  C688  1  0.17190000  0.78860000  0.84756000  1
  C  C689  1  0.17190000  0.78860000  0.65244000  1
  C  C690  1  0.15940000  0.38400000  0.81500000  1
  C  C691  1  0.15940000  0.38400000  0.68500000  1
  C  C692  1  0.15940000  0.77540000  0.81500000  1
  C  C693  1  0.15940000  0.77540000  0.68500000  1
  C  C694  1  0.12840000  0.41090000  0.42180000  1
  C  C695  1  0.12840000  0.41090000  0.07820000  1
  C  C696  1  0.12840000  0.71750000  0.42180000  1
  C  C697  1  0.12840000  0.71750000  0.07820000  1
  C  C698  1  0.12060000  0.38260000  0.80490000  1
  C  C699  1  0.12060000  0.38260000  0.69510000  1
  C  C700  1  0.12060000  0.73800000  0.80490000  1
  C  C701  1  0.12060000  0.73800000  0.69510000  1
  C  C702  1  0.10870000  0.38300000  0.77410000  1
  C  C703  1  0.10870000  0.38300000  0.72590000  1
  C  C704  1  0.10870000  0.72570000  0.77410000  1
  C  C705  1  0.10870000  0.72570000  0.72590000  1
  C  C706  1  0.08700000  0.40980000  0.42078000  1
  C  C707  1  0.08700000  0.40980000  0.07922000  1
  C  C708  1  0.08700000  0.67720000  0.42078000  1
  C  C709  1  0.08700000  0.67720000  0.07922000  1
  C  C710  1  0.08620000  0.37880000  0.83068000  1
  C  C711  1  0.08620000  0.37880000  0.66932000  1
  C  C712  1  0.08620000  0.70740000  0.83068000  1
  C  C713  1  0.08620000  0.70740000  0.66932000  1
  C  C714  1  0.08220000  0.41640000  0.83871000  1
  C  C715  1  0.08220000  0.41640000  0.66129000  1
  C  C716  1  0.08220000  0.66580000  0.83871000  1
  C  C717  1  0.08220000  0.66580000  0.66129000  1
  C  C718  1  0.07713000  0.43533000  0.44123000  1
  C  C719  1  0.07713000  0.43533000  0.05877000  1
  C  C720  1  0.07713000  0.64180000  0.44123000  1
  C  C721  1  0.07713000  0.64180000  0.05877000  1
  C  C722  1  0.06720000  0.38280000  0.76563000  1
  C  C723  1  0.06720000  0.38280000  0.73437000  1
  C  C724  1  0.06720000  0.68440000  0.76563000  1
  C  C725  1  0.06720000  0.68440000  0.73437000  1
  C  C726  1  0.05831000  0.33670000  0.84457000  1
  C  C727  1  0.05831000  0.33670000  0.65543000  1
  C  C728  1  0.05831000  0.72161000  0.84457000  1
  C  C729  1  0.05831000  0.72161000  0.65543000  1
  C  C730  1  0.05460000  0.38170000  0.39933000  1
  C  C731  1  0.05460000  0.38170000  0.10067000  1
  C  C732  1  0.05460000  0.67290000  0.39933000  1
  C  C733  1  0.05460000  0.67290000  0.10067000  1
  C  C734  1  0.05020000  0.41200000  0.86060000  1
  C  C735  1  0.05020000  0.41200000  0.63940000  1
  C  C736  1  0.05020000  0.63820000  0.86060000  1
  C  C737  1  0.05020000  0.63820000  0.63940000  1
  C  C738  1  0.03481000  0.43271000  0.44024000  1
  C  C739  1  0.03481000  0.43271000  0.05976000  1
  C  C740  1  0.03481000  0.60210000  0.44024000  1
  C  C741  1  0.03481000  0.60210000  0.05976000  1
  C  C742  1  0.02640000  0.33230000  0.86649000  1
  C  C743  1  0.02640000  0.33230000  0.63351000  1
  C  C744  1  0.02640000  0.69410000  0.86649000  1
  C  C745  1  0.02640000  0.69410000  0.63351000  1
  C  C746  1  0.02340000  0.45890000  0.46310000  1
  C  C747  1  0.02340000  0.45890000  0.03690000  1
  C  C748  1  0.02340000  0.56450000  0.46310000  1
  C  C749  1  0.02340000  0.56450000  0.03690000  1
  C  C750  1  0.02240000  0.37000000  0.87453000  1
  C  C751  1  0.02240000  0.37000000  0.62547000  1
  C  C752  1  0.02240000  0.65240000  0.87453000  1
  C  C753  1  0.02240000  0.65240000  0.62547000  1
  C  C754  1  0.01221000  0.37911000  0.39834000  1
  C  C755  1  0.01221000  0.37911000  0.10166000  1
  C  C756  1  0.01221000  0.63310000  0.39834000  1
  C  C757  1  0.01221000  0.63310000  0.10166000  1
  C  C758  1  0.00230000  0.40460000  0.41879000  1
  C  C759  1  0.00230000  0.40460000  0.08121000  1
  C  C760  1  0.00230000  0.59770000  0.41879000  1
  C  C761  1  0.00230000  0.59770000  0.08121000  1
  N  N762  1  0.86550000  0.25080000  0.25000000  1
  N  N763  1  0.86550000  0.61470000  0.25000000  1
  N  N764  1  0.80770000  0.19230000  0.29600000  1
  N  N765  1  0.80770000  0.19230000  0.20400000  1
  N  N766  1  0.80770000  0.61540000  0.29600000  1
  N  N767  1  0.80770000  0.61540000  0.20400000  1
  N  N768  1  0.74920000  0.13450000  0.25000000  1
  N  N769  1  0.74920000  0.61470000  0.25000000  1
  N  N770  1  0.61540000  0.80770000  0.79600000  1
  N  N771  1  0.61540000  0.80770000  0.70400000  1
  N  N772  1  0.61470000  0.74920000  0.75000000  1
  N  N773  1  0.61470000  0.86550000  0.75000000  1
  N  N774  1  0.38530000  0.13450000  0.25000000  1
  N  N775  1  0.38530000  0.25080000  0.25000000  1
  N  N776  1  0.38460000  0.19230000  0.29600000  1
  N  N777  1  0.38460000  0.19230000  0.20400000  1
  N  N778  1  0.25080000  0.38530000  0.75000000  1
  N  N779  1  0.25080000  0.86550000  0.75000000  1
  N  N780  1  0.19230000  0.38460000  0.79600000  1
  N  N781  1  0.19230000  0.38460000  0.70400000  1
  N  N782  1  0.19230000  0.80770000  0.79600000  1
  N  N783  1  0.19230000  0.80770000  0.70400000  1
  N  N784  1  0.13450000  0.38530000  0.75000000  1
  N  N785  1  0.13450000  0.74920000  0.75000000  1
  O  O786  1  0.98253000  0.45037000  0.46160000  1
  O  O787  1  0.98253000  0.45037000  0.03840000  1
  O  O788  1  0.98253000  0.53216000  0.46160000  1
  O  O789  1  0.98253000  0.53216000  0.03840000  1
  O  O790  1  0.94430000  0.43080000  0.97952000  1
  O  O791  1  0.94430000  0.43080000  0.52048000  1
  O  O792  1  0.94430000  0.51350000  0.97952000  1
  O  O793  1  0.94430000  0.51350000  0.52048000  1
  O  O794  1  0.86280000  0.24980000  0.90242000  1
  O  O795  1  0.86280000  0.24980000  0.59758000  1
  O  O796  1  0.86280000  0.61300000  0.90242000  1
  O  O797  1  0.86280000  0.61300000  0.59758000  1
  O  O798  1  0.84080000  0.27730000  0.94039000  1
  O  O799  1  0.84080000  0.27730000  0.55961000  1
  O  O800  1  0.84080000  0.56350000  0.94039000  1
  O  O801  1  0.84080000  0.56350000  0.55961000  1
  O  O802  1  0.82950000  0.17050000  0.93600000  1
  O  O803  1  0.82950000  0.17050000  0.56400000  1
  O  O804  1  0.82950000  0.65900000  0.93600000  1
  O  O805  1  0.82950000  0.65900000  0.56400000  1
  O  O806  1  0.80475000  0.19525000  0.97270000  1
  O  O807  1  0.80475000  0.19525000  0.52730000  1
  O  O808  1  0.80475000  0.60950000  0.97270000  1
  O  O809  1  0.80475000  0.60950000  0.52730000  1
  O  O810  1  0.78130000  0.21870000  0.87360000  1
  O  O811  1  0.78130000  0.21870000  0.62640000  1
  O  O812  1  0.78130000  0.56260000  0.87360000  1
  O  O813  1  0.78130000  0.56260000  0.62640000  1
  O  O814  1  0.75605000  0.24395000  0.90890000  1
  O  O815  1  0.75605000  0.24395000  0.59110000  1
  O  O816  1  0.75605000  0.51210000  0.90890000  1
  O  O817  1  0.75605000  0.51210000  0.59110000  1
  O  O818  1  0.75020000  0.13720000  0.90242000  1
  O  O819  1  0.75020000  0.13720000  0.59758000  1
  O  O820  1  0.75020000  0.61300000  0.90242000  1
  O  O821  1  0.75020000  0.61300000  0.59758000  1
  O  O822  1  0.72270000  0.15920000  0.94039000  1
  O  O823  1  0.72270000  0.15920000  0.55961000  1
  O  O824  1  0.72270000  0.56350000  0.94039000  1
  O  O825  1  0.72270000  0.56350000  0.55961000  1
  O  O826  1  0.65900000  0.82950000  0.43600000  1
  O  O827  1  0.65900000  0.82950000  0.06400000  1
  O  O828  1  0.61300000  0.75020000  0.40242000  1
  O  O829  1  0.61300000  0.75020000  0.09758000  1
  O  O830  1  0.61300000  0.86280000  0.40242000  1
  O  O831  1  0.61300000  0.86280000  0.09758000  1
  O  O832  1  0.60950000  0.80475000  0.47270000  1
  O  O833  1  0.60950000  0.80475000  0.02730000  1
  O  O834  1  0.56920000  0.05570000  0.97952000  1
  O  O835  1  0.56920000  0.05570000  0.52048000  1
  O  O836  1  0.56920000  0.51350000  0.97952000  1
  O  O837  1  0.56920000  0.51350000  0.52048000  1
  O  O838  1  0.56350000  0.72270000  0.44039000  1
  O  O839  1  0.56350000  0.72270000  0.05961000  1
  O  O840  1  0.56350000  0.84080000  0.44039000  1
  O  O841  1  0.56350000  0.84080000  0.05961000  1
  O  O842  1  0.56260000  0.78130000  0.37360000  1
  O  O843  1  0.56260000  0.78130000  0.12640000  1
  O  O844  1  0.54963000  0.01747000  0.46160000  1
  O  O845  1  0.54963000  0.01747000  0.03840000  1
  O  O846  1  0.54963000  0.53216000  0.46160000  1
  O  O847  1  0.54963000  0.53216000  0.03840000  1
  O  O848  1  0.53216000  0.54963000  0.96160000  1
  O  O849  1  0.53216000  0.54963000  0.53840000  1
  O  O850  1  0.53216000  0.98253000  0.96160000  1
  O  O851  1  0.53216000  0.98253000  0.53840000  1
  O  O852  1  0.51350000  0.56920000  0.47952000  1
  O  O853  1  0.51350000  0.56920000  0.02048000  1
  O  O854  1  0.51350000  0.94430000  0.47952000  1
  O  O855  1  0.51350000  0.94430000  0.02048000  1
  O  O856  1  0.51210000  0.75605000  0.40890000  1
  O  O857  1  0.51210000  0.75605000  0.09110000  1
  O  O858  1  0.48790000  0.24395000  0.90890000  1
  O  O859  1  0.48790000  0.24395000  0.59110000  1
  O  O860  1  0.48650000  0.05570000  0.97952000  1
  O  O861  1  0.48650000  0.05570000  0.52048000  1
  O  O862  1  0.48650000  0.43080000  0.97952000  1
  O  O863  1  0.48650000  0.43080000  0.52048000  1
  O  O864  1  0.46784000  0.01747000  0.46160000  1
  O  O865  1  0.46784000  0.01747000  0.03840000  1
  O  O866  1  0.46784000  0.45037000  0.46160000  1
  O  O867  1  0.46784000  0.45037000  0.03840000  1
  O  O868  1  0.45037000  0.46784000  0.96160000  1
  O  O869  1  0.45037000  0.46784000  0.53840000  1
  O  O870  1  0.45037000  0.98253000  0.96160000  1
  O  O871  1  0.45037000  0.98253000  0.53840000  1
  O  O872  1  0.43740000  0.21870000  0.87360000  1
  O  O873  1  0.43740000  0.21870000  0.62640000  1
  O  O874  1  0.43650000  0.15920000  0.94039000  1
  O  O875  1  0.43650000  0.15920000  0.55961000  1
  O  O876  1  0.43650000  0.27730000  0.94039000  1
  O  O877  1  0.43650000  0.27730000  0.55961000  1
  O  O878  1  0.43080000  0.48650000  0.47952000  1
  O  O879  1  0.43080000  0.48650000  0.02048000  1
  O  O880  1  0.43080000  0.94430000  0.47952000  1
  O  O881  1  0.43080000  0.94430000  0.02048000  1
  O  O882  1  0.39050000  0.19525000  0.97270000  1
  O  O883  1  0.39050000  0.19525000  0.52730000  1
  O  O884  1  0.38700000  0.13720000  0.90242000  1
  O  O885  1  0.38700000  0.13720000  0.59758000  1
  O  O886  1  0.38700000  0.24980000  0.90242000  1
  O  O887  1  0.38700000  0.24980000  0.59758000  1
  O  O888  1  0.34100000  0.17050000  0.93600000  1
  O  O889  1  0.34100000  0.17050000  0.56400000  1
  O  O890  1  0.27730000  0.43650000  0.44039000  1
  O  O891  1  0.27730000  0.43650000  0.05961000  1
  O  O892  1  0.27730000  0.84080000  0.44039000  1
  O  O893  1  0.27730000  0.84080000  0.05961000  1
  O  O894  1  0.24980000  0.38700000  0.40242000  1
  O  O895  1  0.24980000  0.38700000  0.09758000  1
  O  O896  1  0.24980000  0.86280000  0.40242000  1
  O  O897  1  0.24980000  0.86280000  0.09758000  1
  O  O898  1  0.24395000  0.48790000  0.40890000  1
  O  O899  1  0.24395000  0.48790000  0.09110000  1
  O  O900  1  0.24395000  0.75605000  0.40890000  1
  O  O901  1  0.24395000  0.75605000  0.09110000  1
  O  O902  1  0.21870000  0.43740000  0.37360000  1
  O  O903  1  0.21870000  0.43740000  0.12640000  1
  O  O904  1  0.21870000  0.78130000  0.37360000  1
  O  O905  1  0.21870000  0.78130000  0.12640000  1
  O  O906  1  0.19525000  0.39050000  0.47270000  1
  O  O907  1  0.19525000  0.39050000  0.02730000  1
  O  O908  1  0.19525000  0.80475000  0.47270000  1
  O  O909  1  0.19525000  0.80475000  0.02730000  1
  O  O910  1  0.17050000  0.34100000  0.43600000  1
  O  O911  1  0.17050000  0.34100000  0.06400000  1
  O  O912  1  0.17050000  0.82950000  0.43600000  1
  O  O913  1  0.17050000  0.82950000  0.06400000  1
  O  O914  1  0.15920000  0.43650000  0.44039000  1
  O  O915  1  0.15920000  0.43650000  0.05961000  1
  O  O916  1  0.15920000  0.72270000  0.44039000  1
  O  O917  1  0.15920000  0.72270000  0.05961000  1
  O  O918  1  0.13720000  0.38700000  0.40242000  1
  O  O919  1  0.13720000  0.38700000  0.09758000  1
  O  O920  1  0.13720000  0.75020000  0.40242000  1
  O  O921  1  0.13720000  0.75020000  0.09758000  1
  O  O922  1  0.05570000  0.48650000  0.47952000  1
  O  O923  1  0.05570000  0.48650000  0.02048000  1
  O  O924  1  0.05570000  0.56920000  0.47952000  1
  O  O925  1  0.05570000  0.56920000  0.02048000  1
  O  O926  1  0.01747000  0.46784000  0.96160000  1
  O  O927  1  0.01747000  0.46784000  0.53840000  1
  O  O928  1  0.01747000  0.54963000  0.96160000  1
  O  O929  1  0.01747000  0.54963000  0.53840000  1
