# generated using pymatgen
data_Zn2H32C41(NO3)4
_symmetry_space_group_name_H-M   'P 1'
_cell_length_a   9.34020000
_cell_length_b   13.73910000
_cell_length_c   20.09000000
_cell_angle_alpha   86.13720000
_cell_angle_beta   78.56890000
_cell_angle_gamma   70.12840000
_symmetry_Int_Tables_number   1
_chemical_formula_structural   Zn2H32C41(NO3)4
_chemical_formula_sum   'Zn4 H64 C82 N8 O24'
_cell_volume   2376.46733060
_cell_formula_units_Z   2
loop_
 _symmetry_equiv_pos_site_id
 _symmetry_equiv_pos_as_xyz
  1  'x, y, z'
loop_
 _atom_site_type_symbol
 _atom_site_label
 _atom_site_symmetry_multiplicity
 _atom_site_fract_x
 _atom_site_fract_y
 _atom_site_fract_z
 _atom_site_occupancy
  Zn  Zn0  1  0.09781000  0.24342000  0.51360000  1
  Zn  Zn1  1  0.34123000  0.75658000  0.01360000  1
  Zn  Zn2  1  0.65877000  0.24342000  0.98640000  1
  Zn  Zn3  1  0.90219000  0.75658000  0.48640000  1
  H  H4  1  0.01750000  0.61500000  0.74560000  1
  H  H5  1  0.01900000  0.87100000  0.06600000  1
  H  H6  1  0.02260000  0.42180000  0.37590000  1
  H  H7  1  0.02640000  0.68460000  0.68040000  1
  H  H8  1  0.02770000  0.26220000  0.16320000  1
  H  H9  1  0.05060000  0.54620000  0.43710000  1
  H  H10  1  0.07900000  0.18560000  0.22280000  1
  H  H11  1  0.11000000  0.87100000  0.43400000  1
  H  H12  1  0.12180000  0.01380000  0.37190000  1
  H  H13  1  0.12450000  0.35560000  0.05990000  1
  H  H14  1  0.13560000  0.98620000  0.87190000  1
  H  H15  1  0.18950000  0.50340000  0.05630000  1
  H  H16  1  0.23050000  0.38040000  0.85060000  1
  H  H17  1  0.24330000  0.08920000  0.13100000  1
  H  H18  1  0.26460000  0.81440000  0.72280000  1
  H  H19  1  0.28660000  0.32740000  0.30740000  1
  H  H20  1  0.28900000  0.68460000  0.81960000  1
  H  H21  1  0.28990000  0.73780000  0.66320000  1
  H  H22  1  0.30710000  0.50340000  0.44370000  1
  H  H23  1  0.32800000  0.06080000  0.57170000  1
  H  H24  1  0.33250000  0.91080000  0.63100000  1
  H  H25  1  0.35640000  0.26220000  0.58680000  1
  H  H26  1  0.36750000  0.61500000  0.75440000  1
  H  H27  1  0.38140000  0.26220000  0.91320000  1
  H  H28  1  0.38600000  0.32740000  0.19260000  1
  H  H29  1  0.38880000  0.93920000  0.07170000  1
  H  H30  1  0.38910000  0.38040000  0.64940000  1
  H  H31  1  0.40320000  0.54620000  0.06290000  1
  H  H32  1  0.44440000  0.57820000  0.87590000  1
  H  H33  1  0.45240000  0.01480000  0.30910000  1
  H  H34  1  0.46720000  0.98520000  0.80910000  1
  H  H35  1  0.48010000  0.64440000  0.55990000  1
  H  H36  1  0.51990000  0.35560000  0.44010000  1
  H  H37  1  0.53280000  0.01480000  0.19090000  1
  H  H38  1  0.54760000  0.98520000  0.69090000  1
  H  H39  1  0.55560000  0.42180000  0.12410000  1
  H  H40  1  0.59680000  0.45380000  0.93710000  1
  H  H41  1  0.61090000  0.61960000  0.35060000  1
  H  H42  1  0.61120000  0.06080000  0.92830000  1
  H  H43  1  0.61400000  0.67260000  0.80740000  1
  H  H44  1  0.61860000  0.73780000  0.08680000  1
  H  H45  1  0.63250000  0.38500000  0.24560000  1
  H  H46  1  0.64360000  0.73780000  0.41320000  1
  H  H47  1  0.66750000  0.08920000  0.36900000  1
  H  H48  1  0.67200000  0.93920000  0.42830000  1
  H  H49  1  0.69290000  0.49660000  0.55630000  1
  H  H50  1  0.71010000  0.26220000  0.33680000  1
  H  H51  1  0.71100000  0.31540000  0.18040000  1
  H  H52  1  0.71340000  0.67260000  0.69260000  1
  H  H53  1  0.73540000  0.18560000  0.27720000  1
  H  H54  1  0.75670000  0.91080000  0.86900000  1
  H  H55  1  0.76950000  0.61960000  0.14940000  1
  H  H56  1  0.81050000  0.49660000  0.94370000  1
  H  H57  1  0.86440000  0.01380000  0.12810000  1
  H  H58  1  0.87550000  0.64440000  0.94010000  1
  H  H59  1  0.87820000  0.98620000  0.62810000  1
  H  H60  1  0.89000000  0.12900000  0.56600000  1
  H  H61  1  0.92100000  0.81440000  0.77720000  1
  H  H62  1  0.94940000  0.45380000  0.56290000  1
  H  H63  1  0.97230000  0.73780000  0.83680000  1
  H  H64  1  0.97360000  0.31540000  0.31960000  1
  H  H65  1  0.97740000  0.57820000  0.62410000  1
  H  H66  1  0.98100000  0.12900000  0.93400000  1
  H  H67  1  0.98250000  0.38500000  0.25440000  1
  C  C68  1  0.00689000  0.77882000  0.80004000  1
  C  C69  1  0.02091000  0.91458000  0.41978000  1
  C  C70  1  0.02884000  0.00032000  0.38300000  1
  C  C71  1  0.02916000  0.99968000  0.88300000  1
  C  C72  1  0.03591000  0.06658000  0.13738000  1
  C  C73  1  0.03900000  0.43820000  0.58093000  1
  C  C74  1  0.04119000  0.58882000  0.99869000  1
  C  C75  1  0.05496000  0.51388000  0.61739000  1
  C  C76  1  0.06451000  0.91458000  0.08022000  1
  C  C77  1  0.07440000  0.41320000  0.03586000  1
  C  C78  1  0.08493000  0.64354000  0.71339000  1
  C  C79  1  0.08585000  0.68470000  0.99590000  1
  C  C80  1  0.10249000  0.93342000  0.63738000  1
  C  C81  1  0.11263000  0.50214000  0.03350000  1
  C  C82  1  0.14496000  0.71008000  0.75000000  1
  C  C83  1  0.18502000  0.49336000  0.64327000  1
  C  C84  1  0.19623000  0.04474000  0.11916000  1
  C  C85  1  0.21429000  0.77882000  0.69996000  1
  C  C86  1  0.22945000  0.68470000  0.50410000  1
  C  C87  1  0.23711000  0.04478000  0.58311000  1
  C  C88  1  0.24097000  0.95526000  0.61916000  1
  C  C89  1  0.27153000  0.64354000  0.78661000  1
  C  C90  1  0.27765000  0.32570000  0.59520000  1
  C  C91  1  0.28189000  0.95522000  0.08311000  1
  C  C92  1  0.29686000  0.17008000  0.39447000  1
  C  C93  1  0.29887000  0.39626000  0.63178000  1
  C  C94  1  0.30487000  0.39626000  0.86822000  1
  C  C95  1  0.32162000  0.49336000  0.85673000  1
  C  C96  1  0.33882000  0.26496000  0.28447000  1
  C  C97  1  0.35903000  0.17174000  0.31961000  1
  C  C98  1  0.36999000  0.58882000  0.50131000  1
  C  C99  1  0.38523000  0.50214000  0.46650000  1
  C  C100  1  0.39622000  0.26496000  0.21553000  1
  C  C101  1  0.39665000  0.32570000  0.90480000  1
  C  C102  1  0.43116000  0.51388000  0.88261000  1
  C  C103  1  0.43584000  0.07692000  0.28530000  1
  C  C104  1  0.46694000  0.82992000  0.89447000  1
  C  C105  1  0.46923000  0.17174000  0.18039000  1
  C  C106  1  0.47720000  0.56180000  0.08093000  1
  C  C107  1  0.48724000  0.07692000  0.21470000  1
  C  C108  1  0.48760000  0.58680000  0.53586000  1
  C  C109  1  0.51240000  0.41320000  0.46414000  1
  C  C110  1  0.51276000  0.92308000  0.78530000  1
  C  C111  1  0.52280000  0.43820000  0.91907000  1
  C  C112  1  0.53077000  0.82826000  0.81961000  1
  C  C113  1  0.53306000  0.17008000  0.10553000  1
  C  C114  1  0.56416000  0.92308000  0.71470000  1
  C  C115  1  0.56884000  0.48612000  0.11739000  1
  C  C116  1  0.60335000  0.67430000  0.09520000  1
  C  C117  1  0.60378000  0.73504000  0.78447000  1
  C  C118  1  0.61477000  0.49786000  0.53350000  1
  C  C119  1  0.63001000  0.41118000  0.49869000  1
  C  C120  1  0.64097000  0.82826000  0.68039000  1
  C  C121  1  0.66118000  0.73504000  0.71553000  1
  C  C122  1  0.67838000  0.50664000  0.14327000  1
  C  C123  1  0.69513000  0.60374000  0.13178000  1
  C  C124  1  0.70113000  0.60374000  0.36822000  1
  C  C125  1  0.70314000  0.82992000  0.60553000  1
  C  C126  1  0.71811000  0.04478000  0.91689000  1
  C  C127  1  0.72235000  0.67430000  0.40480000  1
  C  C128  1  0.72847000  0.35646000  0.21339000  1
  C  C129  1  0.75903000  0.04474000  0.38084000  1
  C  C130  1  0.76289000  0.95522000  0.41689000  1
  C  C131  1  0.77055000  0.31530000  0.49590000  1
  C  C132  1  0.78571000  0.22118000  0.30004000  1
  C  C133  1  0.80377000  0.95526000  0.88084000  1
  C  C134  1  0.81498000  0.50664000  0.35673000  1
  C  C135  1  0.85504000  0.28992000  0.25000000  1
  C  C136  1  0.88737000  0.49786000  0.96650000  1
  C  C137  1  0.89751000  0.06658000  0.36262000  1
  C  C138  1  0.91415000  0.31530000  0.00410000  1
  C  C139  1  0.91507000  0.35646000  0.28661000  1
  C  C140  1  0.92560000  0.58680000  0.96414000  1
  C  C141  1  0.93549000  0.08542000  0.91978000  1
  C  C142  1  0.94504000  0.48612000  0.38261000  1
  C  C143  1  0.95881000  0.41118000  0.00131000  1
  C  C144  1  0.96100000  0.56180000  0.41907000  1
  C  C145  1  0.96409000  0.93342000  0.86262000  1
  C  C146  1  0.97084000  0.00032000  0.11700000  1
  C  C147  1  0.97116000  0.99968000  0.61700000  1
  C  C148  1  0.97909000  0.08542000  0.58022000  1
  C  C149  1  0.99311000  0.22118000  0.19996000  1
  N  N150  1  0.10846000  0.11028000  0.56355000  1
  N  N151  1  0.14565000  0.34250000  0.56959000  1
  N  N152  1  0.21874000  0.88972000  0.06355000  1
  N  N153  1  0.48815000  0.65750000  0.06959000  1
  N  N154  1  0.51185000  0.34250000  0.93041000  1
  N  N155  1  0.78126000  0.11028000  0.93645000  1
  N  N156  1  0.85435000  0.65750000  0.43041000  1
  N  N157  1  0.89154000  0.88972000  0.43645000  1
  O  O158  1  0.00796000  0.76588000  0.97176000  1
  O  O159  1  0.06251000  0.85178000  0.82555000  1
  O  O160  1  0.08571000  0.85178000  0.67445000  1
  O  O161  1  0.12048000  0.67384000  0.47964000  1
  O  O162  1  0.19727000  0.25246000  0.41963000  1
  O  O163  1  0.20568000  0.67384000  0.02036000  1
  O  O164  1  0.21623000  0.56194000  0.68004000  1
  O  O165  1  0.22183000  0.56194000  0.81996000  1
  O  O166  1  0.22616000  0.76588000  0.52824000  1
  O  O167  1  0.34638000  0.09144000  0.42832000  1
  O  O168  1  0.43782000  0.90856000  0.92832000  1
  O  O169  1  0.44973000  0.74754000  0.91963000  1
  O  O170  1  0.55027000  0.25246000  0.08037000  1
  O  O171  1  0.56218000  0.09144000  0.07168000  1
  O  O172  1  0.65362000  0.90856000  0.57168000  1
  O  O173  1  0.77384000  0.23412000  0.47176000  1
  O  O174  1  0.77817000  0.43806000  0.18004000  1
  O  O175  1  0.78377000  0.43806000  0.31996000  1
  O  O176  1  0.79432000  0.32616000  0.97964000  1
  O  O177  1  0.80273000  0.74754000  0.58037000  1
  O  O178  1  0.87952000  0.32616000  0.52036000  1
  O  O179  1  0.91429000  0.14822000  0.32555000  1
  O  O180  1  0.93749000  0.14822000  0.17445000  1
  O  O181  1  0.99204000  0.23412000  0.02824000  1
