# generated using pymatgen
data_Zn4H18C36O13
_symmetry_space_group_name_H-M   'P 1'
_cell_length_a   17.22370000
_cell_length_b   17.23440000
_cell_length_c   17.29230000
_cell_angle_alpha   90.54800000
_cell_angle_beta   90.00000000
_cell_angle_gamma   90.00000000
_symmetry_Int_Tables_number   1
_chemical_formula_structural   Zn4H18C36O13
_chemical_formula_sum   'Zn16 H72 C144 O52'
_cell_volume   5132.81389302
_cell_formula_units_Z   4
loop_
 _symmetry_equiv_pos_site_id
 _symmetry_equiv_pos_as_xyz
  1  'x, y, z'
loop_
 _atom_site_type_symbol
 _atom_site_label
 _atom_site_symmetry_multiplicity
 _atom_site_fract_x
 _atom_site_fract_y
 _atom_site_fract_z
 _atom_site_occupancy
  Zn  Zn0  1  0.01799000  0.73953000  0.86597000  1
  Zn  Zn1  1  0.08555000  0.82705000  0.01620000  1
  Zn  Zn2  1  0.28913000  0.67155000  0.49342000  1
  Zn  Zn3  1  0.34817000  0.75707000  0.34434000  1
  Zn  Zn4  1  0.42421000  0.26246000  0.97898000  1
  Zn  Zn5  1  0.43191000  0.11010000  0.07550000  1
  Zn  Zn6  1  0.43660000  0.60113000  0.41320000  1
  Zn  Zn7  1  0.44460000  0.76699000  0.49806000  1
  Zn  Zn8  1  0.51799000  0.26047000  0.13403000  1
  Zn  Zn9  1  0.58555000  0.17295000  0.98380000  1
  Zn  Zn10  1  0.78913000  0.32845000  0.50658000  1
  Zn  Zn11  1  0.84817000  0.24293000  0.65566000  1
  Zn  Zn12  1  0.92421000  0.73754000  0.02102000  1
  Zn  Zn13  1  0.93191000  0.88990000  0.92450000  1
  Zn  Zn14  1  0.93660000  0.39887000  0.58680000  1
  Zn  Zn15  1  0.94460000  0.23301000  0.50194000  1
  H  H16  1  0.05460000  0.04950000  0.51300000  1
  H  H17  1  0.05910000  0.28520000  0.73630000  1
  H  H18  1  0.06180000  0.67170000  0.47150000  1
  H  H19  1  0.06940000  0.80370000  0.65520000  1
  H  H20  1  0.13190000  0.79260000  0.23680000  1
  H  H21  1  0.14450000  0.22340000  0.38100000  1
  H  H22  1  0.14950000  0.98960000  0.45410000  1
  H  H23  1  0.15870000  0.45440000  0.52480000  1
  H  H24  1  0.16040000  0.79180000  0.57120000  1
  H  H25  1  0.17930000  0.31060000  0.77930000  1
  H  H26  1  0.19340000  0.02710000  0.02330000  1
  H  H27  1  0.19510000  0.87080000  0.47760000  1
  H  H28  1  0.20830000  0.17290000  0.28530000  1
  H  H29  1  0.21200000  0.73340000  0.72190000  1
  H  H30  1  0.24340000  0.24940000  0.87340000  1
  H  H31  1  0.27800000  0.90090000  0.92660000  1
  H  H32  1  0.28700000  0.68190000  0.89260000  1
  H  H33  1  0.30280000  0.75030000  0.99550000  1
  H  H34  1  0.30540000  0.22250000  0.22010000  1
  H  H35  1  0.30650000  0.35590000  0.65600000  1
  H  H36  1  0.33230000  0.56200000  0.86980000  1
  H  H37  1  0.33880000  0.42720000  0.32190000  1
  H  H38  1  0.34110000  0.71950000  0.11010000  1
  H  H39  1  0.34470000  0.39790000  0.54610000  1
  H  H40  1  0.36240000  0.33610000  0.23520000  1
  H  H41  1  0.37360000  0.29660000  0.74490000  1
  H  H42  1  0.37590000  0.47740000  0.95460000  1
  H  H43  1  0.37660000  0.98210000  0.94900000  1
  H  H44  1  0.39930000  0.99830000  0.27060000  1
  H  H45  1  0.43580000  0.88590000  0.68650000  1
  H  H46  1  0.45350000  0.49120000  0.21510000  1
  H  H47  1  0.45410000  0.38140000  0.48680000  1
  H  H48  1  0.46610000  0.01760000  0.87140000  1
  H  H49  1  0.48290000  0.80770000  0.23460000  1
  H  H50  1  0.49340000  0.97560000  0.75640000  1
  H  H51  1  0.49720000  0.90280000  0.15360000  1
  H  H52  1  0.55460000  0.95050000  0.48700000  1
  H  H53  1  0.55910000  0.71480000  0.26370000  1
  H  H54  1  0.56180000  0.32830000  0.52850000  1
  H  H55  1  0.56940000  0.19630000  0.34480000  1
  H  H56  1  0.63190000  0.20740000  0.76320000  1
  H  H57  1  0.64450000  0.77660000  0.61900000  1
  H  H58  1  0.64950000  0.01040000  0.54590000  1
  H  H59  1  0.65870000  0.54560000  0.47520000  1
  H  H60  1  0.66040000  0.20820000  0.42880000  1
  H  H61  1  0.67930000  0.68940000  0.22070000  1
  H  H62  1  0.69340000  0.97290000  0.97670000  1
  H  H63  1  0.69510000  0.12920000  0.52240000  1
  H  H64  1  0.70830000  0.82710000  0.71470000  1
  H  H65  1  0.71200000  0.26660000  0.27810000  1
  H  H66  1  0.74340000  0.75060000  0.12660000  1
  H  H67  1  0.77800000  0.09910000  0.07340000  1
  H  H68  1  0.78700000  0.31810000  0.10740000  1
  H  H69  1  0.80280000  0.24970000  0.00450000  1
  H  H70  1  0.80540000  0.77750000  0.77990000  1
  H  H71  1  0.80650000  0.64410000  0.34400000  1
  H  H72  1  0.83230000  0.43800000  0.13020000  1
  H  H73  1  0.83880000  0.57280000  0.67810000  1
  H  H74  1  0.84110000  0.28050000  0.88990000  1
  H  H75  1  0.84470000  0.60210000  0.45390000  1
  H  H76  1  0.86240000  0.66390000  0.76480000  1
  H  H77  1  0.87360000  0.70340000  0.25510000  1
  H  H78  1  0.87590000  0.52260000  0.04540000  1
  H  H79  1  0.87660000  0.01790000  0.05100000  1
  H  H80  1  0.89930000  0.00170000  0.72940000  1
  H  H81  1  0.93580000  0.11410000  0.31350000  1
  H  H82  1  0.95350000  0.50880000  0.78490000  1
  H  H83  1  0.95410000  0.61860000  0.51320000  1
  H  H84  1  0.96610000  0.98240000  0.12860000  1
  H  H85  1  0.98290000  0.19230000  0.76540000  1
  H  H86  1  0.99340000  0.02440000  0.24360000  1
  H  H87  1  0.99720000  0.09720000  0.84640000  1
  C  C88  1  0.01880000  0.75320000  0.24160000  1
  C  C89  1  0.02050000  0.67150000  0.43680000  1
  C  C90  1  0.02100000  0.98180000  0.59610000  1
  C  C91  1  0.02770000  0.90840000  0.64030000  1
  C  C92  1  0.02970000  0.19270000  0.79230000  1
  C  C93  1  0.03540000  0.70450000  0.36610000  1
  C  C94  1  0.03780000  0.13280000  0.84510000  1
  C  C95  1  0.04950000  0.99440000  0.96280000  1
  C  C96  1  0.06640000  0.00120000  0.53350000  1
  C  C97  1  0.07640000  0.84670000  0.62370000  1
  C  C98  1  0.07740000  0.31760000  0.49990000  1
  C  C99  1  0.07800000  0.25130000  0.77340000  1
  C  C100  1  0.09430000  0.76770000  0.26600000  1
  C  C101  1  0.09820000  0.11940000  0.89570000  1
  C  C102  1  0.10440000  0.05650000  0.94860000  1
  C  C103  1  0.10610000  0.73950000  0.34080000  1
  C  C104  1  0.12640000  0.96300000  0.49460000  1
  C  C105  1  0.13290000  0.83810000  0.56910000  1
  C  C106  1  0.14950000  0.35430000  0.46360000  1
  C  C107  1  0.15390000  0.26900000  0.80200000  1
  C  C108  1  0.15590000  0.88860000  0.51010000  1
  C  C109  1  0.17040000  0.79210000  0.86520000  1
  C  C110  1  0.17050000  0.16460000  0.90440000  1
  C  C111  1  0.17540000  0.06190000  0.98660000  1
  C  C112  1  0.17780000  0.42420000  0.48420000  1
  C  C113  1  0.18120000  0.74090000  0.37930000  1
  C  C114  1  0.18400000  0.25450000  0.36160000  1
  C  C115  1  0.19220000  0.32640000  0.39940000  1
  C  C116  1  0.19450000  0.22970000  0.86130000  1
  C  C117  1  0.21610000  0.12840000  0.96130000  1
  C  C118  1  0.22420000  0.22210000  0.30090000  1
  C  C119  1  0.23850000  0.80710000  0.81420000  1
  C  C120  1  0.24000000  0.44580000  0.43660000  1
  C  C121  1  0.24610000  0.77040000  0.74190000  1
  C  C122  1  0.25030000  0.38760000  0.38200000  1
  C  C123  1  0.28190000  0.51900000  0.44340000  1
  C  C124  1  0.28570000  0.25360000  0.25980000  1
  C  C125  1  0.29330000  0.15140000  0.99160000  1
  C  C126  1  0.30040000  0.85870000  0.82340000  1
  C  C127  1  0.30660000  0.38410000  0.32450000  1
  C  C128  1  0.31120000  0.65730000  0.93370000  1
  C  C129  1  0.31210000  0.79720000  0.70440000  1
  C  C130  1  0.31410000  0.90500000  0.88680000  1
  C  C131  1  0.31860000  0.69890000  0.99990000  1
  C  C132  1  0.32230000  0.32560000  0.26960000  1
  C  C133  1  0.33240000  0.76990000  0.62630000  1
  C  C134  1  0.33650000  0.58010000  0.92050000  1
  C  C135  1  0.34470000  0.68050000  0.07270000  1
  C  C136  1  0.34790000  0.85270000  0.75290000  1
  C  C137  1  0.35820000  0.34620000  0.64390000  1
  C  C138  1  0.36710000  0.52700000  0.97420000  1
  C  C139  1  0.37590000  0.95850000  0.90050000  1
  C  C140  1  0.37630000  0.60940000  0.09700000  1
  C  C141  1  0.38190000  0.37070000  0.57380000  1
  C  C142  1  0.38610000  0.53720000  0.05140000  1
  C  C143  1  0.40090000  0.30840000  0.70020000  1
  C  C144  1  0.40540000  0.59230000  0.17450000  1
  C  C145  1  0.40590000  0.64200000  0.24350000  1
  C  C146  1  0.41370000  0.89600000  0.73470000  1
  C  C147  1  0.41770000  0.48130000  0.10110000  1
  C  C148  1  0.43070000  0.51610000  0.17340000  1
  C  C149  1  0.43310000  0.97920000  0.85240000  1
  C  C150  1  0.43600000  0.39900000  0.08390000  1
  C  C151  1  0.43750000  0.01580000  0.30460000  1
  C  C152  1  0.43910000  0.89530000  0.38440000  1
  C  C153  1  0.45050000  0.95250000  0.77940000  1
  C  C154  1  0.45210000  0.36200000  0.53670000  1
  C  C155  1  0.45690000  0.14210000  0.23550000  1
  C  C156  1  0.46580000  0.97300000  0.36490000  1
  C  C157  1  0.47200000  0.08720000  0.30010000  1
  C  C158  1  0.48000000  0.28500000  0.69980000  1
  C  C159  1  0.49390000  0.23000000  0.83890000  1
  C  C160  1  0.51880000  0.24680000  0.75840000  1
  C  C161  1  0.52050000  0.32850000  0.56320000  1
  C  C162  1  0.52100000  0.01820000  0.40390000  1
  C  C163  1  0.52770000  0.09160000  0.35970000  1
  C  C164  1  0.52970000  0.80730000  0.20770000  1
  C  C165  1  0.53540000  0.29550000  0.63390000  1
  C  C166  1  0.53780000  0.86720000  0.15490000  1
  C  C167  1  0.54950000  0.00560000  0.03720000  1
  C  C168  1  0.56640000  0.99880000  0.46650000  1
  C  C169  1  0.57640000  0.15330000  0.37630000  1
  C  C170  1  0.57740000  0.68240000  0.50010000  1
  C  C171  1  0.57800000  0.74870000  0.22660000  1
  C  C172  1  0.59430000  0.23230000  0.73400000  1
  C  C173  1  0.59820000  0.88060000  0.10430000  1
  C  C174  1  0.60440000  0.94350000  0.05140000  1
  C  C175  1  0.60610000  0.26050000  0.65920000  1
  C  C176  1  0.62640000  0.03700000  0.50540000  1
  C  C177  1  0.63290000  0.16190000  0.43090000  1
  C  C178  1  0.64950000  0.64570000  0.53640000  1
  C  C179  1  0.65390000  0.73100000  0.19800000  1
  C  C180  1  0.65590000  0.11140000  0.48990000  1
  C  C181  1  0.67040000  0.20790000  0.13480000  1
  C  C182  1  0.67050000  0.83540000  0.09560000  1
  C  C183  1  0.67540000  0.93810000  0.01340000  1
  C  C184  1  0.67780000  0.57580000  0.51580000  1
  C  C185  1  0.68120000  0.25910000  0.62070000  1
  C  C186  1  0.68400000  0.74550000  0.63840000  1
  C  C187  1  0.69220000  0.67360000  0.60060000  1
  C  C188  1  0.69450000  0.77030000  0.13870000  1
  C  C189  1  0.71610000  0.87160000  0.03870000  1
  C  C190  1  0.72420000  0.77790000  0.69910000  1
  C  C191  1  0.73850000  0.19290000  0.18580000  1
  C  C192  1  0.74000000  0.55420000  0.56340000  1
  C  C193  1  0.74610000  0.22960000  0.25810000  1
  C  C194  1  0.75030000  0.61240000  0.61800000  1
  C  C195  1  0.78190000  0.48100000  0.55660000  1
  C  C196  1  0.78570000  0.74640000  0.74020000  1
  C  C197  1  0.79330000  0.84860000  0.00840000  1
  C  C198  1  0.80040000  0.14130000  0.17660000  1
  C  C199  1  0.80660000  0.61590000  0.67550000  1
  C  C200  1  0.81120000  0.34270000  0.06630000  1
  C  C201  1  0.81210000  0.20280000  0.29560000  1
  C  C202  1  0.81410000  0.09500000  0.11320000  1
  C  C203  1  0.81860000  0.30110000  0.00010000  1
  C  C204  1  0.82230000  0.67440000  0.73040000  1
  C  C205  1  0.83240000  0.23010000  0.37370000  1
  C  C206  1  0.83650000  0.41990000  0.07950000  1
  C  C207  1  0.84470000  0.31950000  0.92730000  1
  C  C208  1  0.84790000  0.14730000  0.24710000  1
  C  C209  1  0.85820000  0.65380000  0.35610000  1
  C  C210  1  0.86710000  0.47300000  0.02580000  1
  C  C211  1  0.87590000  0.04150000  0.09950000  1
  C  C212  1  0.87630000  0.39060000  0.90300000  1
  C  C213  1  0.88190000  0.62930000  0.42620000  1
  C  C214  1  0.88610000  0.46280000  0.94860000  1
  C  C215  1  0.90090000  0.69160000  0.29980000  1
  C  C216  1  0.90540000  0.40770000  0.82550000  1
  C  C217  1  0.90590000  0.35800000  0.75650000  1
  C  C218  1  0.91370000  0.10400000  0.26530000  1
  C  C219  1  0.91770000  0.51870000  0.89890000  1
  C  C220  1  0.93070000  0.48390000  0.82660000  1
  C  C221  1  0.93310000  0.02080000  0.14760000  1
  C  C222  1  0.93600000  0.60100000  0.91610000  1
  C  C223  1  0.93750000  0.98420000  0.69540000  1
  C  C224  1  0.93910000  0.10470000  0.61560000  1
  C  C225  1  0.95050000  0.04750000  0.22060000  1
  C  C226  1  0.95210000  0.63800000  0.46330000  1
  C  C227  1  0.95690000  0.85790000  0.76450000  1
  C  C228  1  0.96580000  0.02700000  0.63510000  1
  C  C229  1  0.97200000  0.91280000  0.69990000  1
  C  C230  1  0.98000000  0.71500000  0.30020000  1
  C  C231  1  0.99390000  0.77000000  0.16110000  1
  O  O232  1  0.02460000  0.82350000  0.12550000  1
  O  O233  1  0.04400000  0.26290000  0.46160000  1
  O  O234  1  0.05220000  0.34800000  0.56150000  1
  O  O235  1  0.06530000  0.94690000  0.01570000  1
  O  O236  1  0.12930000  0.73260000  0.84600000  1
  O  O237  1  0.15740000  0.83700000  0.92070000  1
  O  O238  1  0.19120000  0.70720000  0.44180000  1
  O  O239  1  0.23640000  0.77540000  0.34130000  1
  O  O240  1  0.25900000  0.56300000  0.49830000  1
  O  O241  1  0.28930000  0.71770000  0.59680000  1
  O  O242  1  0.31820000  0.21860000  0.98070000  1
  O  O243  1  0.32960000  0.09880000  0.02770000  1
  O  O244  1  0.33450000  0.53680000  0.39590000  1
  O  O245  1  0.36200000  0.70240000  0.24420000  1
  O  O246  1  0.37970000  0.70160000  0.43500000  1
  O  O247  1  0.39110000  0.79920000  0.59360000  1
  O  O248  1  0.39180000  0.86220000  0.33830000  1
  O  O249  1  0.40720000  0.12090000  0.18690000  1
  O  O250  1  0.41390000  0.36920000  0.02080000  1
  O  O251  1  0.44140000  0.27660000  0.86830000  1
  O  O252  1  0.45020000  0.62280000  0.29630000  1
  O  O253  1  0.46410000  0.86530000  0.44680000  1
  O  O254  1  0.47310000  0.36400000  0.13630000  1
  O  O255  1  0.48860000  0.19980000  0.04500000  1
  O  O256  1  0.48920000  0.01260000  0.08080000  1
  O  O257  1  0.49540000  0.20450000  0.23070000  1
  O  O258  1  0.52460000  0.17650000  0.87450000  1
  O  O259  1  0.54400000  0.73710000  0.53840000  1
  O  O260  1  0.55220000  0.65200000  0.43850000  1
  O  O261  1  0.56530000  0.05310000  0.98430000  1
  O  O262  1  0.62930000  0.26740000  0.15400000  1
  O  O263  1  0.65740000  0.16300000  0.07930000  1
  O  O264  1  0.69120000  0.29280000  0.55820000  1
  O  O265  1  0.73640000  0.22460000  0.65870000  1
  O  O266  1  0.75900000  0.43700000  0.50170000  1
  O  O267  1  0.78930000  0.28230000  0.40320000  1
  O  O268  1  0.81820000  0.78140000  0.01930000  1
  O  O269  1  0.82960000  0.90120000  0.97230000  1
  O  O270  1  0.83450000  0.46320000  0.60410000  1
  O  O271  1  0.86200000  0.29760000  0.75580000  1
  O  O272  1  0.87970000  0.29840000  0.56500000  1
  O  O273  1  0.89110000  0.20080000  0.40640000  1
  O  O274  1  0.89180000  0.13780000  0.66170000  1
  O  O275  1  0.90720000  0.87910000  0.81310000  1
  O  O276  1  0.91390000  0.63080000  0.97920000  1
  O  O277  1  0.94140000  0.72340000  0.13170000  1
  O  O278  1  0.95020000  0.37720000  0.70370000  1
  O  O279  1  0.96410000  0.13470000  0.55320000  1
  O  O280  1  0.97310000  0.63600000  0.86370000  1
  O  O281  1  0.98860000  0.80020000  0.95500000  1
  O  O282  1  0.98920000  0.98740000  0.91920000  1
  O  O283  1  0.99540000  0.79550000  0.76930000  1
