# generated using pymatgen
data_CdH8C15O4
_symmetry_space_group_name_H-M   'P 1'
_cell_length_a   11.41370000
_cell_length_b   16.59200000
_cell_length_c   26.04100000
_cell_angle_alpha   90.00000000
_cell_angle_beta   95.29000000
_cell_angle_gamma   90.00000000
_symmetry_Int_Tables_number   1
_chemical_formula_structural   CdH8C15O4
_chemical_formula_sum   'Cd8 H64 C120 O32'
_cell_volume   4910.53888506
_cell_formula_units_Z   8
loop_
 _symmetry_equiv_pos_site_id
 _symmetry_equiv_pos_as_xyz
  1  'x, y, z'
loop_
 _atom_site_type_symbol
 _atom_site_label
 _atom_site_symmetry_multiplicity
 _atom_site_fract_x
 _atom_site_fract_y
 _atom_site_fract_z
 _atom_site_occupancy
  Cd  Cd0  1  0.11409000  0.55887000  0.53922000  1
  Cd  Cd1  1  0.11409000  0.94113000  0.03922000  1
  Cd  Cd2  1  0.16817000  0.73388000  0.03693000  1
  Cd  Cd3  1  0.16817000  0.76612000  0.53693000  1
  Cd  Cd4  1  0.83183000  0.23388000  0.46307000  1
  Cd  Cd5  1  0.83183000  0.26612000  0.96307000  1
  Cd  Cd6  1  0.88591000  0.05887000  0.96078000  1
  Cd  Cd7  1  0.88591000  0.44113000  0.46078000  1
  H  H8  1  0.04680000  0.73380000  0.90050000  1
  H  H9  1  0.04680000  0.76620000  0.40050000  1
  H  H10  1  0.04840000  0.18840000  0.33260000  1
  H  H11  1  0.04840000  0.31160000  0.83260000  1
  H  H12  1  0.06400000  0.17300000  0.66810000  1
  H  H13  1  0.06400000  0.32700000  0.16810000  1
  H  H14  1  0.14320000  0.07810000  0.84990000  1
  H  H15  1  0.14320000  0.42190000  0.34990000  1
  H  H16  1  0.15570000  0.17910000  0.26120000  1
  H  H17  1  0.15570000  0.32090000  0.76120000  1
  H  H18  1  0.20720000  0.09870000  0.09040000  1
  H  H19  1  0.20720000  0.40130000  0.59040000  1
  H  H20  1  0.25040000  0.08830000  0.77860000  1
  H  H21  1  0.25040000  0.41170000  0.27860000  1
  H  H22  1  0.31700000  0.74730000  0.88550000  1
  H  H23  1  0.31700000  0.75270000  0.38550000  1
  H  H24  1  0.31800000  0.12510000  0.62130000  1
  H  H25  1  0.31800000  0.37490000  0.12130000  1
  H  H26  1  0.32120000  0.16100000  0.15830000  1
  H  H27  1  0.32120000  0.33900000  0.65830000  1
  H  H28  1  0.35430000  0.52600000  0.69620000  1
  H  H29  1  0.35430000  0.97400000  0.19620000  1
  H  H30  1  0.40700000  0.74680000  0.80950000  1
  H  H31  1  0.40700000  0.75320000  0.30950000  1
  H  H32  1  0.41030000  0.12030000  0.54530000  1
  H  H33  1  0.41030000  0.37970000  0.04530000  1
  H  H34  1  0.41910000  0.74070000  0.63120000  1
  H  H35  1  0.41910000  0.75930000  0.13120000  1
  H  H36  1  0.44490000  0.22990000  0.29880000  1
  H  H37  1  0.44490000  0.27010000  0.79880000  1
  H  H38  1  0.48730000  0.55860000  0.76620000  1
  H  H39  1  0.48730000  0.94140000  0.26620000  1
  H  H40  1  0.51270000  0.05860000  0.73380000  1
  H  H41  1  0.51270000  0.44140000  0.23380000  1
  H  H42  1  0.55510000  0.72990000  0.20120000  1
  H  H43  1  0.55510000  0.77010000  0.70120000  1
  H  H44  1  0.58090000  0.24070000  0.86880000  1
  H  H45  1  0.58090000  0.25930000  0.36880000  1
  H  H46  1  0.58970000  0.62030000  0.95470000  1
  H  H47  1  0.58970000  0.87970000  0.45470000  1
  H  H48  1  0.59300000  0.24680000  0.69050000  1
  H  H49  1  0.59300000  0.25320000  0.19050000  1
  H  H50  1  0.64570000  0.02600000  0.80380000  1
  H  H51  1  0.64570000  0.47400000  0.30380000  1
  H  H52  1  0.67880000  0.66100000  0.34170000  1
  H  H53  1  0.67880000  0.83900000  0.84170000  1
  H  H54  1  0.68200000  0.62510000  0.87870000  1
  H  H55  1  0.68200000  0.87490000  0.37870000  1
  H  H56  1  0.68300000  0.24730000  0.61450000  1
  H  H57  1  0.68300000  0.25270000  0.11450000  1
  H  H58  1  0.74960000  0.58830000  0.72140000  1
  H  H59  1  0.74960000  0.91170000  0.22140000  1
  H  H60  1  0.79280000  0.59870000  0.40960000  1
  H  H61  1  0.79280000  0.90130000  0.90960000  1
  H  H62  1  0.84430000  0.67910000  0.23880000  1
  H  H63  1  0.84430000  0.82090000  0.73880000  1
  H  H64  1  0.85680000  0.57810000  0.65010000  1
  H  H65  1  0.85680000  0.92190000  0.15010000  1
  H  H66  1  0.93600000  0.67300000  0.83190000  1
  H  H67  1  0.93600000  0.82700000  0.33190000  1
  H  H68  1  0.95160000  0.68840000  0.16740000  1
  H  H69  1  0.95160000  0.81160000  0.66740000  1
  H  H70  1  0.95320000  0.23380000  0.59950000  1
  H  H71  1  0.95320000  0.26620000  0.09950000  1
  C  C72  1  0.00370000  0.63450000  0.45390000  1
  C  C73  1  0.00370000  0.86550000  0.95390000  1
  C  C74  1  0.01620000  0.18670000  0.89470000  1
  C  C75  1  0.01620000  0.31330000  0.39470000  1
  C  C76  1  0.02750000  0.24430000  0.11170000  1
  C  C77  1  0.02750000  0.25570000  0.61170000  1
  C  C78  1  0.06830000  0.17590000  0.08870000  1
  C  C79  1  0.06830000  0.32410000  0.58870000  1
  C  C80  1  0.08680000  0.19420000  0.84910000  1
  C  C81  1  0.08680000  0.30580000  0.34910000  1
  C  C82  1  0.08990000  0.23410000  0.32190000  1
  C  C83  1  0.08990000  0.26590000  0.82190000  1
  C  C84  1  0.09370000  0.21920000  0.65210000  1
  C  C85  1  0.09370000  0.28080000  0.15210000  1
  C  C86  1  0.14590000  0.12790000  0.83210000  1
  C  C87  1  0.14590000  0.37210000  0.33210000  1
  C  C88  1  0.15300000  0.22890000  0.27910000  1
  C  C89  1  0.15300000  0.27110000  0.77910000  1
  C  C90  1  0.17830000  0.14530000  0.10620000  1
  C  C91  1  0.17830000  0.35470000  0.60620000  1
  C  C92  1  0.20400000  0.24950000  0.66960000  1
  C  C93  1  0.20400000  0.25050000  0.16960000  1
  C  C94  1  0.20860000  0.13390000  0.78940000  1
  C  C95  1  0.20860000  0.36610000  0.28940000  1
  C  C96  1  0.21170000  0.20550000  0.76190000  1
  C  C97  1  0.21170000  0.29450000  0.26190000  1
  C  C98  1  0.24620000  0.18230000  0.14660000  1
  C  C99  1  0.24620000  0.31770000  0.64660000  1
  C  C100  1  0.27490000  0.21210000  0.71450000  1
  C  C101  1  0.27490000  0.28790000  0.21450000  1
  C  C102  1  0.28390000  0.61130000  0.61300000  1
  C  C103  1  0.28390000  0.88870000  0.11300000  1
  C  C104  1  0.37190000  0.63160000  0.65660000  1
  C  C105  1  0.37190000  0.86840000  0.15660000  1
  C  C106  1  0.38140000  0.67960000  0.97640000  1
  C  C107  1  0.38140000  0.82040000  0.47640000  1
  C  C108  1  0.38750000  0.18970000  0.71240000  1
  C  C109  1  0.38750000  0.31030000  0.21240000  1
  C  C110  1  0.39100000  0.72150000  0.88430000  1
  C  C111  1  0.39100000  0.77850000  0.38430000  1
  C  C112  1  0.39280000  0.14990000  0.62000000  1
  C  C113  1  0.39280000  0.35010000  0.12000000  1
  C  C114  1  0.39390000  0.57640000  0.69720000  1
  C  C115  1  0.39390000  0.92360000  0.19720000  1
  C  C116  1  0.43240000  0.70300000  0.65860000  1
  C  C117  1  0.43240000  0.79700000  0.15860000  1
  C  C118  1  0.44360000  0.68330000  0.92800000  1
  C  C119  1  0.44360000  0.81670000  0.42800000  1
  C  C120  1  0.44500000  0.18800000  0.66330000  1
  C  C121  1  0.44500000  0.31200000  0.16330000  1
  C  C122  1  0.44560000  0.72220000  0.83940000  1
  C  C123  1  0.44560000  0.77780000  0.33940000  1
  C  C124  1  0.44750000  0.14710000  0.57470000  1
  C  C125  1  0.44750000  0.35290000  0.07470000  1
  C  C126  1  0.46670000  0.16740000  0.75910000  1
  C  C127  1  0.46670000  0.33260000  0.25910000  1
  C  C128  1  0.47370000  0.59590000  0.73860000  1
  C  C129  1  0.47370000  0.90410000  0.23860000  1
  C  C130  1  0.48680000  0.22060000  0.79950000  1
  C  C131  1  0.48680000  0.27940000  0.29950000  1
  C  C132  1  0.51320000  0.72060000  0.70050000  1
  C  C133  1  0.51320000  0.77940000  0.20050000  1
  C  C134  1  0.52630000  0.09590000  0.76140000  1
  C  C135  1  0.52630000  0.40410000  0.26140000  1
  C  C136  1  0.53330000  0.66740000  0.74090000  1
  C  C137  1  0.53330000  0.83260000  0.24090000  1
  C  C138  1  0.55250000  0.64710000  0.92530000  1
  C  C139  1  0.55250000  0.85290000  0.42530000  1
  C  C140  1  0.55440000  0.22220000  0.66060000  1
  C  C141  1  0.55440000  0.27780000  0.16060000  1
  C  C142  1  0.55500000  0.68800000  0.83670000  1
  C  C143  1  0.55500000  0.81200000  0.33670000  1
  C  C144  1  0.55640000  0.18330000  0.57200000  1
  C  C145  1  0.55640000  0.31670000  0.07200000  1
  C  C146  1  0.56760000  0.20300000  0.84140000  1
  C  C147  1  0.56760000  0.29700000  0.34140000  1
  C  C148  1  0.60610000  0.07640000  0.80280000  1
  C  C149  1  0.60610000  0.42360000  0.30280000  1
  C  C150  1  0.60720000  0.64990000  0.88000000  1
  C  C151  1  0.60720000  0.85010000  0.38000000  1
  C  C152  1  0.60900000  0.22150000  0.61570000  1
  C  C153  1  0.60900000  0.27850000  0.11570000  1
  C  C154  1  0.61250000  0.68970000  0.78760000  1
  C  C155  1  0.61250000  0.81030000  0.28760000  1
  C  C156  1  0.61860000  0.17960000  0.52360000  1
  C  C157  1  0.61860000  0.32040000  0.02360000  1
  C  C158  1  0.62810000  0.13160000  0.84340000  1
  C  C159  1  0.62810000  0.36840000  0.34340000  1
  C  C160  1  0.71610000  0.11130000  0.88700000  1
  C  C161  1  0.71610000  0.38870000  0.38700000  1
  C  C162  1  0.72510000  0.71210000  0.78550000  1
  C  C163  1  0.72510000  0.78790000  0.28550000  1
  C  C164  1  0.75380000  0.68230000  0.35340000  1
  C  C165  1  0.75380000  0.81770000  0.85340000  1
  C  C166  1  0.78830000  0.70550000  0.73810000  1
  C  C167  1  0.78830000  0.79450000  0.23810000  1
  C  C168  1  0.79140000  0.63390000  0.71060000  1
  C  C169  1  0.79140000  0.86610000  0.21060000  1
  C  C170  1  0.79600000  0.74950000  0.83040000  1
  C  C171  1  0.79600000  0.75050000  0.33040000  1
  C  C172  1  0.82170000  0.64530000  0.39380000  1
  C  C173  1  0.82170000  0.85470000  0.89380000  1
  C  C174  1  0.84700000  0.72890000  0.22090000  1
  C  C175  1  0.84700000  0.77110000  0.72090000  1
  C  C176  1  0.85410000  0.62790000  0.66790000  1
  C  C177  1  0.85410000  0.87210000  0.16790000  1
  C  C178  1  0.90630000  0.71920000  0.84790000  1
  C  C179  1  0.90630000  0.78080000  0.34790000  1
  C  C180  1  0.91010000  0.73410000  0.17810000  1
  C  C181  1  0.91010000  0.76590000  0.67810000  1
  C  C182  1  0.91320000  0.69420000  0.65090000  1
  C  C183  1  0.91320000  0.80580000  0.15090000  1
  C  C184  1  0.93170000  0.67590000  0.41130000  1
  C  C185  1  0.93170000  0.82410000  0.91130000  1
  C  C186  1  0.97250000  0.74430000  0.38830000  1
  C  C187  1  0.97250000  0.75570000  0.88830000  1
  C  C188  1  0.98380000  0.68670000  0.60530000  1
  C  C189  1  0.98380000  0.81330000  0.10530000  1
  C  C190  1  0.99630000  0.13450000  0.04610000  1
  C  C191  1  0.99630000  0.36550000  0.54610000  1
  O  O192  1  0.01980000  0.06350000  0.03498000  1
  O  O193  1  0.01980000  0.43650000  0.53498000  1
  O  O194  1  0.02160000  0.12190000  0.91878000  1
  O  O195  1  0.02160000  0.37810000  0.41878000  1
  O  O196  1  0.04460000  0.74850000  0.59542000  1
  O  O197  1  0.04460000  0.75150000  0.09542000  1
  O  O198  1  0.08820000  0.67050000  0.47771000  1
  O  O199  1  0.08820000  0.82950000  0.97771000  1
  O  O200  1  0.22420000  0.54810000  0.61599000  1
  O  O201  1  0.22420000  0.95190000  0.11599000  1
  O  O202  1  0.27210000  0.65790000  0.57458000  1
  O  O203  1  0.27210000  0.84210000  0.07458000  1
  O  O204  1  0.28930000  0.71920000  0.97662000  1
  O  O205  1  0.28930000  0.78080000  0.47662000  1
  O  O206  1  0.42600000  0.63720000  0.01250000  1
  O  O207  1  0.42600000  0.86280000  0.51250000  1
  O  O208  1  0.57400000  0.13720000  0.48750000  1
  O  O209  1  0.57400000  0.36280000  0.98750000  1
  O  O210  1  0.71070000  0.21920000  0.52338000  1
  O  O211  1  0.71070000  0.28080000  0.02338000  1
  O  O212  1  0.72790000  0.15790000  0.92542000  1
  O  O213  1  0.72790000  0.34210000  0.42542000  1
  O  O214  1  0.77580000  0.04810000  0.88401000  1
  O  O215  1  0.77580000  0.45190000  0.38401000  1
  O  O216  1  0.91180000  0.17050000  0.02229000  1
  O  O217  1  0.91180000  0.32950000  0.52229000  1
  O  O218  1  0.95540000  0.24850000  0.90458000  1
  O  O219  1  0.95540000  0.25150000  0.40458000  1
  O  O220  1  0.97840000  0.62190000  0.58122000  1
  O  O221  1  0.97840000  0.87810000  0.08122000  1
  O  O222  1  0.98020000  0.56350000  0.46502000  1
  O  O223  1  0.98020000  0.93650000  0.96502000  1
