# generated using pymatgen
data_Zn2H16C21O10
_symmetry_space_group_name_H-M   'P 1'
_cell_length_a   7.80800000
_cell_length_b   17.45600000
_cell_length_c   18.31250000
_cell_angle_alpha   90.00000000
_cell_angle_beta   97.72120000
_cell_angle_gamma   90.00000000
_symmetry_Int_Tables_number   1
_chemical_formula_structural   Zn2H16C21O10
_chemical_formula_sum   'Zn8 H64 C84 O40'
_cell_volume   2473.29950537
_cell_formula_units_Z   4
loop_
 _symmetry_equiv_pos_site_id
 _symmetry_equiv_pos_as_xyz
  1  'x, y, z'
loop_
 _atom_site_type_symbol
 _atom_site_label
 _atom_site_symmetry_multiplicity
 _atom_site_fract_x
 _atom_site_fract_y
 _atom_site_fract_z
 _atom_site_occupancy
  Zn  Zn0  1  0.01067000  0.79801000  0.21983000  1
  Zn  Zn1  1  0.15428000  0.62004000  0.61353000  1
  Zn  Zn2  1  0.34572000  0.12004000  0.88647000  1
  Zn  Zn3  1  0.48933000  0.29801000  0.28017000  1
  Zn  Zn4  1  0.51067000  0.70199000  0.71983000  1
  Zn  Zn5  1  0.65428000  0.87996000  0.11353000  1
  Zn  Zn6  1  0.84572000  0.37996000  0.38647000  1
  Zn  Zn7  1  0.98933000  0.20199000  0.78017000  1
  H  H8  1  0.03940000  0.47550000  0.82270000  1
  H  H9  1  0.04480000  0.46490000  0.97140000  1
  H  H10  1  0.05170000  0.80520000  0.51350000  1
  H  H11  1  0.06180000  0.12580000  0.46540000  1
  H  H12  1  0.09360000  0.96000000  0.47250000  1
  H  H13  1  0.09700000  0.49260000  0.12980000  1
  H  H14  1  0.13470000  0.65650000  0.83200000  1
  H  H15  1  0.15610000  0.35860000  0.94070000  1
  H  H16  1  0.17070000  0.20690000  0.34050000  1
  H  H17  1  0.17310000  0.51000000  0.92950000  1
  H  H18  1  0.19420000  0.89240000  0.43980000  1
  H  H19  1  0.20380000  0.22260000  0.06940000  1
  H  H20  1  0.21100000  0.98710000  0.28250000  1
  H  H21  1  0.21400000  0.90450000  0.60030000  1
  H  H22  1  0.22400000  0.23940000  0.46450000  1
  H  H23  1  0.23400000  0.89860000  0.77570000  1
  H  H24  1  0.26600000  0.39860000  0.72430000  1
  H  H25  1  0.27600000  0.73940000  0.03550000  1
  H  H26  1  0.28600000  0.40450000  0.89970000  1
  H  H27  1  0.28900000  0.48710000  0.21750000  1
  H  H28  1  0.29620000  0.72260000  0.43060000  1
  H  H29  1  0.30580000  0.39240000  0.06020000  1
  H  H30  1  0.32690000  0.01000000  0.57050000  1
  H  H31  1  0.32930000  0.70690000  0.15950000  1
  H  H32  1  0.34390000  0.85860000  0.55930000  1
  H  H33  1  0.36530000  0.15650000  0.66800000  1
  H  H34  1  0.40300000  0.99260000  0.37020000  1
  H  H35  1  0.40640000  0.46000000  0.02750000  1
  H  H36  1  0.43820000  0.62580000  0.03460000  1
  H  H37  1  0.44830000  0.30520000  0.98650000  1
  H  H38  1  0.45520000  0.96490000  0.52860000  1
  H  H39  1  0.46060000  0.97550000  0.67730000  1
  H  H40  1  0.53940000  0.02450000  0.32270000  1
  H  H41  1  0.54480000  0.03510000  0.47140000  1
  H  H42  1  0.55170000  0.69480000  0.01350000  1
  H  H43  1  0.56180000  0.37420000  0.96540000  1
  H  H44  1  0.59360000  0.54000000  0.97250000  1
  H  H45  1  0.59700000  0.00740000  0.62980000  1
  H  H46  1  0.63470000  0.84350000  0.33200000  1
  H  H47  1  0.65610000  0.14140000  0.44070000  1
  H  H48  1  0.67070000  0.29310000  0.84050000  1
  H  H49  1  0.67310000  0.99000000  0.42950000  1
  H  H50  1  0.69420000  0.60760000  0.93980000  1
  H  H51  1  0.70380000  0.27740000  0.56940000  1
  H  H52  1  0.71100000  0.51290000  0.78250000  1
  H  H53  1  0.71400000  0.59550000  0.10030000  1
  H  H54  1  0.72400000  0.26060000  0.96450000  1
  H  H55  1  0.73400000  0.60140000  0.27570000  1
  H  H56  1  0.76600000  0.10140000  0.22430000  1
  H  H57  1  0.77600000  0.76060000  0.53550000  1
  H  H58  1  0.78600000  0.09550000  0.39970000  1
  H  H59  1  0.78900000  0.01290000  0.71750000  1
  H  H60  1  0.79620000  0.77740000  0.93060000  1
  H  H61  1  0.80580000  0.10760000  0.56020000  1
  H  H62  1  0.82690000  0.49000000  0.07050000  1
  H  H63  1  0.82930000  0.79310000  0.65950000  1
  H  H64  1  0.84390000  0.64140000  0.05930000  1
  H  H65  1  0.86530000  0.34350000  0.16800000  1
  H  H66  1  0.90300000  0.50740000  0.87020000  1
  H  H67  1  0.90640000  0.04000000  0.52750000  1
  H  H68  1  0.93820000  0.87420000  0.53460000  1
  H  H69  1  0.94830000  0.19480000  0.48650000  1
  H  H70  1  0.95520000  0.53510000  0.02860000  1
  H  H71  1  0.96060000  0.52450000  0.17730000  1
  C  C72  1  0.00090000  0.85390000  0.49660000  1
  C  C73  1  0.01880000  0.53480000  0.13480000  1
  C  C74  1  0.02300000  0.96520000  0.75310000  1
  C  C75  1  0.02720000  0.76390000  0.99380000  1
  C  C76  1  0.02760000  0.19960000  0.93860000  1
  C  C77  1  0.05060000  0.83570000  0.71360000  1
  C  C78  1  0.05510000  0.28520000  0.12930000  1
  C  C79  1  0.09490000  0.24440000  0.06840000  1
  C  C80  1  0.10110000  0.03730000  0.78720000  1
  C  C81  1  0.10710000  0.46290000  0.92910000  1
  C  C82  1  0.10730000  0.68370000  0.87260000  1
  C  C83  1  0.12050000  0.16300000  0.31800000  1
  C  C84  1  0.12130000  0.89990000  0.75150000  1
  C  C85  1  0.13990000  0.90880000  0.48180000  1
  C  C86  1  0.14680000  0.03210000  0.28220000  1
  C  C87  1  0.16260000  0.76830000  0.70140000  1
  C  C88  1  0.19270000  0.73280000  0.99470000  1
  C  C89  1  0.19350000  0.29900000  0.19310000  1
  C  C90  1  0.21750000  0.09690000  0.31650000  1
  C  C91  1  0.22000000  0.40620000  0.94100000  1
  C  C92  1  0.23070000  0.69210000  0.93390000  1
  C  C93  1  0.26930000  0.19210000  0.56610000  1
  C  C94  1  0.28000000  0.90620000  0.55900000  1
  C  C95  1  0.28250000  0.59690000  0.18350000  1
  C  C96  1  0.30650000  0.79900000  0.30690000  1
  C  C97  1  0.30730000  0.23280000  0.50530000  1
  C  C98  1  0.33740000  0.26830000  0.79860000  1
  C  C99  1  0.35320000  0.53210000  0.21780000  1
  C  C100  1  0.36010000  0.40880000  0.01820000  1
  C  C101  1  0.37870000  0.39990000  0.74850000  1
  C  C102  1  0.37950000  0.66300000  0.18200000  1
  C  C103  1  0.39270000  0.18370000  0.62740000  1
  C  C104  1  0.39290000  0.96290000  0.57090000  1
  C  C105  1  0.39890000  0.53730000  0.71280000  1
  C  C106  1  0.40510000  0.74440000  0.43160000  1
  C  C107  1  0.44490000  0.78520000  0.37070000  1
  C  C108  1  0.44940000  0.33570000  0.78640000  1
  C  C109  1  0.47240000  0.69960000  0.56140000  1
  C  C110  1  0.47280000  0.26390000  0.50620000  1
  C  C111  1  0.47700000  0.46520000  0.74690000  1
  C  C112  1  0.48120000  0.03480000  0.36520000  1
  C  C113  1  0.49910000  0.35390000  0.00340000  1
  C  C114  1  0.50090000  0.64610000  0.99660000  1
  C  C115  1  0.51880000  0.96520000  0.63480000  1
  C  C116  1  0.52300000  0.53480000  0.25310000  1
  C  C117  1  0.52720000  0.73610000  0.49380000  1
  C  C118  1  0.52760000  0.30040000  0.43860000  1
  C  C119  1  0.55060000  0.66430000  0.21360000  1
  C  C120  1  0.55510000  0.21480000  0.62930000  1
  C  C121  1  0.59490000  0.25560000  0.56840000  1
  C  C122  1  0.60110000  0.46270000  0.28720000  1
  C  C123  1  0.60710000  0.03710000  0.42910000  1
  C  C124  1  0.60730000  0.81630000  0.37260000  1
  C  C125  1  0.62050000  0.33700000  0.81800000  1
  C  C126  1  0.62130000  0.60010000  0.25150000  1
  C  C127  1  0.63990000  0.59120000  0.98180000  1
  C  C128  1  0.64680000  0.46790000  0.78220000  1
  C  C129  1  0.66260000  0.73170000  0.20140000  1
  C  C130  1  0.69270000  0.76720000  0.49470000  1
  C  C131  1  0.69350000  0.20100000  0.69310000  1
  C  C132  1  0.71750000  0.40310000  0.81650000  1
  C  C133  1  0.72000000  0.09380000  0.44100000  1
  C  C134  1  0.73070000  0.80790000  0.43390000  1
  C  C135  1  0.76930000  0.30790000  0.06610000  1
  C  C136  1  0.78000000  0.59380000  0.05900000  1
  C  C137  1  0.78250000  0.90310000  0.68350000  1
  C  C138  1  0.80650000  0.70100000  0.80690000  1
  C  C139  1  0.80730000  0.26720000  0.00530000  1
  C  C140  1  0.83740000  0.23170000  0.29860000  1
  C  C141  1  0.85320000  0.96790000  0.71780000  1
  C  C142  1  0.86010000  0.09120000  0.51820000  1
  C  C143  1  0.87870000  0.10010000  0.24850000  1
  C  C144  1  0.87950000  0.83700000  0.68200000  1
  C  C145  1  0.89270000  0.31630000  0.12740000  1
  C  C146  1  0.89290000  0.53710000  0.07090000  1
  C  C147  1  0.89890000  0.96270000  0.21280000  1
  C  C148  1  0.90510000  0.75560000  0.93160000  1
  C  C149  1  0.94490000  0.71480000  0.87070000  1
  C  C150  1  0.94940000  0.16430000  0.28640000  1
  C  C151  1  0.97240000  0.80040000  0.06140000  1
  C  C152  1  0.97280000  0.23610000  0.00620000  1
  C  C153  1  0.97700000  0.03480000  0.24690000  1
  C  C154  1  0.98120000  0.46520000  0.86520000  1
  C  C155  1  0.99910000  0.14610000  0.50340000  1
  O  O156  1  0.06130000  0.09880000  0.75700000  1
  O  O157  1  0.07510000  0.79400000  0.12070000  1
  O  O158  1  0.09340000  0.71530000  0.66000000  1
  O  O159  1  0.11300000  0.15660000  0.56970000  1
  O  O160  1  0.11640000  0.60220000  0.14810000  1
  O  O161  1  0.16940000  0.16680000  0.94570000  1
  O  O162  1  0.17280000  0.75590000  0.30090000  1
  O  O163  1  0.17670000  0.35150000  0.23700000  1
  O  O164  1  0.18160000  0.27060000  0.76900000  1
  O  O165  1  0.20830000  0.03060000  0.84610000  1
  O  O166  1  0.29170000  0.53060000  0.65390000  1
  O  O167  1  0.31840000  0.77060000  0.73100000  1
  O  O168  1  0.32330000  0.85150000  0.26300000  1
  O  O169  1  0.32720000  0.25590000  0.19910000  1
  O  O170  1  0.33060000  0.66680000  0.55430000  1
  O  O171  1  0.38360000  0.10220000  0.35190000  1
  O  O172  1  0.38700000  0.65660000  0.93030000  1
  O  O173  1  0.40660000  0.21530000  0.84000000  1
  O  O174  1  0.42490000  0.29400000  0.37930000  1
  O  O175  1  0.43870000  0.59880000  0.74300000  1
  O  O176  1  0.56130000  0.40120000  0.25700000  1
  O  O177  1  0.57510000  0.70600000  0.62070000  1
  O  O178  1  0.59340000  0.78470000  0.16000000  1
  O  O179  1  0.61300000  0.34340000  0.06970000  1
  O  O180  1  0.61640000  0.89780000  0.64810000  1
  O  O181  1  0.66940000  0.33320000  0.44570000  1
  O  O182  1  0.67280000  0.74410000  0.80090000  1
  O  O183  1  0.67670000  0.14850000  0.73700000  1
  O  O184  1  0.68160000  0.22940000  0.26900000  1
  O  O185  1  0.70830000  0.46940000  0.34610000  1
  O  O186  1  0.79170000  0.96940000  0.15390000  1
  O  O187  1  0.81840000  0.72940000  0.23100000  1
  O  O188  1  0.82330000  0.64850000  0.76300000  1
  O  O189  1  0.82720000  0.24410000  0.69910000  1
  O  O190  1  0.83060000  0.83320000  0.05430000  1
  O  O191  1  0.88360000  0.39780000  0.85190000  1
  O  O192  1  0.88700000  0.84340000  0.43030000  1
  O  O193  1  0.90660000  0.28470000  0.34000000  1
  O  O194  1  0.92490000  0.20600000  0.87930000  1
  O  O195  1  0.93870000  0.90120000  0.24300000  1
