# generated using pymatgen
data_AgH18(C4N)4
_symmetry_space_group_name_H-M   'P 1'
_cell_length_a   11.54000000
_cell_length_b   11.54000000
_cell_length_c   14.94300000
_cell_angle_alpha   90.00000000
_cell_angle_beta   90.00000000
_cell_angle_gamma   90.00000000
_symmetry_Int_Tables_number   1
_chemical_formula_structural   AgH18(C4N)4
_chemical_formula_sum   'Ag4 H72 C64 N16'
_cell_volume   1989.98321880
_cell_formula_units_Z   4
loop_
 _symmetry_equiv_pos_site_id
 _symmetry_equiv_pos_as_xyz
  1  'x, y, z'
loop_
 _atom_site_type_symbol
 _atom_site_label
 _atom_site_symmetry_multiplicity
 _atom_site_fract_x
 _atom_site_fract_y
 _atom_site_fract_z
 _atom_site_occupancy
  Ag  Ag0  1  0.00000000  0.00000000  0.14600000  1
  Ag  Ag1  1  0.00000000  0.50000000  0.89600000  1
  Ag  Ag2  1  0.50000000  0.00000000  0.39600000  1
  Ag  Ag3  1  0.50000000  0.50000000  0.64600000  1
  H  H4  1  0.03330000  0.24690000  0.80760000  1
  H  H5  1  0.05720000  0.09490000  0.46070000  1
  H  H6  1  0.06840000  0.75900000  0.43540000  1
  H  H7  1  0.09560000  0.05770000  0.83190000  1
  H  H8  1  0.10970000  0.67010000  0.35970000  1
  H  H9  1  0.13260000  0.75610000  0.07280000  1
  H  H10  1  0.13470000  0.34150000  0.04840000  1
  H  H11  1  0.15500000  0.19620000  0.21380000  1
  H  H12  1  0.15900000  0.63250000  0.74500000  1
  H  H13  1  0.17360000  0.37900000  0.43690000  1
  H  H14  1  0.18460000  0.78370000  0.38010000  1
  H  H15  1  0.19430000  0.15420000  0.08010000  1
  H  H16  1  0.20410000  0.73120000  0.21870000  1
  H  H17  1  0.20750000  0.81920000  0.90690000  1
  H  H18  1  0.23400000  0.29440000  0.57510000  1
  H  H19  1  0.24480000  0.86410000  0.22210000  1
  H  H20  1  0.24710000  0.03170000  0.48530000  1
  H  H21  1  0.24920000  0.93670000  0.85990000  1
  H  H22  1  0.25080000  0.43670000  0.35990000  1
  H  H23  1  0.25290000  0.53170000  0.98530000  1
  H  H24  1  0.25520000  0.36410000  0.72210000  1
  H  H25  1  0.26600000  0.79440000  0.07510000  1
  H  H26  1  0.29250000  0.31920000  0.40690000  1
  H  H27  1  0.29590000  0.23120000  0.71870000  1
  H  H28  1  0.30570000  0.65420000  0.58010000  1
  H  H29  1  0.31540000  0.28370000  0.88010000  1
  H  H30  1  0.32640000  0.87900000  0.93690000  1
  H  H31  1  0.34100000  0.13250000  0.24500000  1
  H  H32  1  0.34500000  0.69620000  0.71380000  1
  H  H33  1  0.36530000  0.84150000  0.54840000  1
  H  H34  1  0.36740000  0.25610000  0.57280000  1
  H  H35  1  0.39030000  0.17010000  0.85970000  1
  H  H36  1  0.40440000  0.55770000  0.33190000  1
  H  H37  1  0.43160000  0.25900000  0.93540000  1
  H  H38  1  0.44280000  0.59490000  0.96070000  1
  H  H39  1  0.46670000  0.74690000  0.30760000  1
  H  H40  1  0.53330000  0.25310000  0.30760000  1
  H  H41  1  0.55720000  0.40510000  0.96070000  1
  H  H42  1  0.56840000  0.74100000  0.93540000  1
  H  H43  1  0.59560000  0.44230000  0.33190000  1
  H  H44  1  0.60970000  0.82990000  0.85970000  1
  H  H45  1  0.63260000  0.74390000  0.57280000  1
  H  H46  1  0.63470000  0.15850000  0.54840000  1
  H  H47  1  0.65500000  0.30380000  0.71380000  1
  H  H48  1  0.65900000  0.86750000  0.24500000  1
  H  H49  1  0.67360000  0.12100000  0.93690000  1
  H  H50  1  0.68460000  0.71630000  0.88010000  1
  H  H51  1  0.69430000  0.34580000  0.58010000  1
  H  H52  1  0.70410000  0.76880000  0.71870000  1
  H  H53  1  0.70750000  0.68080000  0.40690000  1
  H  H54  1  0.73400000  0.20560000  0.07510000  1
  H  H55  1  0.74480000  0.63590000  0.72210000  1
  H  H56  1  0.74710000  0.46830000  0.98530000  1
  H  H57  1  0.74920000  0.56330000  0.35990000  1
  H  H58  1  0.75080000  0.06330000  0.85990000  1
  H  H59  1  0.75290000  0.96830000  0.48530000  1
  H  H60  1  0.75520000  0.13590000  0.22210000  1
  H  H61  1  0.76600000  0.70560000  0.57510000  1
  H  H62  1  0.79250000  0.18080000  0.90690000  1
  H  H63  1  0.79590000  0.26880000  0.21870000  1
  H  H64  1  0.80570000  0.84580000  0.08010000  1
  H  H65  1  0.81540000  0.21630000  0.38010000  1
  H  H66  1  0.82640000  0.62100000  0.43690000  1
  H  H67  1  0.84100000  0.36750000  0.74500000  1
  H  H68  1  0.84500000  0.80380000  0.21380000  1
  H  H69  1  0.86530000  0.65850000  0.04840000  1
  H  H70  1  0.86740000  0.24390000  0.07280000  1
  H  H71  1  0.89030000  0.32990000  0.35970000  1
  H  H72  1  0.90440000  0.94230000  0.83190000  1
  H  H73  1  0.93160000  0.24100000  0.43540000  1
  H  H74  1  0.94280000  0.90510000  0.46070000  1
  H  H75  1  0.96670000  0.75310000  0.80760000  1
  C  C76  1  0.03760000  0.81760000  0.30850000  1
  C  C77  1  0.06530000  0.22740000  0.86420000  1
  C  C78  1  0.08440000  0.14820000  0.33280000  1
  C  C79  1  0.10180000  0.11390000  0.87810000  1
  C  C80  1  0.10590000  0.75190000  0.37680000  1
  C  C81  1  0.11360000  0.10170000  0.41470000  1
  C  C82  1  0.12370000  0.28260000  0.00470000  1
  C  C83  1  0.14780000  0.08450000  0.96170000  1
  C  C84  1  0.16030000  0.17090000  0.02360000  1
  C  C85  1  0.17140000  0.16110000  0.27000000  1
  C  C86  1  0.18320000  0.96230000  0.98520000  1
  C  C87  1  0.18560000  0.81050000  0.19780000  1
  C  C88  1  0.18740000  0.81440000  0.09670000  1
  C  C89  1  0.21760000  0.62290000  0.78900000  1
  C  C90  1  0.22780000  0.06440000  0.42890000  1
  C  C91  1  0.24710000  0.89340000  0.91630000  1
  C  C92  1  0.25290000  0.39340000  0.41630000  1
  C  C93  1  0.27220000  0.56440000  0.92890000  1
  C  C94  1  0.28240000  0.12290000  0.28900000  1
  C  C95  1  0.31260000  0.31440000  0.59670000  1
  C  C96  1  0.31440000  0.31050000  0.69780000  1
  C  C97  1  0.31680000  0.46230000  0.48520000  1
  C  C98  1  0.32860000  0.66110000  0.77000000  1
  C  C99  1  0.33970000  0.67090000  0.52360000  1
  C  C100  1  0.35220000  0.58450000  0.46170000  1
  C  C101  1  0.37630000  0.78260000  0.50470000  1
  C  C102  1  0.38640000  0.60170000  0.91470000  1
  C  C103  1  0.39410000  0.25190000  0.87680000  1
  C  C104  1  0.39820000  0.61390000  0.37810000  1
  C  C105  1  0.41560000  0.64820000  0.83280000  1
  C  C106  1  0.43470000  0.72740000  0.36420000  1
  C  C107  1  0.46240000  0.31760000  0.80850000  1
  C  C108  1  0.53760000  0.68240000  0.80850000  1
  C  C109  1  0.56530000  0.27260000  0.36420000  1
  C  C110  1  0.58440000  0.35180000  0.83280000  1
  C  C111  1  0.60180000  0.38610000  0.37810000  1
  C  C112  1  0.60590000  0.74810000  0.87680000  1
  C  C113  1  0.61360000  0.39830000  0.91470000  1
  C  C114  1  0.62370000  0.21740000  0.50470000  1
  C  C115  1  0.64780000  0.41550000  0.46170000  1
  C  C116  1  0.66030000  0.32910000  0.52360000  1
  C  C117  1  0.67140000  0.33890000  0.77000000  1
  C  C118  1  0.68320000  0.53770000  0.48520000  1
  C  C119  1  0.68560000  0.68950000  0.69780000  1
  C  C120  1  0.68740000  0.68560000  0.59670000  1
  C  C121  1  0.71760000  0.87710000  0.28900000  1
  C  C122  1  0.72780000  0.43560000  0.92890000  1
  C  C123  1  0.74710000  0.60660000  0.41630000  1
  C  C124  1  0.75290000  0.10660000  0.91630000  1
  C  C125  1  0.77220000  0.93560000  0.42890000  1
  C  C126  1  0.78240000  0.37710000  0.78900000  1
  C  C127  1  0.81260000  0.18560000  0.09670000  1
  C  C128  1  0.81440000  0.18950000  0.19780000  1
  C  C129  1  0.81680000  0.03770000  0.98520000  1
  C  C130  1  0.82860000  0.83890000  0.27000000  1
  C  C131  1  0.83970000  0.82910000  0.02360000  1
  C  C132  1  0.85220000  0.91550000  0.96170000  1
  C  C133  1  0.87630000  0.71740000  0.00470000  1
  C  C134  1  0.88640000  0.89830000  0.41470000  1
  C  C135  1  0.89410000  0.24810000  0.37680000  1
  C  C136  1  0.89820000  0.88610000  0.87810000  1
  C  C137  1  0.91560000  0.85180000  0.33280000  1
  C  C138  1  0.93470000  0.77260000  0.86420000  1
  C  C139  1  0.96240000  0.18240000  0.30850000  1
  N  N140  1  0.07050000  0.84440000  0.23000000  1
  N  N141  1  0.07280000  0.31040000  0.92620000  1
  N  N142  1  0.15540000  0.92930000  0.06340000  1
  N  N143  1  0.18960000  0.57270000  0.86720000  1
  N  N144  1  0.31040000  0.07270000  0.36720000  1
  N  N145  1  0.34460000  0.42930000  0.56340000  1
  N  N146  1  0.42720000  0.81040000  0.42620000  1
  N  N147  1  0.42950000  0.34440000  0.73000000  1
  N  N148  1  0.57050000  0.65560000  0.73000000  1
  N  N149  1  0.57280000  0.18960000  0.42620000  1
  N  N150  1  0.65540000  0.57070000  0.56340000  1
  N  N151  1  0.68960000  0.92730000  0.36720000  1
  N  N152  1  0.81040000  0.42730000  0.86720000  1
  N  N153  1  0.84460000  0.07070000  0.06340000  1
  N  N154  1  0.92720000  0.68960000  0.92620000  1
  N  N155  1  0.92950000  0.15560000  0.23000000  1
