# generated using pymatgen
data_Cd2H25C29(N2O3)2
_symmetry_space_group_name_H-M   'P 1'
_cell_length_a   14.49790000
_cell_length_b   15.47160000
_cell_length_c   17.51250000
_cell_angle_alpha   90.00000000
_cell_angle_beta   90.00000000
_cell_angle_gamma   90.00000000
_symmetry_Int_Tables_number   1
_chemical_formula_structural   Cd2H25C29(N2O3)2
_chemical_formula_sum   'Cd8 H100 C116 N16 O24'
_cell_volume   3928.15374007
_cell_formula_units_Z   4
loop_
 _symmetry_equiv_pos_site_id
 _symmetry_equiv_pos_as_xyz
  1  'x, y, z'
loop_
 _atom_site_type_symbol
 _atom_site_label
 _atom_site_symmetry_multiplicity
 _atom_site_fract_x
 _atom_site_fract_y
 _atom_site_fract_z
 _atom_site_occupancy
  Cd  Cd0  1  0.06998000  0.72697000  0.57585000  1
  Cd  Cd1  1  0.12786000  0.27297000  0.04072000  1
  Cd  Cd2  1  0.37214000  0.77297000  0.54072000  1
  Cd  Cd3  1  0.43002000  0.22697000  0.07585000  1
  Cd  Cd4  1  0.56998000  0.72697000  0.92415000  1
  Cd  Cd5  1  0.62786000  0.27297000  0.45928000  1
  Cd  Cd6  1  0.87214000  0.77297000  0.95928000  1
  Cd  Cd7  1  0.93002000  0.22697000  0.42415000  1
  H  H8  1  0.05450000  0.52670000  0.52560000  1
  H  H9  1  0.05780000  0.52970000  0.91560000  1
  H  H10  1  0.06280000  0.76390000  0.75390000  1
  H  H11  1  0.06940000  0.43340000  0.42490000  1
  H  H12  1  0.08140000  0.86630000  0.84760000  1
  H  H13  1  0.10100000  0.13660000  0.76430000  1
  H  H14  1  0.10900000  0.24090000  0.85670000  1
  H  H15  1  0.10900000  0.55940000  0.20240000  1
  H  H16  1  0.11250000  0.56720000  0.98550000  1
  H  H17  1  0.11740000  0.47060000  0.09810000  1
  H  H18  1  0.11920000  0.63680000  0.83520000  1
  H  H19  1  0.13690000  0.92600000  0.59780000  1
  H  H20  1  0.13890000  0.96000000  0.92720000  1
  H  H21  1  0.14490000  0.71800000  0.40540000  1
  H  H22  1  0.14580000  0.07030000  0.01490000  1
  H  H23  1  0.14850000  0.35120000  0.33450000  1
  H  H24  1  0.15320000  0.03510000  0.68360000  1
  H  H25  1  0.15470000  0.26900000  0.22610000  1
  H  H26  1  0.16200000  0.00970000  0.41070000  1
  H  H27  1  0.16340000  0.63290000  0.30120000  1
  H  H28  1  0.19390000  0.49030000  0.85580000  1
  H  H29  1  0.20610000  0.05380000  0.48260000  1
  H  H30  1  0.20980000  0.12350000  0.33320000  1
  H  H31  1  0.21310000  0.70280000  0.96420000  1
  H  H32  1  0.21530000  0.74520000  0.88280000  1
  H  H33  1  0.28470000  0.24520000  0.38280000  1
  H  H34  1  0.28690000  0.20280000  0.46420000  1
  H  H35  1  0.29020000  0.62350000  0.83320000  1
  H  H36  1  0.29390000  0.55380000  0.98260000  1
  H  H37  1  0.30610000  0.99030000  0.35580000  1
  H  H38  1  0.33660000  0.13290000  0.80120000  1
  H  H39  1  0.33800000  0.50970000  0.91070000  1
  H  H40  1  0.34530000  0.76900000  0.72610000  1
  H  H41  1  0.34680000  0.53510000  0.18360000  1
  H  H42  1  0.35150000  0.85120000  0.83450000  1
  H  H43  1  0.35420000  0.57030000  0.51490000  1
  H  H44  1  0.35510000  0.21800000  0.90540000  1
  H  H45  1  0.36110000  0.46000000  0.42720000  1
  H  H46  1  0.36310000  0.42600000  0.09780000  1
  H  H47  1  0.38080000  0.13680000  0.33520000  1
  H  H48  1  0.38260000  0.97060000  0.59810000  1
  H  H49  1  0.38750000  0.06720000  0.48550000  1
  H  H50  1  0.39100000  0.05940000  0.70240000  1
  H  H51  1  0.39100000  0.74090000  0.35670000  1
  H  H52  1  0.39900000  0.63660000  0.26430000  1
  H  H53  1  0.41860000  0.36630000  0.34760000  1
  H  H54  1  0.43060000  0.93340000  0.92490000  1
  H  H55  1  0.43720000  0.26390000  0.25390000  1
  H  H56  1  0.44220000  0.02970000  0.41560000  1
  H  H57  1  0.44550000  0.02670000  0.02560000  1
  H  H58  1  0.55450000  0.52670000  0.97440000  1
  H  H59  1  0.55780000  0.52970000  0.58440000  1
  H  H60  1  0.56280000  0.76390000  0.74610000  1
  H  H61  1  0.56940000  0.43340000  0.07510000  1
  H  H62  1  0.58140000  0.86630000  0.65240000  1
  H  H63  1  0.60100000  0.13660000  0.73570000  1
  H  H64  1  0.60900000  0.24090000  0.64330000  1
  H  H65  1  0.60900000  0.55940000  0.29760000  1
  H  H66  1  0.61250000  0.56720000  0.51450000  1
  H  H67  1  0.61740000  0.47060000  0.40190000  1
  H  H68  1  0.61920000  0.63680000  0.66480000  1
  H  H69  1  0.63690000  0.92600000  0.90220000  1
  H  H70  1  0.63890000  0.96000000  0.57280000  1
  H  H71  1  0.64490000  0.71800000  0.09460000  1
  H  H72  1  0.64580000  0.07030000  0.48510000  1
  H  H73  1  0.64850000  0.35120000  0.16550000  1
  H  H74  1  0.65320000  0.03510000  0.81640000  1
  H  H75  1  0.65470000  0.26900000  0.27390000  1
  H  H76  1  0.66200000  0.00970000  0.08930000  1
  H  H77  1  0.66340000  0.63290000  0.19880000  1
  H  H78  1  0.69390000  0.49030000  0.64420000  1
  H  H79  1  0.70610000  0.05380000  0.01740000  1
  H  H80  1  0.70980000  0.12350000  0.16680000  1
  H  H81  1  0.71310000  0.70280000  0.53580000  1
  H  H82  1  0.71530000  0.74520000  0.61720000  1
  H  H83  1  0.78470000  0.24520000  0.11720000  1
  H  H84  1  0.78690000  0.20280000  0.03580000  1
  H  H85  1  0.79020000  0.62350000  0.66680000  1
  H  H86  1  0.79390000  0.55380000  0.51740000  1
  H  H87  1  0.80610000  0.99030000  0.14420000  1
  H  H88  1  0.83660000  0.13290000  0.69880000  1
  H  H89  1  0.83800000  0.50970000  0.58930000  1
  H  H90  1  0.84530000  0.76900000  0.77390000  1
  H  H91  1  0.84680000  0.53510000  0.31640000  1
  H  H92  1  0.85150000  0.85120000  0.66550000  1
  H  H93  1  0.85420000  0.57030000  0.98510000  1
  H  H94  1  0.85510000  0.21800000  0.59460000  1
  H  H95  1  0.86110000  0.46000000  0.07280000  1
  H  H96  1  0.86310000  0.42600000  0.40220000  1
  H  H97  1  0.88080000  0.13680000  0.16480000  1
  H  H98  1  0.88260000  0.97060000  0.90190000  1
  H  H99  1  0.88750000  0.06720000  0.01450000  1
  H  H100  1  0.89100000  0.05940000  0.79760000  1
  H  H101  1  0.89100000  0.74090000  0.14330000  1
  H  H102  1  0.89900000  0.63660000  0.23570000  1
  H  H103  1  0.91860000  0.36630000  0.15240000  1
  H  H104  1  0.93060000  0.93340000  0.57510000  1
  H  H105  1  0.93720000  0.26390000  0.24610000  1
  H  H106  1  0.94220000  0.02970000  0.08440000  1
  H  H107  1  0.94550000  0.02670000  0.47440000  1
  C  C108  1  0.03580000  0.69860000  0.91150000  1
  C  C109  1  0.07540000  0.54850000  0.47920000  1
  C  C110  1  0.08140000  0.81920000  0.73990000  1
  C  C111  1  0.08480000  0.49130000  0.41910000  1
  C  C112  1  0.09100000  0.88100000  0.79670000  1
  C  C113  1  0.11040000  0.12080000  0.81490000  1
  C  C114  1  0.11440000  0.17710000  0.40520000  1
  C  C115  1  0.11450000  0.55840000  0.93070000  1
  C  C116  1  0.11510000  0.18340000  0.87130000  1
  C  C117  1  0.11510000  0.96450000  0.77700000  1
  C  C118  1  0.11780000  0.52240000  0.34940000  1
  C  C119  1  0.11810000  0.50040000  0.20900000  1
  C  C120  1  0.11970000  0.03500000  0.83450000  1
  C  C121  1  0.12050000  0.64680000  0.89040000  1
  C  C122  1  0.12350000  0.44630000  0.14640000  1
  C  C123  1  0.12410000  0.91450000  0.64880000  1
  C  C124  1  0.12650000  0.46580000  0.28210000  1
  C  C125  1  0.12840000  0.66000000  0.40880000  1
  C  C126  1  0.13270000  0.01700000  0.91100000  1
  C  C127  1  0.13420000  0.98060000  0.69970000  1
  C  C128  1  0.13660000  0.08370000  0.96360000  1
  C  C129  1  0.14020000  0.60930000  0.34620000  1
  C  C130  1  0.14140000  0.37730000  0.28710000  1
  C  C131  1  0.14550000  0.32820000  0.22130000  1
  C  C132  1  0.18600000  0.41360000  0.95110000  1
  C  C133  1  0.19610000  0.50110000  0.91090000  1
  C  C134  1  0.20670000  0.13370000  0.38830000  1
  C  C135  1  0.21120000  0.69070000  0.90990000  1
  C  C136  1  0.21250000  0.04590000  0.42790000  1
  C  C137  1  0.28750000  0.54590000  0.92790000  1
  C  C138  1  0.28880000  0.19070000  0.40990000  1
  C  C139  1  0.29330000  0.63370000  0.88830000  1
  C  C140  1  0.30390000  0.00110000  0.41090000  1
  C  C141  1  0.31400000  0.91360000  0.45110000  1
  C  C142  1  0.35450000  0.82820000  0.72130000  1
  C  C143  1  0.35860000  0.87730000  0.78710000  1
  C  C144  1  0.35980000  0.10930000  0.84620000  1
  C  C145  1  0.36340000  0.58370000  0.46360000  1
  C  C146  1  0.36580000  0.48060000  0.19970000  1
  C  C147  1  0.36730000  0.51700000  0.41100000  1
  C  C148  1  0.37160000  0.16000000  0.90880000  1
  C  C149  1  0.37350000  0.96580000  0.78210000  1
  C  C150  1  0.37590000  0.41450000  0.14880000  1
  C  C151  1  0.37650000  0.94630000  0.64640000  1
  C  C152  1  0.37950000  0.14680000  0.39040000  1
  C  C153  1  0.38030000  0.53500000  0.33450000  1
  C  C154  1  0.38190000  0.00040000  0.70900000  1
  C  C155  1  0.38220000  0.02240000  0.84940000  1
  C  C156  1  0.38490000  0.46450000  0.27700000  1
  C  C157  1  0.38490000  0.68340000  0.37130000  1
  C  C158  1  0.38550000  0.05840000  0.43070000  1
  C  C159  1  0.38560000  0.67710000  0.90520000  1
  C  C160  1  0.38960000  0.62080000  0.31490000  1
  C  C161  1  0.40900000  0.38100000  0.29670000  1
  C  C162  1  0.41520000  0.99130000  0.91910000  1
  C  C163  1  0.41860000  0.31920000  0.23990000  1
  C  C164  1  0.42460000  0.04850000  0.97920000  1
  C  C165  1  0.46420000  0.19860000  0.41150000  1
  C  C166  1  0.53580000  0.69860000  0.58850000  1
  C  C167  1  0.57540000  0.54850000  0.02080000  1
  C  C168  1  0.58140000  0.81920000  0.76010000  1
  C  C169  1  0.58480000  0.49130000  0.08090000  1
  C  C170  1  0.59100000  0.88100000  0.70330000  1
  C  C171  1  0.61040000  0.12080000  0.68510000  1
  C  C172  1  0.61440000  0.17710000  0.09480000  1
  C  C173  1  0.61450000  0.55840000  0.56930000  1
  C  C174  1  0.61510000  0.18340000  0.62870000  1
  C  C175  1  0.61510000  0.96450000  0.72300000  1
  C  C176  1  0.61780000  0.52240000  0.15060000  1
  C  C177  1  0.61810000  0.50040000  0.29100000  1
  C  C178  1  0.61970000  0.03500000  0.66550000  1
  C  C179  1  0.62050000  0.64680000  0.60960000  1
  C  C180  1  0.62350000  0.44630000  0.35360000  1
  C  C181  1  0.62410000  0.91450000  0.85120000  1
  C  C182  1  0.62650000  0.46580000  0.21790000  1
  C  C183  1  0.62840000  0.66000000  0.09120000  1
  C  C184  1  0.63270000  0.01700000  0.58900000  1
  C  C185  1  0.63420000  0.98060000  0.80030000  1
  C  C186  1  0.63660000  0.08370000  0.53640000  1
  C  C187  1  0.64020000  0.60930000  0.15380000  1
  C  C188  1  0.64140000  0.37730000  0.21290000  1
  C  C189  1  0.64550000  0.32820000  0.27870000  1
  C  C190  1  0.68600000  0.41360000  0.54890000  1
  C  C191  1  0.69610000  0.50110000  0.58910000  1
  C  C192  1  0.70670000  0.13370000  0.11170000  1
  C  C193  1  0.71120000  0.69070000  0.59010000  1
  C  C194  1  0.71250000  0.04590000  0.07210000  1
  C  C195  1  0.78750000  0.54590000  0.57210000  1
  C  C196  1  0.78880000  0.19070000  0.09010000  1
  C  C197  1  0.79330000  0.63370000  0.61170000  1
  C  C198  1  0.80390000  0.00110000  0.08910000  1
  C  C199  1  0.81400000  0.91360000  0.04890000  1
  C  C200  1  0.85450000  0.82820000  0.77870000  1
  C  C201  1  0.85860000  0.87730000  0.71290000  1
  C  C202  1  0.85980000  0.10930000  0.65380000  1
  C  C203  1  0.86340000  0.58370000  0.03640000  1
  C  C204  1  0.86580000  0.48060000  0.30030000  1
  C  C205  1  0.86730000  0.51700000  0.08900000  1
  C  C206  1  0.87160000  0.16000000  0.59120000  1
  C  C207  1  0.87350000  0.96580000  0.71790000  1
  C  C208  1  0.87590000  0.41450000  0.35120000  1
  C  C209  1  0.87650000  0.94630000  0.85360000  1
  C  C210  1  0.87950000  0.14680000  0.10960000  1
  C  C211  1  0.88030000  0.53500000  0.16550000  1
  C  C212  1  0.88190000  0.00040000  0.79100000  1
  C  C213  1  0.88220000  0.02240000  0.65060000  1
  C  C214  1  0.88490000  0.46450000  0.22300000  1
  C  C215  1  0.88490000  0.68340000  0.12870000  1
  C  C216  1  0.88550000  0.05840000  0.06930000  1
  C  C217  1  0.88560000  0.67710000  0.59480000  1
  C  C218  1  0.88960000  0.62080000  0.18510000  1
  C  C219  1  0.90900000  0.38100000  0.20330000  1
  C  C220  1  0.91520000  0.99130000  0.58090000  1
  C  C221  1  0.91860000  0.31920000  0.26010000  1
  C  C222  1  0.92460000  0.04850000  0.52080000  1
  C  C223  1  0.96420000  0.19860000  0.08850000  1
  N  N224  1  0.09400000  0.63100000  0.47550000  1
  N  N225  1  0.09720000  0.83480000  0.66650000  1
  N  N226  1  0.12750000  0.16680000  0.94360000  1
  N  N227  1  0.13700000  0.36100000  0.15120000  1
  N  N228  1  0.36300000  0.86100000  0.65120000  1
  N  N229  1  0.37250000  0.66680000  0.44360000  1
  N  N230  1  0.40280000  0.33480000  0.16650000  1
  N  N231  1  0.40600000  0.13100000  0.97550000  1
  N  N232  1  0.59400000  0.63100000  0.02450000  1
  N  N233  1  0.59720000  0.83480000  0.83350000  1
  N  N234  1  0.62750000  0.16680000  0.55640000  1
  N  N235  1  0.63700000  0.36100000  0.34880000  1
  N  N236  1  0.86300000  0.86100000  0.84880000  1
  N  N237  1  0.87250000  0.66680000  0.05640000  1
  N  N238  1  0.90280000  0.33480000  0.33350000  1
  N  N239  1  0.90600000  0.13100000  0.52450000  1
  O  O240  1  0.04060000  0.17400000  0.11453000  1
  O  O241  1  0.04220000  0.76230000  0.95510000  1
  O  O242  1  0.05030000  0.16790000  0.35950000  1
  O  O243  1  0.10230000  0.21790000  0.46380000  1
  O  O244  1  0.10840000  0.38630000  0.96430000  1
  O  O245  1  0.24610000  0.87290000  0.47420000  1
  O  O246  1  0.25390000  0.37290000  0.97420000  1
  O  O247  1  0.39160000  0.88630000  0.46430000  1
  O  O248  1  0.39770000  0.71790000  0.96380000  1
  O  O249  1  0.44970000  0.66790000  0.85950000  1
  O  O250  1  0.45780000  0.26230000  0.45510000  1
  O  O251  1  0.45940000  0.67400000  0.61453000  1
  O  O252  1  0.54060000  0.17400000  0.38547000  1
  O  O253  1  0.54220000  0.76230000  0.54490000  1
  O  O254  1  0.55030000  0.16790000  0.14050000  1
  O  O255  1  0.60230000  0.21790000  0.03620000  1
  O  O256  1  0.60840000  0.38630000  0.53570000  1
  O  O257  1  0.74610000  0.87290000  0.02580000  1
  O  O258  1  0.75390000  0.37290000  0.52580000  1
  O  O259  1  0.89160000  0.88630000  0.03570000  1
  O  O260  1  0.89770000  0.71790000  0.53620000  1
  O  O261  1  0.94970000  0.66790000  0.64050000  1
  O  O262  1  0.95780000  0.26230000  0.04490000  1
  O  O263  1  0.95940000  0.67400000  0.88547000  1
