# generated using pymatgen
data_Cu5H14(CO)24
_symmetry_space_group_name_H-M   'P 1'
_cell_length_a   8.38630000
_cell_length_b   9.52190000
_cell_length_c   27.08760000
_cell_angle_alpha   83.10510000
_cell_angle_beta   81.09480000
_cell_angle_gamma   63.87250000
_symmetry_Int_Tables_number   1
_chemical_formula_structural   Cu5H14(CO)24
_chemical_formula_sum   'Cu10 H28 C48 O48'
_cell_volume   1915.31866394
_cell_formula_units_Z   2
loop_
 _symmetry_equiv_pos_site_id
 _symmetry_equiv_pos_as_xyz
  1  'x, y, z'
loop_
 _atom_site_type_symbol
 _atom_site_label
 _atom_site_symmetry_multiplicity
 _atom_site_fract_x
 _atom_site_fract_y
 _atom_site_fract_z
 _atom_site_occupancy
  Cu  Cu0  1  0.10587000  0.13551000  0.22443000  1
  Cu  Cu1  1  0.23801000  0.25000000  0.75000000  1
  Cu  Cu2  1  0.41836000  0.21066000  0.91822000  1
  Cu  Cu3  1  0.45276000  0.71066000  0.41822000  1
  Cu  Cu4  1  0.46581000  0.36449000  0.27557000  1
  Cu  Cu5  1  0.53419000  0.63551000  0.72443000  1
  Cu  Cu6  1  0.54724000  0.28934000  0.58178000  1
  Cu  Cu7  1  0.58164000  0.78934000  0.08178000  1
  Cu  Cu8  1  0.76199000  0.75000000  0.25000000  1
  Cu  Cu9  1  0.89413000  0.86449000  0.77557000  1
  H  H10  1  0.02050000  0.78500000  0.54920000  1
  H  H11  1  0.03160000  0.59540000  0.61780000  1
  H  H12  1  0.03620000  0.30270000  0.30850000  1
  H  H13  1  0.05710000  0.98200000  0.42240000  1
  H  H14  1  0.15260000  0.13950000  0.37290000  1
  H  H15  1  0.18400000  0.56520000  0.05000000  1
  H  H16  1  0.20080000  0.06520000  0.55000000  1
  H  H17  1  0.24480000  0.90460000  0.88220000  1
  H  H18  1  0.25680000  0.55850000  0.55770000  1
  H  H19  1  0.33500000  0.63950000  0.87290000  1
  H  H20  1  0.35260000  0.80270000  0.80850000  1
  H  H21  1  0.35470000  0.71500000  0.95080000  1
  H  H22  1  0.37300000  0.94150000  0.94230000  1
  H  H23  1  0.46150000  0.51800000  0.07760000  1
  H  H24  1  0.53850000  0.48200000  0.92240000  1
  H  H25  1  0.62700000  0.05850000  0.05770000  1
  H  H26  1  0.64530000  0.28500000  0.04920000  1
  H  H27  1  0.64740000  0.19730000  0.19150000  1
  H  H28  1  0.66500000  0.36050000  0.12710000  1
  H  H29  1  0.74320000  0.44150000  0.44230000  1
  H  H30  1  0.75520000  0.09540000  0.11780000  1
  H  H31  1  0.79920000  0.93480000  0.45000000  1
  H  H32  1  0.81600000  0.43480000  0.95000000  1
  H  H33  1  0.84740000  0.86050000  0.62710000  1
  H  H34  1  0.94290000  0.01800000  0.57760000  1
  H  H35  1  0.96380000  0.69730000  0.69150000  1
  H  H36  1  0.96840000  0.40460000  0.38220000  1
  H  H37  1  0.97950000  0.21500000  0.45080000  1
  C  C38  1  0.03500000  0.93132000  0.59508000  1
  C  C39  1  0.04890000  0.72568000  0.66852000  1
  C  C40  1  0.06592000  0.11713000  0.35883000  1
  C  C41  1  0.12170000  0.79717000  0.55863000  1
  C  C42  1  0.13440000  0.59809000  0.62991000  1
  C  C43  1  0.14783000  0.00038000  0.61196000  1
  C  C44  1  0.18186000  0.97689000  0.32719000  1
  C  C45  1  0.18527000  0.72213000  0.70093000  1
  C  C46  1  0.21302000  0.83555000  0.50921000  1
  C  C47  1  0.22589000  0.43754000  0.65588000  1
  C  C48  1  0.23983000  0.50038000  0.11196000  1
  C  C49  1  0.23986000  0.63461000  0.58167000  1
  C  C50  1  0.31931000  0.06246000  0.84412000  1
  C  C51  1  0.36240000  0.90191000  0.87009000  1
  C  C52  1  0.36751000  0.11993000  0.08645000  1
  C  C53  1  0.39167000  0.22213000  0.20093000  1
  C  C54  1  0.42611000  0.61993000  0.58645000  1
  C  C55  1  0.43860000  0.43132000  0.09508000  1
  C  C56  1  0.44222000  0.33555000  0.00921000  1
  C  C57  1  0.44310000  0.77432000  0.83148000  1
  C  C58  1  0.45614000  0.86539000  0.91833000  1
  C  C59  1  0.45812000  0.61713000  0.85883000  1
  C  C60  1  0.47750000  0.70283000  0.94137000  1
  C  C61  1  0.48594000  0.52311000  0.17281000  1
  C  C62  1  0.51406000  0.47689000  0.82719000  1
  C  C63  1  0.52250000  0.29717000  0.05863000  1
  C  C64  1  0.54188000  0.38287000  0.14117000  1
  C  C65  1  0.54386000  0.13461000  0.08167000  1
  C  C66  1  0.55690000  0.22568000  0.16852000  1
  C  C67  1  0.55778000  0.66445000  0.99079000  1
  C  C68  1  0.56140000  0.56868000  0.90492000  1
  C  C69  1  0.57389000  0.38007000  0.41355000  1
  C  C70  1  0.60833000  0.77787000  0.79907000  1
  C  C71  1  0.63249000  0.88007000  0.91355000  1
  C  C72  1  0.63760000  0.09809000  0.12991000  1
  C  C73  1  0.68069000  0.93754000  0.15588000  1
  C  C74  1  0.76014000  0.36539000  0.41833000  1
  C  C75  1  0.76017000  0.49962000  0.88804000  1
  C  C76  1  0.77411000  0.56246000  0.34412000  1
  C  C77  1  0.78698000  0.16445000  0.49079000  1
  C  C78  1  0.81473000  0.27787000  0.29907000  1
  C  C79  1  0.81814000  0.02311000  0.67281000  1
  C  C80  1  0.85217000  0.99962000  0.38804000  1
  C  C81  1  0.86560000  0.40191000  0.37009000  1
  C  C82  1  0.87830000  0.20283000  0.44137000  1
  C  C83  1  0.93408000  0.88287000  0.64117000  1
  C  C84  1  0.95110000  0.27432000  0.33148000  1
  C  C85  1  0.96500000  0.06868000  0.40492000  1
  O  O86  1  0.12915000  0.58122000  0.07808000  1
  O  O87  1  0.13345000  0.79271000  0.74099000  1
  O  O88  1  0.16039000  0.42202000  0.69940000  1
  O  O89  1  0.16314000  0.99843000  0.65569000  1
  O  O90  1  0.18274000  0.49843000  0.15569000  1
  O  O91  1  0.20656000  0.97052000  0.49916000  1
  O  O92  1  0.21155000  0.08122000  0.57808000  1
  O  O93  1  0.21844000  0.99683000  0.28009000  1
  O  O94  1  0.22591000  0.24087000  0.08411000  1
  O  O95  1  0.25111000  0.84635000  0.34983000  1
  O  O96  1  0.28181000  0.07798000  0.80060000  1
  O  O97  1  0.28574000  0.72741000  0.47911000  1
  O  O98  1  0.30715000  0.17573000  0.86697000  1
  O  O99  1  0.32376000  0.47052000  0.99916000  1
  O  O100  1  0.32538000  0.13970000  0.18754000  1
  O  O101  1  0.33285000  0.29271000  0.24099000  1
  O  O102  1  0.34738000  0.63970000  0.68754000  1
  O  O103  1  0.34985000  0.32427000  0.63303000  1
  O  O104  1  0.37240000  0.98321000  0.08939000  1
  O  O105  1  0.44500000  0.51679000  0.41061000  1
  O  O106  1  0.44729000  0.65365000  0.15017000  1
  O  O107  1  0.44911000  0.74087000  0.58411000  1
  O  O108  1  0.49226000  0.77259000  0.02089000  1
  O  O109  1  0.49536000  0.50317000  0.21991000  1
  O  O110  1  0.50464000  0.49683000  0.78009000  1
  O  O111  1  0.50774000  0.22741000  0.97911000  1
  O  O112  1  0.55089000  0.25913000  0.41589000  1
  O  O113  1  0.55271000  0.34635000  0.84983000  1
  O  O114  1  0.55500000  0.48321000  0.58939000  1
  O  O115  1  0.62760000  0.01679000  0.91061000  1
  O  O116  1  0.65015000  0.67573000  0.36697000  1
  O  O117  1  0.65262000  0.36030000  0.31246000  1
  O  O118  1  0.66715000  0.70729000  0.75901000  1
  O  O119  1  0.67462000  0.86030000  0.81246000  1
  O  O120  1  0.67624000  0.52948000  0.00084000  1
  O  O121  1  0.69285000  0.82427000  0.13303000  1
  O  O122  1  0.71426000  0.27259000  0.52089000  1
  O  O123  1  0.71819000  0.92202000  0.19940000  1
  O  O124  1  0.74889000  0.15365000  0.65017000  1
  O  O125  1  0.77409000  0.75913000  0.91589000  1
  O  O126  1  0.78156000  0.00317000  0.71991000  1
  O  O127  1  0.78845000  0.91878000  0.42192000  1
  O  O128  1  0.79344000  0.02948000  0.50084000  1
  O  O129  1  0.81726000  0.50157000  0.84431000  1
  O  O130  1  0.83686000  0.00157000  0.34431000  1
  O  O131  1  0.83961000  0.57798000  0.30060000  1
  O  O132  1  0.86655000  0.20729000  0.25901000  1
  O  O133  1  0.87085000  0.41878000  0.92192000  1
