# generated using pymatgen
data_Pr3P3H45C37N3O23
_symmetry_space_group_name_H-M   'P 1'
_cell_length_a   15.12200000
_cell_length_b   15.16700000
_cell_length_c   15.24200000
_cell_angle_alpha   106.19900000
_cell_angle_beta   103.35000000
_cell_angle_gamma   116.99000000
_symmetry_Int_Tables_number   1
_chemical_formula_structural   Pr3P3H45C37N3O23
_chemical_formula_sum   'Pr6 P6 H90 C74 N6 O46'
_cell_volume   2717.82958065
_cell_formula_units_Z   2
loop_
 _symmetry_equiv_pos_site_id
 _symmetry_equiv_pos_as_xyz
  1  'x, y, z'
loop_
 _atom_site_type_symbol
 _atom_site_label
 _atom_site_symmetry_multiplicity
 _atom_site_fract_x
 _atom_site_fract_y
 _atom_site_fract_z
 _atom_site_occupancy
  Pr  Pr0  1  0.18107000  0.88572000  0.31789000  1
  Pr  Pr1  1  0.41521000  0.06337000  0.64476000  1
  Pr  Pr2  1  0.44289000  0.13416000  0.30236000  1
  Pr  Pr3  1  0.55711000  0.86584000  0.69764000  1
  Pr  Pr4  1  0.58479000  0.93663000  0.35524000  1
  Pr  Pr5  1  0.81893000  0.11428000  0.68211000  1
  P  P6  1  0.30510000  0.82580000  0.19630000  1
  P  P7  1  0.37470000  0.19160000  0.48150000  1
  P  P8  1  0.38330000  0.85760000  0.47640000  1
  P  P9  1  0.61670000  0.14240000  0.52360000  1
  P  P10  1  0.62530000  0.80840000  0.51850000  1
  P  P11  1  0.69490000  0.17420000  0.80370000  1
  H  H12  1  0.00020000  0.16550000  0.02910000  1
  H  H13  1  0.00550000  0.78590000  0.50490000  1
  H  H14  1  0.01190000  0.41060000  0.58310000  1
  H  H15  1  0.03430000  0.40510000  0.13460000  1
  H  H16  1  0.03620000  0.97170000  0.64180000  1
  H  H17  1  0.05800000  0.08280000  0.55030000  1
  H  H18  1  0.06180000  0.00520000  0.87820000  1
  H  H19  1  0.07140000  0.89760000  0.67190000  1
  H  H20  1  0.07650000  0.18850000  0.62620000  1
  H  H21  1  0.09370000  0.54710000  0.29090000  1
  H  H22  1  0.09540000  0.14560000  0.31680000  1
  H  H23  1  0.09590000  0.52010000  0.13320000  1
  H  H24  1  0.11240000  0.24540000  0.39980000  1
  H  H25  1  0.12880000  0.17500000  0.15780000  1
  H  H26  1  0.15390000  0.48760000  0.30590000  1
  H  H27  1  0.15770000  0.55020000  0.57250000  1
  H  H28  1  0.16060000  0.10820000  0.44420000  1
  H  H29  1  0.16250000  0.77500000  0.88810000  1
  H  H30  1  0.16260000  0.77830000  0.05210000  1
  H  H31  1  0.19010000  0.88370000  0.96780000  1
  H  H32  1  0.19520000  0.40270000  0.15990000  1
  H  H33  1  0.19820000  0.69640000  0.02730000  1
  H  H34  1  0.19930000  0.29700000  0.57570000  1
  H  H35  1  0.20090000  0.37310000  0.93470000  1
  H  H36  1  0.21690000  0.44400000  0.82890000  1
  H  H37  1  0.22660000  0.69570000  0.44310000  1
  H  H38  1  0.23380000  0.91180000  0.83680000  1
  H  H39  1  0.23770000  0.22690000  0.60980000  1
  H  H40  1  0.24060000  0.06970000  0.96160000  1
  H  H41  1  0.24870000  0.68090000  0.28890000  1
  H  H42  1  0.28110000  0.25290000  0.39750000  1
  H  H43  1  0.28200000  0.70680000  0.91910000  1
  H  H44  1  0.28590000  0.79370000  0.79380000  1
  H  H45  1  0.30600000  0.61390000  0.16510000  1
  H  H46  1  0.32690000  0.68550000  0.47160000  1
  H  H47  1  0.32970000  0.31930000  0.51360000  1
  H  H48  1  0.33720000  0.98730000  0.93930000  1
  H  H49  1  0.33780000  0.56770000  0.33333333  1
  H  H50  1  0.34170000  0.90330000  0.06080000  1
  H  H51  1  0.35880000  0.54850000  0.18310000  1
  H  H52  1  0.36940000  0.57840000  0.81790000  1
  H  H53  1  0.38610000  0.77700000  0.02130000  1
  H  H54  1  0.41080000  0.68530000  0.34010000  1
  H  H55  1  0.43430000  0.80650000  0.89260000  1
  H  H56  1  0.47020000  0.91730000  0.97560000  1
  H  H57  1  0.52980000  0.08270000  0.02440000  1
  H  H58  1  0.56570000  0.19350000  0.10740000  1
  H  H59  1  0.58920000  0.31470000  0.65990000  1
  H  H60  1  0.61390000  0.22300000  0.97870000  1
  H  H61  1  0.63060000  0.42160000  0.18210000  1
  H  H62  1  0.64120000  0.45150000  0.81690000  1
  H  H63  1  0.65830000  0.09670000  0.93920000  1
  H  H64  1  0.66220000  0.43230000  0.66666667  1
  H  H65  1  0.66280000  0.01270000  0.06070000  1
  H  H66  1  0.67030000  0.68070000  0.48640000  1
  H  H67  1  0.67310000  0.31450000  0.52840000  1
  H  H68  1  0.69400000  0.38610000  0.83490000  1
  H  H69  1  0.71410000  0.20630000  0.20620000  1
  H  H70  1  0.71800000  0.29320000  0.08090000  1
  H  H71  1  0.71890000  0.74710000  0.60250000  1
  H  H72  1  0.75130000  0.31910000  0.71110000  1
  H  H73  1  0.75940000  0.93030000  0.03840000  1
  H  H74  1  0.76230000  0.77310000  0.39020000  1
  H  H75  1  0.76620000  0.08820000  0.16320000  1
  H  H76  1  0.77340000  0.30430000  0.55690000  1
  H  H77  1  0.78310000  0.55600000  0.17110000  1
  H  H78  1  0.79910000  0.62690000  0.06530000  1
  H  H79  1  0.80070000  0.70300000  0.42430000  1
  H  H80  1  0.80180000  0.30360000  0.97270000  1
  H  H81  1  0.80480000  0.59730000  0.84010000  1
  H  H82  1  0.80990000  0.11630000  0.03220000  1
  H  H83  1  0.83740000  0.22170000  0.94790000  1
  H  H84  1  0.83750000  0.22500000  0.11190000  1
  H  H85  1  0.83940000  0.89180000  0.55580000  1
  H  H86  1  0.84230000  0.44980000  0.42750000  1
  H  H87  1  0.84610000  0.51240000  0.69410000  1
  H  H88  1  0.87120000  0.82500000  0.84220000  1
  H  H89  1  0.88760000  0.75460000  0.60020000  1
  H  H90  1  0.90410000  0.47990000  0.86680000  1
  H  H91  1  0.90460000  0.85440000  0.68320000  1
  H  H92  1  0.90630000  0.45290000  0.70910000  1
  H  H93  1  0.92350000  0.81150000  0.37380000  1
  H  H94  1  0.92860000  0.10240000  0.32810000  1
  H  H95  1  0.93820000  0.99480000  0.12180000  1
  H  H96  1  0.94200000  0.91720000  0.44970000  1
  H  H97  1  0.96380000  0.02830000  0.35820000  1
  H  H98  1  0.96570000  0.59490000  0.86540000  1
  H  H99  1  0.98810000  0.58940000  0.41690000  1
  H  H100  1  0.99450000  0.21410000  0.49510000  1
  H  H101  1  0.99980000  0.83450000  0.97090000  1
  C  C102  1  0.00850000  0.32290000  0.70780000  1
  C  C103  1  0.01740000  0.89730000  0.62230000  1
  C  C104  1  0.01970000  0.85840000  0.52050000  1
  C  C105  1  0.04110000  0.10880000  0.92020000  1
  C  C106  1  0.04510000  0.90290000  0.16610000  1
  C  C107  1  0.04770000  0.14260000  0.01620000  1
  C  C108  1  0.07370000  0.15510000  0.56130000  1
  C  C109  1  0.08580000  0.44760000  0.63310000  1
  C  C110  1  0.09500000  0.17160000  0.38170000  1
  C  C111  1  0.10280000  0.41570000  0.70490000  1
  C  C112  1  0.10470000  0.47410000  0.16310000  1
  C  C113  1  0.11220000  0.08080000  0.89390000  1
  C  C114  1  0.12500000  0.15150000  0.09080000  1
  C  C115  1  0.13030000  0.93260000  0.52280000  1
  C  C116  1  0.14680000  0.53440000  0.27620000  1
  C  C117  1  0.15800000  0.41100000  0.02400000  1
  C  C118  1  0.16930000  0.52710000  0.62510000  1
  C  C119  1  0.18100000  0.22320000  0.56000000  1
  C  C120  1  0.19120000  0.08990000  0.97420000  1
  C  C121  1  0.19300000  0.45570000  0.13710000  1
  C  C122  1  0.19650000  0.12040000  0.07150000  1
  C  C123  1  0.20660000  0.46310000  0.77330000  1
  C  C124  1  0.22180000  0.84810000  0.93830000  1
  C  C125  1  0.22530000  0.77300000  0.06080000  1
  C  C126  1  0.27670000  0.58020000  0.69570000  1
  C  C127  1  0.27710000  0.12310000  0.14890000  1
  C  C128  1  0.28350000  0.91190000  0.89040000  1
  C  C129  1  0.29060000  0.24640000  0.46010000  1
  C  C130  1  0.29150000  0.71020000  0.43220000  1
  C  C131  1  0.29570000  0.54420000  0.76880000  1
  C  C132  1  0.30560000  0.56380000  0.19340000  1
  C  C133  1  0.33800000  0.61830000  0.30570000  1
  C  C134  1  0.33950000  0.78090000  0.96870000  1
  C  C135  1  0.34210000  0.86530000  0.84820000  1
  C  C136  1  0.37030000  0.66850000  0.68940000  1
  C  C137  1  0.40730000  0.84670000  0.92420000  1
  C  C138  1  0.40870000  0.93240000  0.80470000  1
  C  C139  1  0.59130000  0.06760000  0.19530000  1
  C  C140  1  0.59270000  0.15330000  0.07580000  1
  C  C141  1  0.62970000  0.33150000  0.31060000  1
  C  C142  1  0.65790000  0.13470000  0.15180000  1
  C  C143  1  0.66050000  0.21910000  0.03130000  1
  C  C144  1  0.66200000  0.38170000  0.69430000  1
  C  C145  1  0.69440000  0.43620000  0.80660000  1
  C  C146  1  0.70430000  0.45580000  0.23120000  1
  C  C147  1  0.70850000  0.28980000  0.56780000  1
  C  C148  1  0.70940000  0.75360000  0.53990000  1
  C  C149  1  0.71650000  0.08810000  0.10960000  1
  C  C150  1  0.72290000  0.87690000  0.85110000  1
  C  C151  1  0.72330000  0.41980000  0.30430000  1
  C  C152  1  0.77470000  0.22700000  0.93920000  1
  C  C153  1  0.77820000  0.15190000  0.06170000  1
  C  C154  1  0.79340000  0.53690000  0.22670000  1
  C  C155  1  0.80350000  0.87960000  0.92850000  1
  C  C156  1  0.80700000  0.54430000  0.86290000  1
  C  C157  1  0.80880000  0.91010000  0.02580000  1
  C  C158  1  0.81900000  0.77680000  0.44000000  1
  C  C159  1  0.83070000  0.47290000  0.37490000  1
  C  C160  1  0.84200000  0.58900000  0.97600000  1
  C  C161  1  0.85320000  0.46560000  0.72380000  1
  C  C162  1  0.86970000  0.06740000  0.47720000  1
  C  C163  1  0.87500000  0.84850000  0.90920000  1
  C  C164  1  0.88780000  0.91920000  0.10610000  1
  C  C165  1  0.89530000  0.52590000  0.83690000  1
  C  C166  1  0.89720000  0.58430000  0.29510000  1
  C  C167  1  0.90500000  0.82840000  0.61830000  1
  C  C168  1  0.91420000  0.55240000  0.36690000  1
  C  C169  1  0.92630000  0.84490000  0.43870000  1
  C  C170  1  0.95230000  0.85740000  0.98380000  1
  C  C171  1  0.95490000  0.09710000  0.83390000  1
  C  C172  1  0.95890000  0.89120000  0.07980000  1
  C  C173  1  0.98030000  0.14160000  0.47950000  1
  C  C174  1  0.98260000  0.10270000  0.37770000  1
  C  C175  1  0.99150000  0.67710000  0.29220000  1
  N  N176  1  0.17790000  0.17750000  0.45910000  1
  N  N177  1  0.25470000  0.64140000  0.32270000  1
  N  N178  1  0.28730000  0.83460000  0.01320000  1
  N  N179  1  0.71270000  0.16540000  0.98680000  1
  N  N180  1  0.74530000  0.35860000  0.67730000  1
  N  N181  1  0.82210000  0.82250000  0.54090000  1
  O  O182  1  0.02130000  0.29080000  0.77440000  1
  O  O183  1  0.05820000  0.94680000  0.25530000  1
  O  O184  1  0.07340000  0.39240000  0.96620000  1
  O  O185  1  0.08580000  0.72540000  0.36230000  1
  O  O186  1  0.09790000  0.86420000  0.14570000  1
  O  O187  1  0.13570000  0.96040000  0.45440000  1
  O  O188  1  0.21350000  0.96190000  0.59710000  1
  O  O189  1  0.22070000  0.75150000  0.22600000  1
  O  O190  1  0.22600000  0.39700000  0.99860000  1
  O  O191  1  0.30120000  0.17940000  0.24110000  1
  O  O192  1  0.31210000  0.07770000  0.38990000  1
  O  O193  1  0.31750000  0.90860000  0.46250000  1
  O  O194  1  0.31830000  0.07250000  0.12600000  1
  O  O195  1  0.32850000  0.94210000  0.24790000  1
  O  O196  1  0.35120000  0.71760000  0.64150000  1
  O  O197  1  0.37180000  0.97360000  0.75640000  1
  O  O198  1  0.38660000  0.18370000  0.57870000  1
  O  O199  1  0.40750000  0.82570000  0.21340000  1
  O  O200  1  0.44180000  0.90170000  0.58870000  1
  O  O201  1  0.45480000  0.87370000  0.42020000  1
  O  O202  1  0.46470000  0.69430000  0.73570000  1
  O  O203  1  0.47640000  0.26420000  0.47020000  1
  O  O204  1  0.49800000  0.05000000  0.18110000  1
  O  O205  1  0.50200000  0.95000000  0.81890000  1
  O  O206  1  0.52360000  0.73580000  0.52980000  1
  O  O207  1  0.53530000  0.30570000  0.26430000  1
  O  O208  1  0.54520000  0.12630000  0.57980000  1
  O  O209  1  0.55820000  0.09830000  0.41130000  1
  O  O210  1  0.59250000  0.17430000  0.78660000  1
  O  O211  1  0.61340000  0.81630000  0.42130000  1
  O  O212  1  0.62820000  0.02640000  0.24360000  1
  O  O213  1  0.64880000  0.28240000  0.35850000  1
  O  O214  1  0.67150000  0.05790000  0.75210000  1
  O  O215  1  0.68170000  0.92750000  0.87400000  1
  O  O216  1  0.68250000  0.09140000  0.53750000  1
  O  O217  1  0.68790000  0.92230000  0.61010000  1
  O  O218  1  0.69880000  0.82060000  0.75890000  1
  O  O219  1  0.77400000  0.60300000  0.00140000  1
  O  O220  1  0.77930000  0.24850000  0.77400000  1
  O  O221  1  0.78650000  0.03810000  0.40290000  1
  O  O222  1  0.86430000  0.03960000  0.54560000  1
  O  O223  1  0.90210000  0.13580000  0.85430000  1
  O  O224  1  0.91420000  0.27460000  0.63770000  1
  O  O225  1  0.92660000  0.60760000  0.03380000  1
  O  O226  1  0.94180000  0.05320000  0.74470000  1
  O  O227  1  0.97870000  0.70920000  0.22560000  1
