# generated using pymatgen
data_Sm2H24C26O17
_symmetry_space_group_name_H-M   'P 1'
_cell_length_a   11.90000000
_cell_length_b   12.49400000
_cell_length_c   12.53900000
_cell_angle_alpha   90.00000000
_cell_angle_beta   98.76000000
_cell_angle_gamma   90.00000000
_symmetry_Int_Tables_number   1
_chemical_formula_structural   Sm2H24C26O17
_chemical_formula_sum   'Sm4 H48 C52 O34'
_cell_volume   1842.53402517
_cell_formula_units_Z   2
loop_
 _symmetry_equiv_pos_site_id
 _symmetry_equiv_pos_as_xyz
  1  'x, y, z'
loop_
 _atom_site_type_symbol
 _atom_site_label
 _atom_site_symmetry_multiplicity
 _atom_site_fract_x
 _atom_site_fract_y
 _atom_site_fract_z
 _atom_site_occupancy
  Sm  Sm0  1  0.35887000  0.77064000  0.81305000  1
  Sm  Sm1  1  0.37261000  0.05430000  0.13154000  1
  Sm  Sm2  1  0.62739000  0.55430000  0.86846000  1
  Sm  Sm3  1  0.64113000  0.27064000  0.18695000  1
  H  H4  1  0.00030000  0.96510000  0.92950000  1
  H  H5  1  0.00720000  0.93520000  0.24870000  1
  H  H6  1  0.11090000  0.15990000  0.75360000  1
  H  H7  1  0.13020000  0.03740000  0.77660000  1
  H  H8  1  0.14550000  0.65050000  0.15660000  1
  H  H9  1  0.14810000  0.11960000  0.87210000  1
  H  H10  1  0.14940000  0.77160000  0.12470000  1
  H  H11  1  0.16810000  0.68270000  0.04090000  1
  H  H12  1  0.19510000  0.83690000  0.58800000  1
  H  H13  1  0.22820000  0.88910000  0.68640000  1
  H  H14  1  0.28770000  0.39510000  0.95400000  1
  H  H15  1  0.29760000  0.47050000  0.59290000  1
  H  H16  1  0.30230000  0.36540000  0.32050000  1
  H  H17  1  0.30250000  0.19400000  0.80240000  1
  H  H18  1  0.32470000  0.34840000  0.61070000  1
  H  H19  1  0.32590000  0.10040000  0.48380000  1
  H  H20  1  0.32990000  0.48640000  0.30390000  1
  H  H21  1  0.33900000  0.63330000  0.14510000  1
  H  H22  1  0.35660000  0.72260000  0.46960000  1
  H  H23  1  0.36330000  0.37970000  0.79940000  1
  H  H24  1  0.36580000  0.44680000  0.12610000  1
  H  H25  1  0.42120000  0.43360000  0.63980000  1
  H  H26  1  0.42610000  0.40020000  0.30760000  1
  H  H27  1  0.48110000  0.16950000  0.78440000  1
  H  H28  1  0.51890000  0.66950000  0.21560000  1
  H  H29  1  0.57390000  0.90020000  0.69240000  1
  H  H30  1  0.57880000  0.93360000  0.36020000  1
  H  H31  1  0.63420000  0.94680000  0.87390000  1
  H  H32  1  0.63670000  0.87970000  0.20060000  1
  H  H33  1  0.64340000  0.22260000  0.53040000  1
  H  H34  1  0.66100000  0.13330000  0.85490000  1
  H  H35  1  0.67010000  0.98640000  0.69610000  1
  H  H36  1  0.67410000  0.60040000  0.51620000  1
  H  H37  1  0.67530000  0.84840000  0.38930000  1
  H  H38  1  0.69750000  0.69400000  0.19760000  1
  H  H39  1  0.69770000  0.86540000  0.67950000  1
  H  H40  1  0.70240000  0.97050000  0.40710000  1
  H  H41  1  0.71230000  0.89510000  0.04600000  1
  H  H42  1  0.77180000  0.38910000  0.31360000  1
  H  H43  1  0.80490000  0.33690000  0.41200000  1
  H  H44  1  0.83190000  0.18270000  0.95910000  1
  H  H45  1  0.85060000  0.27160000  0.87530000  1
  H  H46  1  0.85190000  0.61960000  0.12790000  1
  H  H47  1  0.85450000  0.15050000  0.84340000  1
  H  H48  1  0.86980000  0.53740000  0.22340000  1
  H  H49  1  0.88910000  0.65990000  0.24640000  1
  H  H50  1  0.99280000  0.43520000  0.75130000  1
  H  H51  1  0.99970000  0.46510000  0.07050000  1
  C  C52  1  0.02080000  0.95400000  0.09090000  1
  C  C53  1  0.03330000  0.43390000  0.82080000  1
  C  C54  1  0.03750000  0.45130000  0.01230000  1
  C  C55  1  0.14490000  0.98100000  0.10830000  1
  C  C56  1  0.14800000  0.41210000  0.83770000  1
  C  C57  1  0.15330000  0.42800000  0.02980000  1
  C  C58  1  0.15590000  0.10820000  0.79790000  1
  C  C59  1  0.18110000  0.70210000  0.11590000  1
  C  C60  1  0.21000000  0.40930000  0.94310000  1
  C  C61  1  0.27900000  0.12020000  0.78430000  1
  C  C62  1  0.30780000  0.70430000  0.15590000  1
  C  C63  1  0.31320000  0.42690000  0.75120000  1
  C  C64  1  0.31800000  0.39990000  0.16290000  1
  C  C65  1  0.32750000  0.54200000  0.79130000  1
  C  C66  1  0.33810000  0.28390000  0.13570000  1
  C  C67  1  0.34170000  0.41920000  0.63840000  1
  C  C68  1  0.34680000  0.41430000  0.28510000  1
  C  C69  1  0.35780000  0.04390000  0.85890000  1
  C  C70  1  0.36780000  0.78510000  0.09510000  1
  C  C71  1  0.38840000  0.13050000  0.64020000  1
  C  C72  1  0.38880000  0.12580000  0.53000000  1
  C  C73  1  0.41940000  0.69720000  0.44140000  1
  C  C74  1  0.42020000  0.69560000  0.33080000  1
  C  C75  1  0.48290000  0.16590000  0.71060000  1
  C  C76  1  0.48450000  0.15980000  0.49050000  1
  C  C77  1  0.48700000  0.15900000  0.37130000  1
  C  C78  1  0.51300000  0.65900000  0.62870000  1
  C  C79  1  0.51550000  0.65980000  0.50950000  1
  C  C80  1  0.51710000  0.66590000  0.28940000  1
  C  C81  1  0.57980000  0.19560000  0.66920000  1
  C  C82  1  0.58060000  0.19720000  0.55860000  1
  C  C83  1  0.61120000  0.62580000  0.47000000  1
  C  C84  1  0.61160000  0.63050000  0.35980000  1
  C  C85  1  0.63220000  0.28510000  0.90490000  1
  C  C86  1  0.64220000  0.54390000  0.14110000  1
  C  C87  1  0.65320000  0.91430000  0.71490000  1
  C  C88  1  0.65830000  0.91920000  0.36160000  1
  C  C89  1  0.66190000  0.78390000  0.86430000  1
  C  C90  1  0.67250000  0.04200000  0.20870000  1
  C  C91  1  0.68200000  0.89990000  0.83710000  1
  C  C92  1  0.68680000  0.92690000  0.24880000  1
  C  C93  1  0.69220000  0.20430000  0.84410000  1
  C  C94  1  0.72100000  0.62020000  0.21570000  1
  C  C95  1  0.79000000  0.90930000  0.05690000  1
  C  C96  1  0.81890000  0.20210000  0.88410000  1
  C  C97  1  0.84410000  0.60820000  0.20210000  1
  C  C98  1  0.84670000  0.92800000  0.97020000  1
  C  C99  1  0.85200000  0.91210000  0.16230000  1
  C  C100  1  0.85510000  0.48100000  0.89170000  1
  C  C101  1  0.96250000  0.95130000  0.98770000  1
  C  C102  1  0.96670000  0.93390000  0.17920000  1
  C  C103  1  0.97920000  0.45400000  0.90910000  1
  O  O104  1  0.19730000  0.00340000  0.20060000  1
  O  O105  1  0.19760000  0.39430000  0.74830000  1
  O  O106  1  0.19850000  0.97830000  0.02700000  1
  O  O107  1  0.20210000  0.42970000  0.13590000  1
  O  O108  1  0.23600000  0.83210000  0.65030000  1
  O  O109  1  0.25040000  0.60890000  0.76850000  1
  O  O110  1  0.25790000  0.21820000  0.12300000  1
  O  O111  1  0.28830000  0.10190000  0.67460000  1
  O  O112  1  0.32110000  0.72500000  0.26740000  1
  O  O113  1  0.37450000  0.76270000  0.99800000  1
  O  O114  1  0.37980000  0.95490000  0.82560000  1
  O  O115  1  0.39050000  0.07890000  0.95330000  1
  O  O116  1  0.40710000  0.87140000  0.14030000  1
  O  O117  1  0.41620000  0.10230000  0.31360000  1
  O  O118  1  0.42380000  0.56890000  0.84450000  1
  O  O119  1  0.43620000  0.71430000  0.66230000  1
  O  O120  1  0.43870000  0.25460000  0.12950000  1
  O  O121  1  0.56130000  0.75460000  0.87050000  1
  O  O122  1  0.56380000  0.21430000  0.33770000  1
  O  O123  1  0.57620000  0.06890000  0.15550000  1
  O  O124  1  0.58380000  0.60230000  0.68640000  1
  O  O125  1  0.59290000  0.37140000  0.85970000  1
  O  O126  1  0.60950000  0.57890000  0.04670000  1
  O  O127  1  0.62020000  0.45490000  0.17440000  1
  O  O128  1  0.62550000  0.26270000  0.00200000  1
  O  O129  1  0.67890000  0.22500000  0.73260000  1
  O  O130  1  0.71170000  0.60190000  0.32540000  1
  O  O131  1  0.74210000  0.71820000  0.87700000  1
  O  O132  1  0.74960000  0.10890000  0.23150000  1
  O  O133  1  0.76400000  0.33210000  0.34970000  1
  O  O134  1  0.79790000  0.92970000  0.86410000  1
  O  O135  1  0.80150000  0.47830000  0.97300000  1
  O  O136  1  0.80240000  0.89430000  0.25170000  1
  O  O137  1  0.80270000  0.50340000  0.79940000  1
