# generated using pymatgen
data_Co5H12C20S2(N3O8)2
_symmetry_space_group_name_H-M   'P 1'
_cell_length_a   9.48100000
_cell_length_b   15.12600000
_cell_length_c   15.23200000
_cell_angle_alpha   64.81500000
_cell_angle_beta   78.71700000
_cell_angle_gamma   78.97700000
_symmetry_Int_Tables_number   1
_chemical_formula_structural   Co5H12C20S2(N3O8)2
_chemical_formula_sum   'Co10 H24 C40 S4 N12 O32'
_cell_volume   1924.16234952
_cell_formula_units_Z   2
loop_
 _symmetry_equiv_pos_site_id
 _symmetry_equiv_pos_as_xyz
  1  'x, y, z'
loop_
 _atom_site_type_symbol
 _atom_site_label
 _atom_site_symmetry_multiplicity
 _atom_site_fract_x
 _atom_site_fract_y
 _atom_site_fract_z
 _atom_site_occupancy
  Co  Co0  1  0.08969000  0.39744000  0.00843000  1
  Co  Co1  1  0.19985000  0.57890000  0.81419000  1
  Co  Co2  1  0.24375000  0.09128000  0.90750000  1
  Co  Co3  1  0.29800000  0.18547000  0.41906000  1
  Co  Co4  1  0.40711000  0.99274000  0.60112000  1
  Co  Co5  1  0.59289000  0.00726000  0.39888000  1
  Co  Co6  1  0.70200000  0.81453000  0.58094000  1
  Co  Co7  1  0.75625000  0.90872000  0.09250000  1
  Co  Co8  1  0.80015000  0.42110000  0.18581000  1
  Co  Co9  1  0.91031000  0.60256000  0.99157000  1
  H  H10  1  0.02740000  0.05950000  0.24070000  1
  H  H11  1  0.02970000  0.74340000  0.63140000  1
  H  H12  1  0.16030000  0.82770000  0.47420000  1
  H  H13  1  0.18890000  0.82110000  0.72930000  1
  H  H14  1  0.19080000  0.55500000  0.99450000  1
  H  H15  1  0.24190000  0.82930000  0.92040000  1
  H  H16  1  0.26610000  0.07630000  0.17250000  1
  H  H17  1  0.30990000  0.26810000  0.17890000  1
  H  H18  1  0.31080000  0.00280000  0.44500000  1
  H  H19  1  0.34110000  0.52770000  0.17420000  1
  H  H20  1  0.46970000  0.36940000  0.25550000  1
  H  H21  1  0.47870000  0.75980000  0.93620000  1
  H  H22  1  0.52130000  0.24020000  0.06380000  1
  H  H23  1  0.53030000  0.63060000  0.74450000  1
  H  H24  1  0.65890000  0.47230000  0.82580000  1
  H  H25  1  0.68920000  0.99720000  0.55500000  1
  H  H26  1  0.69010000  0.73190000  0.82110000  1
  H  H27  1  0.73390000  0.92370000  0.82750000  1
  H  H28  1  0.75810000  0.17070000  0.07960000  1
  H  H29  1  0.80920000  0.44500000  0.00550000  1
  H  H30  1  0.81110000  0.17890000  0.27070000  1
  H  H31  1  0.83970000  0.17230000  0.52580000  1
  H  H32  1  0.97030000  0.25660000  0.36860000  1
  H  H33  1  0.97260000  0.94050000  0.75930000  1
  C  C34  1  0.00330000  0.22600000  0.97350000  1
  C  C35  1  0.03140000  0.27170000  0.30970000  1
  C  C36  1  0.06950000  0.94130000  0.36470000  1
  C  C37  1  0.08570000  0.07360000  0.59210000  1
  C  C38  1  0.10160000  0.01590000  0.27400000  1
  C  C39  1  0.14640000  0.72100000  0.03560000  1
  C  C40  1  0.17790000  0.62970000  0.10940000  1
  C  C41  1  0.18160000  0.87780000  0.41320000  1
  C  C42  1  0.21530000  0.27800000  0.20730000  1
  C  C43  1  0.24550000  0.02510000  0.23300000  1
  C  C44  1  0.26160000  0.76840000  0.97110000  1
  C  C45  1  0.28370000  0.79250000  0.72100000  1
  C  C46  1  0.32130000  0.58780000  0.12240000  1
  C  C47  1  0.32550000  0.88730000  0.37260000  1
  C  C48  1  0.35910000  0.96060000  0.27930000  1
  C  C49  1  0.40390000  0.72730000  0.98060000  1
  C  C50  1  0.40980000  0.40660000  0.92650000  1
  C  C51  1  0.43430000  0.63680000  0.05710000  1
  C  C52  1  0.46850000  0.68940000  0.72910000  1
  C  C53  1  0.48770000  0.02620000  0.77070000  1
  C  C54  1  0.51230000  0.97380000  0.22930000  1
  C  C55  1  0.53150000  0.31060000  0.27090000  1
  C  C56  1  0.56570000  0.36320000  0.94290000  1
  C  C57  1  0.59020000  0.59340000  0.07350000  1
  C  C58  1  0.59610000  0.27270000  0.01940000  1
  C  C59  1  0.64090000  0.03940000  0.72070000  1
  C  C60  1  0.67450000  0.11270000  0.62740000  1
  C  C61  1  0.67870000  0.41220000  0.87760000  1
  C  C62  1  0.71630000  0.20750000  0.27900000  1
  C  C63  1  0.73840000  0.23160000  0.02890000  1
  C  C64  1  0.75450000  0.97490000  0.76700000  1
  C  C65  1  0.78470000  0.72200000  0.79270000  1
  C  C66  1  0.81840000  0.12220000  0.58680000  1
  C  C67  1  0.82210000  0.37030000  0.89060000  1
  C  C68  1  0.85360000  0.27900000  0.96440000  1
  C  C69  1  0.89840000  0.98410000  0.72600000  1
  C  C70  1  0.91430000  0.92640000  0.40790000  1
  C  C71  1  0.93050000  0.05870000  0.63530000  1
  C  C72  1  0.96860000  0.72830000  0.69030000  1
  C  C73  1  0.99670000  0.77400000  0.02650000  1
  S  S74  1  0.04050000  0.56640000  0.19987000  1
  S  S75  1  0.46410000  0.79770000  0.43538000  1
  S  S76  1  0.53590000  0.20230000  0.56462000  1
  S  S77  1  0.95950000  0.43360000  0.80013000  1
  N  N78  1  0.01320000  0.67300000  0.77550000  1
  N  N79  1  0.10840000  0.33190000  0.15680000  1
  N  N80  1  0.17290000  0.23910000  0.30410000  1
  N  N81  1  0.32480000  0.69450000  0.76120000  1
  N  N82  1  0.39320000  0.84410000  0.66790000  1
  N  N83  1  0.48870000  0.22380000  0.32620000  1
  N  N84  1  0.51130000  0.77620000  0.67380000  1
  N  N85  1  0.60680000  0.15590000  0.33210000  1
  N  N86  1  0.67520000  0.30550000  0.23880000  1
  N  N87  1  0.82710000  0.76090000  0.69590000  1
  N  N88  1  0.89160000  0.66810000  0.84320000  1
  N  N89  1  0.98680000  0.32700000  0.22450000  1
  O  O90  1  0.03350000  0.36590000  0.75710000  1
  O  O91  1  0.03370000  0.15340000  0.95340000  1
  O  O92  1  0.05510000  0.45470000  0.85260000  1
  O  O93  1  0.08820000  0.25850000  0.00560000  1
  O  O94  1  0.10730000  0.14600000  0.51250000  1
  O  O95  1  0.11040000  0.47830000  0.26780000  1
  O  O96  1  0.12250000  0.54590000  0.95920000  1
  O  O97  1  0.18190000  0.01240000  0.64060000  1
  O  O98  1  0.31370000  0.35730000  0.98780000  1
  O  O99  1  0.37770000  0.03960000  0.45360000  1
  O  O100  1  0.38860000  0.48490000  0.85440000  1
  O  O101  1  0.39280000  0.72860000  0.52250000  1
  O  O102  1  0.40520000  0.99630000  0.73790000  1
  O  O103  1  0.44330000  0.14710000  0.54350000  1
  O  O104  1  0.45410000  0.04630000  0.84610000  1
  O  O105  1  0.45860000  0.24460000  0.63210000  1
  O  O106  1  0.54140000  0.75540000  0.36790000  1
  O  O107  1  0.54590000  0.95370000  0.15390000  1
  O  O108  1  0.55670000  0.85290000  0.45650000  1
  O  O109  1  0.59480000  0.00370000  0.26210000  1
  O  O110  1  0.60720000  0.27140000  0.47750000  1
  O  O111  1  0.61140000  0.51510000  0.14560000  1
  O  O112  1  0.62230000  0.96040000  0.54640000  1
  O  O113  1  0.68630000  0.64270000  0.01220000  1
  O  O114  1  0.81810000  0.98760000  0.35940000  1
  O  O115  1  0.87750000  0.45410000  0.04080000  1
  O  O116  1  0.88960000  0.52170000  0.73220000  1
  O  O117  1  0.89270000  0.85400000  0.48750000  1
  O  O118  1  0.91180000  0.74150000  0.99440000  1
  O  O119  1  0.94490000  0.54530000  0.14740000  1
  O  O120  1  0.96630000  0.84660000  0.04660000  1
  O  O121  1  0.96650000  0.63410000  0.24290000  1
