# generated using pymatgen
data_Cu5H12C32O19
_symmetry_space_group_name_H-M   'P 1'
_cell_length_a   18.59240000
_cell_length_b   18.59240000
_cell_length_c   42.22930000
_cell_angle_alpha   90.00000000
_cell_angle_beta   90.00000000
_cell_angle_gamma   90.00000000
_symmetry_Int_Tables_number   1
_chemical_formula_structural   Cu5H12C32O19
_chemical_formula_sum   'Cu40 H96 C256 O152'
_cell_volume   14597.71199947
_cell_formula_units_Z   8
loop_
 _symmetry_equiv_pos_site_id
 _symmetry_equiv_pos_as_xyz
  1  'x, y, z'
loop_
 _atom_site_type_symbol
 _atom_site_label
 _atom_site_symmetry_multiplicity
 _atom_site_fract_x
 _atom_site_fract_y
 _atom_site_fract_z
 _atom_site_occupancy
  Cu  Cu0  1  0.05655000  0.05655000  0.39513000  1
  Cu  Cu1  1  0.05655000  0.05655000  0.60487000  1
  Cu  Cu2  1  0.09367000  0.90633000  0.43252000  1
  Cu  Cu3  1  0.09367000  0.90633000  0.56748000  1
  Cu  Cu4  1  0.15412000  0.15412000  0.50000000  1
  Cu  Cu5  1  0.19182000  0.19182000  0.23290000  1
  Cu  Cu6  1  0.19182000  0.19182000  0.76710000  1
  Cu  Cu7  1  0.24141000  0.75859000  0.21996000  1
  Cu  Cu8  1  0.24141000  0.75859000  0.78004000  1
  Cu  Cu9  1  0.24503000  0.75497000  0.00000000  1
  Cu  Cu10  1  0.25497000  0.25497000  0.50000000  1
  Cu  Cu11  1  0.25859000  0.25859000  0.28004000  1
  Cu  Cu12  1  0.25859000  0.25859000  0.71996000  1
  Cu  Cu13  1  0.30818000  0.69182000  0.26710000  1
  Cu  Cu14  1  0.30818000  0.69182000  0.73290000  1
  Cu  Cu15  1  0.34588000  0.65412000  0.00000000  1
  Cu  Cu16  1  0.40633000  0.40633000  0.06748000  1
  Cu  Cu17  1  0.40633000  0.40633000  0.93252000  1
  Cu  Cu18  1  0.44345000  0.55655000  0.10487000  1
  Cu  Cu19  1  0.44345000  0.55655000  0.89513000  1
  Cu  Cu20  1  0.55655000  0.44345000  0.10487000  1
  Cu  Cu21  1  0.55655000  0.44345000  0.89513000  1
  Cu  Cu22  1  0.59367000  0.59367000  0.06748000  1
  Cu  Cu23  1  0.59367000  0.59367000  0.93252000  1
  Cu  Cu24  1  0.65412000  0.34588000  0.00000000  1
  Cu  Cu25  1  0.69182000  0.30818000  0.26710000  1
  Cu  Cu26  1  0.69182000  0.30818000  0.73290000  1
  Cu  Cu27  1  0.74141000  0.74141000  0.28004000  1
  Cu  Cu28  1  0.74141000  0.74141000  0.71996000  1
  Cu  Cu29  1  0.74503000  0.74503000  0.50000000  1
  Cu  Cu30  1  0.75497000  0.24503000  0.00000000  1
  Cu  Cu31  1  0.75859000  0.24141000  0.21996000  1
  Cu  Cu32  1  0.75859000  0.24141000  0.78004000  1
  Cu  Cu33  1  0.80818000  0.80818000  0.23290000  1
  Cu  Cu34  1  0.80818000  0.80818000  0.76710000  1
  Cu  Cu35  1  0.84588000  0.84588000  0.50000000  1
  Cu  Cu36  1  0.90633000  0.09367000  0.43252000  1
  Cu  Cu37  1  0.90633000  0.09367000  0.56748000  1
  Cu  Cu38  1  0.94345000  0.94345000  0.39513000  1
  Cu  Cu39  1  0.94345000  0.94345000  0.60487000  1
  H  H40  1  0.00300000  0.58110000  0.37500000  1
  H  H41  1  0.00300000  0.58110000  0.62500000  1
  H  H42  1  0.02290000  0.74560000  0.25820000  1
  H  H43  1  0.02290000  0.74560000  0.74180000  1
  H  H44  1  0.02450000  0.58260000  0.09390000  1
  H  H45  1  0.02450000  0.58260000  0.90610000  1
  H  H46  1  0.07040000  0.27130000  0.34400000  1
  H  H47  1  0.07040000  0.27130000  0.65600000  1
  H  H48  1  0.08110000  0.49700000  0.12500000  1
  H  H49  1  0.08110000  0.49700000  0.87500000  1
  H  H50  1  0.08260000  0.47550000  0.40610000  1
  H  H51  1  0.08260000  0.47550000  0.59390000  1
  H  H52  1  0.09730000  0.64670000  0.05690000  1
  H  H53  1  0.09730000  0.64670000  0.94310000  1
  H  H54  1  0.14130000  0.69440000  0.33340000  1
  H  H55  1  0.14130000  0.69440000  0.66666667  1
  H  H56  1  0.14670000  0.40270000  0.44310000  1
  H  H57  1  0.14670000  0.40270000  0.55690000  1
  H  H58  1  0.19440000  0.35870000  0.16660000  1
  H  H59  1  0.19440000  0.35870000  0.83340000  1
  H  H60  1  0.22870000  0.57040000  0.15600000  1
  H  H61  1  0.22870000  0.57040000  0.84400000  1
  H  H62  1  0.24560000  0.47710000  0.24180000  1
  H  H63  1  0.24560000  0.47710000  0.75820000  1
  H  H64  1  0.25440000  0.97710000  0.25820000  1
  H  H65  1  0.25440000  0.97710000  0.74180000  1
  H  H66  1  0.27130000  0.07040000  0.34400000  1
  H  H67  1  0.27130000  0.07040000  0.65600000  1
  H  H68  1  0.30560000  0.85870000  0.33340000  1
  H  H69  1  0.30560000  0.85870000  0.66666667  1
  H  H70  1  0.35330000  0.90270000  0.05690000  1
  H  H71  1  0.35330000  0.90270000  0.94310000  1
  H  H72  1  0.35870000  0.19440000  0.16660000  1
  H  H73  1  0.35870000  0.19440000  0.83340000  1
  H  H74  1  0.40270000  0.14670000  0.44310000  1
  H  H75  1  0.40270000  0.14670000  0.55690000  1
  H  H76  1  0.41740000  0.97550000  0.09390000  1
  H  H77  1  0.41740000  0.97550000  0.90610000  1
  H  H78  1  0.41890000  0.99700000  0.37500000  1
  H  H79  1  0.41890000  0.99700000  0.62500000  1
  H  H80  1  0.42960000  0.77130000  0.15600000  1
  H  H81  1  0.42960000  0.77130000  0.84400000  1
  H  H82  1  0.47550000  0.08260000  0.40610000  1
  H  H83  1  0.47550000  0.08260000  0.59390000  1
  H  H84  1  0.47710000  0.24560000  0.24180000  1
  H  H85  1  0.47710000  0.24560000  0.75820000  1
  H  H86  1  0.49700000  0.08110000  0.12500000  1
  H  H87  1  0.49700000  0.08110000  0.87500000  1
  H  H88  1  0.50300000  0.91890000  0.12500000  1
  H  H89  1  0.50300000  0.91890000  0.87500000  1
  H  H90  1  0.52290000  0.75440000  0.24180000  1
  H  H91  1  0.52290000  0.75440000  0.75820000  1
  H  H92  1  0.52450000  0.91740000  0.40610000  1
  H  H93  1  0.52450000  0.91740000  0.59390000  1
  H  H94  1  0.57040000  0.22870000  0.15600000  1
  H  H95  1  0.57040000  0.22870000  0.84400000  1
  H  H96  1  0.58110000  0.00300000  0.37500000  1
  H  H97  1  0.58110000  0.00300000  0.62500000  1
  H  H98  1  0.58260000  0.02450000  0.09390000  1
  H  H99  1  0.58260000  0.02450000  0.90610000  1
  H  H100  1  0.59730000  0.85330000  0.44310000  1
  H  H101  1  0.59730000  0.85330000  0.55690000  1
  H  H102  1  0.64130000  0.80560000  0.16660000  1
  H  H103  1  0.64130000  0.80560000  0.83340000  1
  H  H104  1  0.64670000  0.09730000  0.05690000  1
  H  H105  1  0.64670000  0.09730000  0.94310000  1
  H  H106  1  0.69440000  0.14130000  0.33340000  1
  H  H107  1  0.69440000  0.14130000  0.66666667  1
  H  H108  1  0.72870000  0.92960000  0.34400000  1
  H  H109  1  0.72870000  0.92960000  0.65600000  1
  H  H110  1  0.74560000  0.02290000  0.25820000  1
  H  H111  1  0.74560000  0.02290000  0.74180000  1
  H  H112  1  0.75440000  0.52290000  0.24180000  1
  H  H113  1  0.75440000  0.52290000  0.75820000  1
  H  H114  1  0.77130000  0.42960000  0.15600000  1
  H  H115  1  0.77130000  0.42960000  0.84400000  1
  H  H116  1  0.80560000  0.64130000  0.16660000  1
  H  H117  1  0.80560000  0.64130000  0.83340000  1
  H  H118  1  0.85330000  0.59730000  0.44310000  1
  H  H119  1  0.85330000  0.59730000  0.55690000  1
  H  H120  1  0.85870000  0.30560000  0.33340000  1
  H  H121  1  0.85870000  0.30560000  0.66666667  1
  H  H122  1  0.90270000  0.35330000  0.05690000  1
  H  H123  1  0.90270000  0.35330000  0.94310000  1
  H  H124  1  0.91740000  0.52450000  0.40610000  1
  H  H125  1  0.91740000  0.52450000  0.59390000  1
  H  H126  1  0.91890000  0.50300000  0.12500000  1
  H  H127  1  0.91890000  0.50300000  0.87500000  1
  H  H128  1  0.92960000  0.72870000  0.34400000  1
  H  H129  1  0.92960000  0.72870000  0.65600000  1
  H  H130  1  0.97550000  0.41740000  0.09390000  1
  H  H131  1  0.97550000  0.41740000  0.90610000  1
  H  H132  1  0.97710000  0.25440000  0.25820000  1
  H  H133  1  0.97710000  0.25440000  0.74180000  1
  H  H134  1  0.99700000  0.41890000  0.37500000  1
  H  H135  1  0.99700000  0.41890000  0.62500000  1
  C  C136  1  0.00520000  0.32240000  0.39385000  1
  C  C137  1  0.00520000  0.32240000  0.60615000  1
  C  C138  1  0.02060000  0.20110000  0.41618000  1
  C  C139  1  0.02060000  0.20110000  0.58382000  1
  C  C140  1  0.02140000  0.39250000  0.39026000  1
  C  C141  1  0.02140000  0.39250000  0.60974000  1
  C  C142  1  0.02590000  0.73520000  0.27967000  1
  C  C143  1  0.02590000  0.73520000  0.72033000  1
  C  C144  1  0.03000000  0.27330000  0.33104000  1
  C  C145  1  0.03000000  0.27330000  0.66896000  1
  C  C146  1  0.03580000  0.26230000  0.29860000  1
  C  C147  1  0.03580000  0.26230000  0.70140000  1
  C  C148  1  0.03710000  0.71280000  0.34365000  1
  C  C149  1  0.03710000  0.71280000  0.65635000  1
  C  C150  1  0.03920000  0.27950000  0.41608000  1
  C  C151  1  0.03920000  0.27950000  0.58392000  1
  C  C152  1  0.07280000  0.42680000  0.40840000  1
  C  C153  1  0.07280000  0.42680000  0.59160000  1
  C  C154  1  0.07320000  0.57280000  0.09160000  1
  C  C155  1  0.07320000  0.57280000  0.90840000  1
  C  C156  1  0.09110000  0.71740000  0.29296000  1
  C  C157  1  0.09110000  0.71740000  0.70704000  1
  C  C158  1  0.09330000  0.31300000  0.43468000  1
  C  C159  1  0.09330000  0.31300000  0.56532000  1
  C  C160  1  0.09700000  0.70630000  0.32463000  1
  C  C161  1  0.09700000  0.70630000  0.67537000  1
  C  C162  1  0.10740000  0.24560000  0.28386000  1
  C  C163  1  0.10740000  0.24560000  0.71614000  1
  C  C164  1  0.10750000  0.52140000  0.10974000  1
  C  C165  1  0.10750000  0.52140000  0.89026000  1
  C  C166  1  0.11020000  0.38270000  0.43090000  1
  C  C167  1  0.11020000  0.38270000  0.56910000  1
  C  C168  1  0.11730000  0.61020000  0.06910000  1
  C  C169  1  0.11730000  0.61020000  0.93090000  1
  C  C170  1  0.13450000  0.26930000  0.45869000  1
  C  C171  1  0.13450000  0.26930000  0.54131000  1
  C  C172  1  0.15770000  0.71530000  0.27301000  1
  C  C173  1  0.15770000  0.71530000  0.72699000  1
  C  C174  1  0.17760000  0.50520000  0.10615000  1
  C  C175  1  0.17760000  0.50520000  0.89385000  1
  C  C176  1  0.18700000  0.59330000  0.06532000  1
  C  C177  1  0.18700000  0.59330000  0.93468000  1
  C  C178  1  0.20110000  0.02060000  0.41618000  1
  C  C179  1  0.20110000  0.02060000  0.58382000  1
  C  C180  1  0.20630000  0.40300000  0.17537000  1
  C  C181  1  0.20630000  0.40300000  0.82463000  1
  C  C182  1  0.21280000  0.46290000  0.15635000  1
  C  C183  1  0.21280000  0.46290000  0.84365000  1
  C  C184  1  0.21530000  0.34230000  0.22699000  1
  C  C185  1  0.21530000  0.34230000  0.77301000  1
  C  C186  1  0.21740000  0.40890000  0.20704000  1
  C  C187  1  0.21740000  0.40890000  0.79296000  1
  C  C188  1  0.22050000  0.53920000  0.08392000  1
  C  C189  1  0.22050000  0.53920000  0.91608000  1
  C  C190  1  0.22670000  0.53000000  0.16896000  1
  C  C191  1  0.22670000  0.53000000  0.83104000  1
  C  C192  1  0.23070000  0.63450000  0.04131000  1
  C  C193  1  0.23070000  0.63450000  0.95869000  1
  C  C194  1  0.23520000  0.47410000  0.22033000  1
  C  C195  1  0.23520000  0.47410000  0.77967000  1
  C  C196  1  0.23770000  0.53580000  0.20140000  1
  C  C197  1  0.23770000  0.53580000  0.79860000  1
  C  C198  1  0.24560000  0.10740000  0.28386000  1
  C  C199  1  0.24560000  0.10740000  0.71614000  1
  C  C200  1  0.25440000  0.60740000  0.21614000  1
  C  C201  1  0.25440000  0.60740000  0.78386000  1
  C  C202  1  0.26230000  0.03580000  0.29860000  1
  C  C203  1  0.26230000  0.03580000  0.70140000  1
  C  C204  1  0.26480000  0.97410000  0.27967000  1
  C  C205  1  0.26480000  0.97410000  0.72033000  1
  C  C206  1  0.26930000  0.13450000  0.45869000  1
  C  C207  1  0.26930000  0.13450000  0.54131000  1
  C  C208  1  0.27330000  0.03000000  0.33104000  1
  C  C209  1  0.27330000  0.03000000  0.66896000  1
  C  C210  1  0.27950000  0.03920000  0.41608000  1
  C  C211  1  0.27950000  0.03920000  0.58392000  1
  C  C212  1  0.28260000  0.90890000  0.29296000  1
  C  C213  1  0.28260000  0.90890000  0.70704000  1
  C  C214  1  0.28470000  0.84230000  0.27301000  1
  C  C215  1  0.28470000  0.84230000  0.72699000  1
  C  C216  1  0.28720000  0.96290000  0.34365000  1
  C  C217  1  0.28720000  0.96290000  0.65635000  1
  C  C218  1  0.29370000  0.90300000  0.32463000  1
  C  C219  1  0.29370000  0.90300000  0.67537000  1
  C  C220  1  0.29890000  0.52060000  0.08382000  1
  C  C221  1  0.29890000  0.52060000  0.91618000  1
  C  C222  1  0.31300000  0.09330000  0.43468000  1
  C  C223  1  0.31300000  0.09330000  0.56532000  1
  C  C224  1  0.32240000  0.00520000  0.39385000  1
  C  C225  1  0.32240000  0.00520000  0.60615000  1
  C  C226  1  0.34230000  0.21530000  0.22699000  1
  C  C227  1  0.34230000  0.21530000  0.77301000  1
  C  C228  1  0.36550000  0.76930000  0.04131000  1
  C  C229  1  0.36550000  0.76930000  0.95869000  1
  C  C230  1  0.38270000  0.11020000  0.43090000  1
  C  C231  1  0.38270000  0.11020000  0.56910000  1
  C  C232  1  0.38980000  0.88270000  0.06910000  1
  C  C233  1  0.38980000  0.88270000  0.93090000  1
  C  C234  1  0.39250000  0.02140000  0.39026000  1
  C  C235  1  0.39250000  0.02140000  0.60974000  1
  C  C236  1  0.39260000  0.74560000  0.21614000  1
  C  C237  1  0.39260000  0.74560000  0.78386000  1
  C  C238  1  0.40300000  0.20630000  0.17537000  1
  C  C239  1  0.40300000  0.20630000  0.82463000  1
  C  C240  1  0.40670000  0.81300000  0.06532000  1
  C  C241  1  0.40670000  0.81300000  0.93468000  1
  C  C242  1  0.40890000  0.21740000  0.20704000  1
  C  C243  1  0.40890000  0.21740000  0.79296000  1
  C  C244  1  0.42680000  0.07280000  0.40840000  1
  C  C245  1  0.42680000  0.07280000  0.59160000  1
  C  C246  1  0.42720000  0.92680000  0.09160000  1
  C  C247  1  0.42720000  0.92680000  0.90840000  1
  C  C248  1  0.46080000  0.77950000  0.08392000  1
  C  C249  1  0.46080000  0.77950000  0.91608000  1
  C  C250  1  0.46290000  0.21280000  0.15635000  1
  C  C251  1  0.46290000  0.21280000  0.84365000  1
  C  C252  1  0.46420000  0.76230000  0.20140000  1
  C  C253  1  0.46420000  0.76230000  0.79860000  1
  C  C254  1  0.47000000  0.77330000  0.16896000  1
  C  C255  1  0.47000000  0.77330000  0.83104000  1
  C  C256  1  0.47410000  0.23520000  0.22033000  1
  C  C257  1  0.47410000  0.23520000  0.77967000  1
  C  C258  1  0.47860000  0.89250000  0.10974000  1
  C  C259  1  0.47860000  0.89250000  0.89026000  1
  C  C260  1  0.47940000  0.70110000  0.08382000  1
  C  C261  1  0.47940000  0.70110000  0.91618000  1
  C  C262  1  0.49480000  0.82240000  0.10615000  1
  C  C263  1  0.49480000  0.82240000  0.89385000  1
  C  C264  1  0.50520000  0.17760000  0.10615000  1
  C  C265  1  0.50520000  0.17760000  0.89385000  1
  C  C266  1  0.52060000  0.29890000  0.08382000  1
  C  C267  1  0.52060000  0.29890000  0.91618000  1
  C  C268  1  0.52140000  0.10750000  0.10974000  1
  C  C269  1  0.52140000  0.10750000  0.89026000  1
  C  C270  1  0.52590000  0.76480000  0.22033000  1
  C  C271  1  0.52590000  0.76480000  0.77967000  1
  C  C272  1  0.53000000  0.22670000  0.16896000  1
  C  C273  1  0.53000000  0.22670000  0.83104000  1
  C  C274  1  0.53580000  0.23770000  0.20140000  1
  C  C275  1  0.53580000  0.23770000  0.79860000  1
  C  C276  1  0.53710000  0.78720000  0.15635000  1
  C  C277  1  0.53710000  0.78720000  0.84365000  1
  C  C278  1  0.53920000  0.22050000  0.08392000  1
  C  C279  1  0.53920000  0.22050000  0.91608000  1
  C  C280  1  0.57280000  0.07320000  0.09160000  1
  C  C281  1  0.57280000  0.07320000  0.90840000  1
  C  C282  1  0.57320000  0.92720000  0.40840000  1
  C  C283  1  0.57320000  0.92720000  0.59160000  1
  C  C284  1  0.59110000  0.78260000  0.20704000  1
  C  C285  1  0.59110000  0.78260000  0.79296000  1
  C  C286  1  0.59330000  0.18700000  0.06532000  1
  C  C287  1  0.59330000  0.18700000  0.93468000  1
  C  C288  1  0.59700000  0.79370000  0.17537000  1
  C  C289  1  0.59700000  0.79370000  0.82463000  1
  C  C290  1  0.60740000  0.25440000  0.21614000  1
  C  C291  1  0.60740000  0.25440000  0.78386000  1
  C  C292  1  0.60750000  0.97860000  0.39026000  1
  C  C293  1  0.60750000  0.97860000  0.60974000  1
  C  C294  1  0.61020000  0.11730000  0.06910000  1
  C  C295  1  0.61020000  0.11730000  0.93090000  1
  C  C296  1  0.61730000  0.88980000  0.43090000  1
  C  C297  1  0.61730000  0.88980000  0.56910000  1
  C  C298  1  0.63450000  0.23070000  0.04131000  1
  C  C299  1  0.63450000  0.23070000  0.95869000  1
  C  C300  1  0.65770000  0.78470000  0.22699000  1
  C  C301  1  0.65770000  0.78470000  0.77301000  1
  C  C302  1  0.67760000  0.99480000  0.39385000  1
  C  C303  1  0.67760000  0.99480000  0.60615000  1
  C  C304  1  0.68700000  0.90670000  0.43468000  1
  C  C305  1  0.68700000  0.90670000  0.56532000  1
  C  C306  1  0.70110000  0.47940000  0.08382000  1
  C  C307  1  0.70110000  0.47940000  0.91618000  1
  C  C308  1  0.70630000  0.09700000  0.32463000  1
  C  C309  1  0.70630000  0.09700000  0.67537000  1
  C  C310  1  0.71280000  0.03710000  0.34365000  1
  C  C311  1  0.71280000  0.03710000  0.65635000  1
  C  C312  1  0.71530000  0.15770000  0.27301000  1
  C  C313  1  0.71530000  0.15770000  0.72699000  1
  C  C314  1  0.71740000  0.09110000  0.29296000  1
  C  C315  1  0.71740000  0.09110000  0.70704000  1
  C  C316  1  0.72050000  0.96080000  0.41608000  1
  C  C317  1  0.72050000  0.96080000  0.58392000  1
  C  C318  1  0.72670000  0.97000000  0.33104000  1
  C  C319  1  0.72670000  0.97000000  0.66896000  1
  C  C320  1  0.73070000  0.86550000  0.45869000  1
  C  C321  1  0.73070000  0.86550000  0.54131000  1
  C  C322  1  0.73520000  0.02590000  0.27967000  1
  C  C323  1  0.73520000  0.02590000  0.72033000  1
  C  C324  1  0.73770000  0.96420000  0.29860000  1
  C  C325  1  0.73770000  0.96420000  0.70140000  1
  C  C326  1  0.74560000  0.39260000  0.21614000  1
  C  C327  1  0.74560000  0.39260000  0.78386000  1
  C  C328  1  0.75440000  0.89260000  0.28386000  1
  C  C329  1  0.75440000  0.89260000  0.71614000  1
  C  C330  1  0.76230000  0.46420000  0.20140000  1
  C  C331  1  0.76230000  0.46420000  0.79860000  1
  C  C332  1  0.76480000  0.52590000  0.22033000  1
  C  C333  1  0.76480000  0.52590000  0.77967000  1
  C  C334  1  0.76930000  0.36550000  0.04131000  1
  C  C335  1  0.76930000  0.36550000  0.95869000  1
  C  C336  1  0.77330000  0.47000000  0.16896000  1
  C  C337  1  0.77330000  0.47000000  0.83104000  1
  C  C338  1  0.77950000  0.46080000  0.08392000  1
  C  C339  1  0.77950000  0.46080000  0.91608000  1
  C  C340  1  0.78260000  0.59110000  0.20704000  1
  C  C341  1  0.78260000  0.59110000  0.79296000  1
  C  C342  1  0.78470000  0.65770000  0.22699000  1
  C  C343  1  0.78470000  0.65770000  0.77301000  1
  C  C344  1  0.78720000  0.53710000  0.15635000  1
  C  C345  1  0.78720000  0.53710000  0.84365000  1
  C  C346  1  0.79370000  0.59700000  0.17537000  1
  C  C347  1  0.79370000  0.59700000  0.82463000  1
  C  C348  1  0.79890000  0.97940000  0.41618000  1
  C  C349  1  0.79890000  0.97940000  0.58382000  1
  C  C350  1  0.81300000  0.40670000  0.06532000  1
  C  C351  1  0.81300000  0.40670000  0.93468000  1
  C  C352  1  0.82240000  0.49480000  0.10615000  1
  C  C353  1  0.82240000  0.49480000  0.89385000  1
  C  C354  1  0.84230000  0.28470000  0.27301000  1
  C  C355  1  0.84230000  0.28470000  0.72699000  1
  C  C356  1  0.86550000  0.73070000  0.45869000  1
  C  C357  1  0.86550000  0.73070000  0.54131000  1
  C  C358  1  0.88270000  0.38980000  0.06910000  1
  C  C359  1  0.88270000  0.38980000  0.93090000  1
  C  C360  1  0.88980000  0.61730000  0.43090000  1
  C  C361  1  0.88980000  0.61730000  0.56910000  1
  C  C362  1  0.89250000  0.47860000  0.10974000  1
  C  C363  1  0.89250000  0.47860000  0.89026000  1
  C  C364  1  0.89260000  0.75440000  0.28386000  1
  C  C365  1  0.89260000  0.75440000  0.71614000  1
  C  C366  1  0.90300000  0.29370000  0.32463000  1
  C  C367  1  0.90300000  0.29370000  0.67537000  1
  C  C368  1  0.90670000  0.68700000  0.43468000  1
  C  C369  1  0.90670000  0.68700000  0.56532000  1
  C  C370  1  0.90890000  0.28260000  0.29296000  1
  C  C371  1  0.90890000  0.28260000  0.70704000  1
  C  C372  1  0.92680000  0.42720000  0.09160000  1
  C  C373  1  0.92680000  0.42720000  0.90840000  1
  C  C374  1  0.92720000  0.57320000  0.40840000  1
  C  C375  1  0.92720000  0.57320000  0.59160000  1
  C  C376  1  0.96080000  0.72050000  0.41608000  1
  C  C377  1  0.96080000  0.72050000  0.58392000  1
  C  C378  1  0.96290000  0.28720000  0.34365000  1
  C  C379  1  0.96290000  0.28720000  0.65635000  1
  C  C380  1  0.96420000  0.73770000  0.29860000  1
  C  C381  1  0.96420000  0.73770000  0.70140000  1
  C  C382  1  0.97000000  0.72670000  0.33104000  1
  C  C383  1  0.97000000  0.72670000  0.66896000  1
  C  C384  1  0.97410000  0.26480000  0.27967000  1
  C  C385  1  0.97410000  0.26480000  0.72033000  1
  C  C386  1  0.97860000  0.60750000  0.39026000  1
  C  C387  1  0.97860000  0.60750000  0.60974000  1
  C  C388  1  0.97940000  0.79890000  0.41618000  1
  C  C389  1  0.97940000  0.79890000  0.58382000  1
  C  C390  1  0.99480000  0.67760000  0.39385000  1
  C  C391  1  0.99480000  0.67760000  0.60615000  1
  O  O392  1  0.03430000  0.81760000  0.43239000  1
  O  O393  1  0.03430000  0.81760000  0.56761000  1
  O  O394  1  0.04940000  0.70910000  0.37597000  1
  O  O395  1  0.04940000  0.70910000  0.62403000  1
  O  O396  1  0.04960000  0.95040000  0.39543000  1
  O  O397  1  0.04960000  0.95040000  0.60457000  1
  O  O398  1  0.05930000  0.16140000  0.39978000  1
  O  O399  1  0.05930000  0.16140000  0.60022000  1
  O  O400  1  0.10580000  0.21210000  0.25795000  1
  O  O401  1  0.10580000  0.21210000  0.74205000  1
  O  O402  1  0.10820000  0.21340000  0.46826000  1
  O  O403  1  0.10820000  0.21340000  0.53174000  1
  O  O404  1  0.15490000  0.74230000  0.24570000  1
  O  O405  1  0.15490000  0.74230000  0.75430000  1
  O  O406  1  0.16140000  0.05930000  0.39978000  1
  O  O407  1  0.16140000  0.05930000  0.60022000  1
  O  O408  1  0.16240000  0.26670000  0.29798000  1
  O  O409  1  0.16240000  0.26670000  0.70202000  1
  O  O410  1  0.18240000  0.96570000  0.43239000  1
  O  O411  1  0.18240000  0.96570000  0.56761000  1
  O  O412  1  0.18510000  0.28800000  0.21454000  1
  O  O413  1  0.18510000  0.28800000  0.78546000  1
  O  O414  1  0.19380000  0.29860000  0.46791000  1
  O  O415  1  0.19380000  0.29860000  0.53209000  1
  O  O416  1  0.20140000  0.69380000  0.03209000  1
  O  O417  1  0.20140000  0.69380000  0.96791000  1
  O  O418  1  0.20910000  0.45060000  0.12403000  1
  O  O419  1  0.20910000  0.45060000  0.87597000  1
  O  O420  1  0.21200000  0.68510000  0.28546000  1
  O  O421  1  0.21200000  0.68510000  0.71454000  1
  O  O422  1  0.21210000  0.10580000  0.25795000  1
  O  O423  1  0.21210000  0.10580000  0.74205000  1
  O  O424  1  0.21340000  0.10820000  0.46826000  1
  O  O425  1  0.21340000  0.10820000  0.53174000  1
  O  O426  1  0.23330000  0.66240000  0.20202000  1
  O  O427  1  0.23330000  0.66240000  0.79798000  1
  O  O428  1  0.24230000  0.34510000  0.25430000  1
  O  O429  1  0.24230000  0.34510000  0.74570000  1
  O  O430  1  0.25770000  0.84510000  0.24570000  1
  O  O431  1  0.25770000  0.84510000  0.75430000  1
  O  O432  1  0.26670000  0.16240000  0.29798000  1
  O  O433  1  0.26670000  0.16240000  0.70202000  1
  O  O434  1  0.28660000  0.60820000  0.03174000  1
  O  O435  1  0.28660000  0.60820000  0.96826000  1
  O  O436  1  0.28790000  0.60580000  0.24205000  1
  O  O437  1  0.28790000  0.60580000  0.75795000  1
  O  O438  1  0.28800000  0.18510000  0.21454000  1
  O  O439  1  0.28800000  0.18510000  0.78546000  1
  O  O440  1  0.29090000  0.95060000  0.37597000  1
  O  O441  1  0.29090000  0.95060000  0.62403000  1
  O  O442  1  0.29860000  0.19380000  0.46791000  1
  O  O443  1  0.29860000  0.19380000  0.53209000  1
  O  O444  1  0.30620000  0.79860000  0.03209000  1
  O  O445  1  0.30620000  0.79860000  0.96791000  1
  O  O446  1  0.31490000  0.78800000  0.28546000  1
  O  O447  1  0.31490000  0.78800000  0.71454000  1
  O  O448  1  0.31760000  0.46570000  0.06761000  1
  O  O449  1  0.31760000  0.46570000  0.93239000  1
  O  O450  1  0.33760000  0.76670000  0.20202000  1
  O  O451  1  0.33760000  0.76670000  0.79798000  1
  O  O452  1  0.33860000  0.55930000  0.10022000  1
  O  O453  1  0.33860000  0.55930000  0.89978000  1
  O  O454  1  0.34510000  0.24230000  0.25430000  1
  O  O455  1  0.34510000  0.24230000  0.74570000  1
  O  O456  1  0.39180000  0.71340000  0.03174000  1
  O  O457  1  0.39180000  0.71340000  0.96826000  1
  O  O458  1  0.39420000  0.71210000  0.24205000  1
  O  O459  1  0.39420000  0.71210000  0.75795000  1
  O  O460  1  0.44070000  0.66140000  0.10022000  1
  O  O461  1  0.44070000  0.66140000  0.89978000  1
  O  O462  1  0.45040000  0.45040000  0.10457000  1
  O  O463  1  0.45040000  0.45040000  0.89543000  1
  O  O464  1  0.45060000  0.20910000  0.12403000  1
  O  O465  1  0.45060000  0.20910000  0.87597000  1
  O  O466  1  0.46570000  0.31760000  0.06761000  1
  O  O467  1  0.46570000  0.31760000  0.93239000  1
  O  O468  1  0.53430000  0.68240000  0.06761000  1
  O  O469  1  0.53430000  0.68240000  0.93239000  1
  O  O470  1  0.54940000  0.79090000  0.12403000  1
  O  O471  1  0.54940000  0.79090000  0.87597000  1
  O  O472  1  0.54960000  0.54960000  0.10457000  1
  O  O473  1  0.54960000  0.54960000  0.89543000  1
  O  O474  1  0.55930000  0.33860000  0.10022000  1
  O  O475  1  0.55930000  0.33860000  0.89978000  1
  O  O476  1  0.60580000  0.28790000  0.24205000  1
  O  O477  1  0.60580000  0.28790000  0.75795000  1
  O  O478  1  0.60820000  0.28660000  0.03174000  1
  O  O479  1  0.60820000  0.28660000  0.96826000  1
  O  O480  1  0.65490000  0.75770000  0.25430000  1
  O  O481  1  0.65490000  0.75770000  0.74570000  1
  O  O482  1  0.66140000  0.44070000  0.10022000  1
  O  O483  1  0.66140000  0.44070000  0.89978000  1
  O  O484  1  0.66240000  0.23330000  0.20202000  1
  O  O485  1  0.66240000  0.23330000  0.79798000  1
  O  O486  1  0.68240000  0.53430000  0.06761000  1
  O  O487  1  0.68240000  0.53430000  0.93239000  1
  O  O488  1  0.68510000  0.21200000  0.28546000  1
  O  O489  1  0.68510000  0.21200000  0.71454000  1
  O  O490  1  0.69380000  0.20140000  0.03209000  1
  O  O491  1  0.69380000  0.20140000  0.96791000  1
  O  O492  1  0.70140000  0.80620000  0.46791000  1
  O  O493  1  0.70140000  0.80620000  0.53209000  1
  O  O494  1  0.70910000  0.04940000  0.37597000  1
  O  O495  1  0.70910000  0.04940000  0.62403000  1
  O  O496  1  0.71200000  0.81490000  0.21454000  1
  O  O497  1  0.71200000  0.81490000  0.78546000  1
  O  O498  1  0.71210000  0.39420000  0.24205000  1
  O  O499  1  0.71210000  0.39420000  0.75795000  1
  O  O500  1  0.71340000  0.39180000  0.03174000  1
  O  O501  1  0.71340000  0.39180000  0.96826000  1
  O  O502  1  0.73330000  0.83760000  0.29798000  1
  O  O503  1  0.73330000  0.83760000  0.70202000  1
  O  O504  1  0.74230000  0.15490000  0.24570000  1
  O  O505  1  0.74230000  0.15490000  0.75430000  1
  O  O506  1  0.75770000  0.65490000  0.25430000  1
  O  O507  1  0.75770000  0.65490000  0.74570000  1
  O  O508  1  0.76670000  0.33760000  0.20202000  1
  O  O509  1  0.76670000  0.33760000  0.79798000  1
  O  O510  1  0.78660000  0.89180000  0.46826000  1
  O  O511  1  0.78660000  0.89180000  0.53174000  1
  O  O512  1  0.78790000  0.89420000  0.25795000  1
  O  O513  1  0.78790000  0.89420000  0.74205000  1
  O  O514  1  0.78800000  0.31490000  0.28546000  1
  O  O515  1  0.78800000  0.31490000  0.71454000  1
  O  O516  1  0.79090000  0.54940000  0.12403000  1
  O  O517  1  0.79090000  0.54940000  0.87597000  1
  O  O518  1  0.79860000  0.30620000  0.03209000  1
  O  O519  1  0.79860000  0.30620000  0.96791000  1
  O  O520  1  0.80620000  0.70140000  0.46791000  1
  O  O521  1  0.80620000  0.70140000  0.53209000  1
  O  O522  1  0.81490000  0.71200000  0.21454000  1
  O  O523  1  0.81490000  0.71200000  0.78546000  1
  O  O524  1  0.81760000  0.03430000  0.43239000  1
  O  O525  1  0.81760000  0.03430000  0.56761000  1
  O  O526  1  0.83760000  0.73330000  0.29798000  1
  O  O527  1  0.83760000  0.73330000  0.70202000  1
  O  O528  1  0.83860000  0.94070000  0.39978000  1
  O  O529  1  0.83860000  0.94070000  0.60022000  1
  O  O530  1  0.84510000  0.25770000  0.24570000  1
  O  O531  1  0.84510000  0.25770000  0.75430000  1
  O  O532  1  0.89180000  0.78660000  0.46826000  1
  O  O533  1  0.89180000  0.78660000  0.53174000  1
  O  O534  1  0.89420000  0.78790000  0.25795000  1
  O  O535  1  0.89420000  0.78790000  0.74205000  1
  O  O536  1  0.94070000  0.83860000  0.39978000  1
  O  O537  1  0.94070000  0.83860000  0.60022000  1
  O  O538  1  0.95040000  0.04960000  0.39543000  1
  O  O539  1  0.95040000  0.04960000  0.60457000  1
  O  O540  1  0.95060000  0.29090000  0.37597000  1
  O  O541  1  0.95060000  0.29090000  0.62403000  1
  O  O542  1  0.96570000  0.18240000  0.43239000  1
  O  O543  1  0.96570000  0.18240000  0.56761000  1
