# generated using pymatgen
data_KCrN18
_symmetry_space_group_name_H-M   'P 1'
_cell_length_a   13.06760000
_cell_length_b   13.06760000
_cell_length_c   13.06760000
_cell_angle_alpha   90.00000000
_cell_angle_beta   90.00000000
_cell_angle_gamma   90.00000000
_symmetry_Int_Tables_number   1
_chemical_formula_structural   KCrN18
_chemical_formula_sum   'K4 Cr4 N72'
_cell_volume   2231.45172956
_cell_formula_units_Z   4
loop_
 _symmetry_equiv_pos_site_id
 _symmetry_equiv_pos_as_xyz
  1  'x, y, z'
loop_
 _atom_site_type_symbol
 _atom_site_label
 _atom_site_symmetry_multiplicity
 _atom_site_fract_x
 _atom_site_fract_y
 _atom_site_fract_z
 _atom_site_occupancy
  K  K0  1  0.00000000  0.00000000  0.50000000  1
  K  K1  1  0.00000000  0.50000000  0.00000000  1
  K  K2  1  0.50000000  0.00000000  0.00000000  1
  K  K3  1  0.50000000  0.50000000  0.50000000  1
  Cr  Cr4  1  0.00000000  0.00000000  0.00000000  1
  Cr  Cr5  1  0.00000000  0.50000000  0.50000000  1
  Cr  Cr6  1  0.50000000  0.00000000  0.50000000  1
  Cr  Cr7  1  0.50000000  0.50000000  0.00000000  1
  N  N8  1  0.01995000  0.53974000  0.71418000  1
  N  N9  1  0.01995000  0.96026000  0.21418000  1
  N  N10  1  0.02070000  0.03680000  0.70746000  1
  N  N11  1  0.02070000  0.46320000  0.20746000  1
  N  N12  1  0.03680000  0.70746000  0.02070000  1
  N  N13  1  0.03680000  0.79254000  0.52070000  1
  N  N14  1  0.03974000  0.71418000  0.48005000  1
  N  N15  1  0.03974000  0.78582000  0.98005000  1
  N  N16  1  0.04477000  0.63499000  0.43504000  1
  N  N17  1  0.04477000  0.86501000  0.93504000  1
  N  N18  1  0.06496000  0.54477000  0.63499000  1
  N  N19  1  0.06496000  0.95523000  0.13499000  1
  N  N20  1  0.13499000  0.06496000  0.95523000  1
  N  N21  1  0.13499000  0.43504000  0.45523000  1
  N  N22  1  0.20746000  0.02070000  0.46320000  1
  N  N23  1  0.20746000  0.47930000  0.96320000  1
  N  N24  1  0.21418000  0.01995000  0.96026000  1
  N  N25  1  0.21418000  0.48005000  0.46026000  1
  N  N26  1  0.28582000  0.51995000  0.96026000  1
  N  N27  1  0.28582000  0.98005000  0.46026000  1
  N  N28  1  0.29254000  0.52070000  0.46320000  1
  N  N29  1  0.29254000  0.97930000  0.96320000  1
  N  N30  1  0.36501000  0.56496000  0.95523000  1
  N  N31  1  0.36501000  0.93504000  0.45523000  1
  N  N32  1  0.43504000  0.04477000  0.63499000  1
  N  N33  1  0.43504000  0.45523000  0.13499000  1
  N  N34  1  0.45523000  0.13499000  0.43504000  1
  N  N35  1  0.45523000  0.36501000  0.93504000  1
  N  N36  1  0.46026000  0.21418000  0.48005000  1
  N  N37  1  0.46026000  0.28582000  0.98005000  1
  N  N38  1  0.46320000  0.20746000  0.02070000  1
  N  N39  1  0.46320000  0.29254000  0.52070000  1
  N  N40  1  0.47930000  0.53680000  0.70746000  1
  N  N41  1  0.47930000  0.96320000  0.20746000  1
  N  N42  1  0.48005000  0.03974000  0.71418000  1
  N  N43  1  0.48005000  0.46026000  0.21418000  1
  N  N44  1  0.51995000  0.53974000  0.78582000  1
  N  N45  1  0.51995000  0.96026000  0.28582000  1
  N  N46  1  0.52070000  0.03680000  0.79254000  1
  N  N47  1  0.52070000  0.46320000  0.29254000  1
  N  N48  1  0.53680000  0.70746000  0.47930000  1
  N  N49  1  0.53680000  0.79254000  0.97930000  1
  N  N50  1  0.53974000  0.71418000  0.01995000  1
  N  N51  1  0.53974000  0.78582000  0.51995000  1
  N  N52  1  0.54477000  0.63499000  0.06496000  1
  N  N53  1  0.54477000  0.86501000  0.56496000  1
  N  N54  1  0.56496000  0.54477000  0.86501000  1
  N  N55  1  0.56496000  0.95523000  0.36501000  1
  N  N56  1  0.63499000  0.06496000  0.54477000  1
  N  N57  1  0.63499000  0.43504000  0.04477000  1
  N  N58  1  0.70746000  0.02070000  0.03680000  1
  N  N59  1  0.70746000  0.47930000  0.53680000  1
  N  N60  1  0.71418000  0.01995000  0.53974000  1
  N  N61  1  0.71418000  0.48005000  0.03974000  1
  N  N62  1  0.78582000  0.51995000  0.53974000  1
  N  N63  1  0.78582000  0.98005000  0.03974000  1
  N  N64  1  0.79254000  0.52070000  0.03680000  1
  N  N65  1  0.79254000  0.97930000  0.53680000  1
  N  N66  1  0.86501000  0.56496000  0.54477000  1
  N  N67  1  0.86501000  0.93504000  0.04477000  1
  N  N68  1  0.93504000  0.04477000  0.86501000  1
  N  N69  1  0.93504000  0.45523000  0.36501000  1
  N  N70  1  0.95523000  0.13499000  0.06496000  1
  N  N71  1  0.95523000  0.36501000  0.56496000  1
  N  N72  1  0.96026000  0.21418000  0.01995000  1
  N  N73  1  0.96026000  0.28582000  0.51995000  1
  N  N74  1  0.96320000  0.20746000  0.47930000  1
  N  N75  1  0.96320000  0.29254000  0.97930000  1
  N  N76  1  0.97930000  0.53680000  0.79254000  1
  N  N77  1  0.97930000  0.96320000  0.29254000  1
  N  N78  1  0.98005000  0.03974000  0.78582000  1
  N  N79  1  0.98005000  0.46026000  0.28582000  1
