# generated using pymatgen
data_TmH6(C2O)6
_symmetry_space_group_name_H-M   'P 1'
_cell_length_a   10.86390000
_cell_length_b   18.66700000
_cell_length_c   19.84000000
_cell_angle_alpha   98.03500000
_cell_angle_beta   96.53500000
_cell_angle_gamma   106.18500000
_symmetry_Int_Tables_number   1
_chemical_formula_structural   TmH6(C2O)6
_chemical_formula_sum   'Tm8 H48 C96 O48'
_cell_volume   3776.38594568
_cell_formula_units_Z   8
loop_
 _symmetry_equiv_pos_site_id
 _symmetry_equiv_pos_as_xyz
  1  'x, y, z'
loop_
 _atom_site_type_symbol
 _atom_site_label
 _atom_site_symmetry_multiplicity
 _atom_site_fract_x
 _atom_site_fract_y
 _atom_site_fract_z
 _atom_site_occupancy
  Tm  Tm0  1  0.17254000  0.59916000  0.79775000  1
  Tm  Tm1  1  0.17663000  0.89198000  0.79485000  1
  Tm  Tm2  1  0.23634000  0.38973000  0.72845000  1
  Tm  Tm3  1  0.24913000  0.10152000  0.72591000  1
  Tm  Tm4  1  0.75087000  0.89848000  0.27409000  1
  Tm  Tm5  1  0.76366000  0.61027000  0.27155000  1
  Tm  Tm6  1  0.82337000  0.10802000  0.20515000  1
  Tm  Tm7  1  0.82746000  0.40084000  0.20225000  1
  H  H8  1  0.00340000  0.40980000  0.40810000  1
  H  H9  1  0.02780000  0.27270000  0.54360000  1
  H  H10  1  0.04010000  0.93650000  0.41180000  1
  H  H11  1  0.05310000  0.77980000  0.57110000  1
  H  H12  1  0.09260000  0.40780000  0.52070000  1
  H  H13  1  0.11720000  0.98610000  0.52300000  1
  H  H14  1  0.13140000  0.90880000  0.27180000  1
  H  H15  1  0.16020000  0.72640000  0.21630000  1
  H  H16  1  0.16380000  0.43060000  0.29740000  1
  H  H17  1  0.19820000  0.23640000  0.19780000  1
  H  H18  1  0.20040000  0.51830000  0.19630000  1
  H  H19  1  0.23610000  0.10130000  0.19570000  1
  H  H20  1  0.33500000  0.90170000  0.27550000  1
  H  H21  1  0.37860000  0.77630000  0.21050000  1
  H  H22  1  0.38000000  0.01610000  0.98910000  1
  H  H23  1  0.38290000  0.48510000  0.30130000  1
  H  H24  1  0.41580000  0.29130000  0.20410000  1
  H  H25  1  0.42300000  0.57020000  0.20100000  1
  H  H26  1  0.42440000  0.60400000  0.00340000  1
  H  H27  1  0.43220000  0.40350000  0.90580000  1
  H  H28  1  0.43330000  0.72770000  0.96840000  1
  H  H29  1  0.43780000  0.21470000  0.92650000  1
  H  H30  1  0.44380000  0.09560000  0.20700000  1
  H  H31  1  0.47860000  0.92680000  0.90980000  1
  H  H32  1  0.52140000  0.07320000  0.09020000  1
  H  H33  1  0.55620000  0.90440000  0.79300000  1
  H  H34  1  0.56220000  0.78530000  0.07350000  1
  H  H35  1  0.56670000  0.27230000  0.03160000  1
  H  H36  1  0.56780000  0.59650000  0.09420000  1
  H  H37  1  0.57560000  0.39600000  0.99660000  1
  H  H38  1  0.57700000  0.42980000  0.79900000  1
  H  H39  1  0.58420000  0.70870000  0.79590000  1
  H  H40  1  0.61710000  0.51490000  0.69870000  1
  H  H41  1  0.62000000  0.98390000  0.01090000  1
  H  H42  1  0.62140000  0.22370000  0.78950000  1
  H  H43  1  0.66500000  0.09830000  0.72450000  1
  H  H44  1  0.76390000  0.89870000  0.80430000  1
  H  H45  1  0.79960000  0.48170000  0.80370000  1
  H  H46  1  0.80180000  0.76360000  0.80220000  1
  H  H47  1  0.83620000  0.56940000  0.70260000  1
  H  H48  1  0.83980000  0.27360000  0.78370000  1
  H  H49  1  0.86860000  0.09120000  0.72820000  1
  H  H50  1  0.88280000  0.01390000  0.47700000  1
  H  H51  1  0.90740000  0.59220000  0.47930000  1
  H  H52  1  0.94690000  0.22020000  0.42890000  1
  H  H53  1  0.95990000  0.06350000  0.58820000  1
  H  H54  1  0.97220000  0.72730000  0.45640000  1
  H  H55  1  0.99660000  0.59020000  0.59190000  1
  C  C56  1  0.00140000  0.44620000  0.44470000  1
  C  C57  1  0.00250000  0.22040000  0.52920000  1
  C  C58  1  0.01430000  0.29100000  0.24160000  1
  C  C59  1  0.01510000  0.17290000  0.57590000  1
  C  C60  1  0.01930000  0.58360000  0.21700000  1
  C  C61  1  0.02370000  0.00970000  0.22940000  1
  C  C62  1  0.03800000  0.90480000  0.44420000  1
  C  C63  1  0.04800000  0.81110000  0.53890000  1
  C  C64  1  0.05370000  0.49830000  0.56570000  1
  C  C65  1  0.05520000  0.44560000  0.51250000  1
  C  C66  1  0.08580000  0.93360000  0.50970000  1
  C  C67  1  0.08630000  0.20620000  0.64940000  1
  C  C68  1  0.09100000  0.88880000  0.55950000  1
  C  C69  1  0.11010000  0.49630000  0.63870000  1
  C  C70  1  0.13610000  0.92180000  0.63470000  1
  C  C71  1  0.15680000  0.61510000  0.20650000  1
  C  C72  1  0.15700000  0.32770000  0.24700000  1
  C  C73  1  0.15920000  0.00510000  0.23320000  1
  C  C74  1  0.19380000  0.94650000  0.25760000  1
  C  C75  1  0.21230000  0.69460000  0.21200000  1
  C  C76  1  0.21350000  0.40240000  0.27800000  1
  C  C77  1  0.23550000  0.28690000  0.21890000  1
  C  C78  1  0.23580000  0.57060000  0.20150000  1
  C  C79  1  0.25630000  0.06150000  0.21320000  1
  C  C80  1  0.31060000  0.07040000  0.88380000  1
  C  C81  1  0.31510000  0.94300000  0.26110000  1
  C  C82  1  0.31560000  0.50900000  0.88550000  1
  C  C83  1  0.33820000  0.78400000  0.86540000  1
  C  C84  1  0.34400000  0.72490000  0.21110000  1
  C  C85  1  0.34440000  0.43480000  0.28000000  1
  C  C86  1  0.36490000  0.31960000  0.22180000  1
  C  C87  1  0.37010000  0.60170000  0.20400000  1
  C  C88  1  0.37960000  0.05760000  0.21960000  1
  C  C89  1  0.39100000  0.11070000  0.94880000  1
  C  C90  1  0.41010000  0.50480000  0.94560000  1
  C  C91  1  0.41220000  0.99990000  0.24380000  1
  C  C92  1  0.41920000  0.06830000  0.99750000  1
  C  C93  1  0.42020000  0.39440000  0.25090000  1
  C  C94  1  0.42310000  0.67920000  0.21100000  1
  C  C95  1  0.43190000  0.28740000  0.77780000  1
  C  C96  1  0.43390000  0.56290000  0.74400000  1
  C  C97  1  0.43580000  0.82100000  0.92900000  1
  C  C98  1  0.44850000  0.00340000  0.75090000  1
  C  C99  1  0.45080000  0.18600000  0.95980000  1
  C  C100  1  0.45400000  0.56170000  0.00180000  1
  C  C101  1  0.45910000  0.44240000  0.94400000  1
  C  C102  1  0.46790000  0.78030000  0.97780000  1
  C  C103  1  0.49550000  0.89750000  0.94200000  1
  C  C104  1  0.50450000  0.10250000  0.05800000  1
  C  C105  1  0.53210000  0.21970000  0.02220000  1
  C  C106  1  0.54090000  0.55760000  0.05600000  1
  C  C107  1  0.54600000  0.43830000  0.99820000  1
  C  C108  1  0.54920000  0.81400000  0.04020000  1
  C  C109  1  0.55150000  0.99660000  0.24910000  1
  C  C110  1  0.56420000  0.17900000  0.07100000  1
  C  C111  1  0.56610000  0.43710000  0.25600000  1
  C  C112  1  0.56810000  0.71260000  0.22220000  1
  C  C113  1  0.57690000  0.32080000  0.78900000  1
  C  C114  1  0.57980000  0.60560000  0.74910000  1
  C  C115  1  0.58080000  0.93170000  0.00250000  1
  C  C116  1  0.58780000  0.00010000  0.75620000  1
  C  C117  1  0.58990000  0.49520000  0.05440000  1
  C  C118  1  0.60900000  0.88930000  0.05120000  1
  C  C119  1  0.62040000  0.94240000  0.78040000  1
  C  C120  1  0.62990000  0.39830000  0.79600000  1
  C  C121  1  0.63510000  0.68040000  0.77820000  1
  C  C122  1  0.65560000  0.56520000  0.72000000  1
  C  C123  1  0.65600000  0.27510000  0.78890000  1
  C  C124  1  0.66180000  0.21600000  0.13460000  1
  C  C125  1  0.68440000  0.49100000  0.11450000  1
  C  C126  1  0.68490000  0.05700000  0.73890000  1
  C  C127  1  0.68940000  0.92960000  0.11620000  1
  C  C128  1  0.74370000  0.93850000  0.78680000  1
  C  C129  1  0.76420000  0.42940000  0.79850000  1
  C  C130  1  0.76450000  0.71310000  0.78110000  1
  C  C131  1  0.78650000  0.59760000  0.72200000  1
  C  C132  1  0.78770000  0.30540000  0.78800000  1
  C  C133  1  0.80620000  0.05350000  0.74240000  1
  C  C134  1  0.84080000  0.99490000  0.76680000  1
  C  C135  1  0.84300000  0.67230000  0.75300000  1
  C  C136  1  0.84320000  0.38490000  0.79350000  1
  C  C137  1  0.86390000  0.07820000  0.36530000  1
  C  C138  1  0.88990000  0.50370000  0.36130000  1
  C  C139  1  0.90900000  0.11120000  0.44050000  1
  C  C140  1  0.91370000  0.79380000  0.35060000  1
  C  C141  1  0.91420000  0.06640000  0.49030000  1
  C  C142  1  0.94480000  0.55440000  0.48750000  1
  C  C143  1  0.94630000  0.50170000  0.43430000  1
  C  C144  1  0.95200000  0.18890000  0.46110000  1
  C  C145  1  0.96200000  0.09520000  0.55580000  1
  C  C146  1  0.97630000  0.99030000  0.77060000  1
  C  C147  1  0.98070000  0.41640000  0.78300000  1
  C  C148  1  0.98490000  0.82710000  0.42410000  1
  C  C149  1  0.98570000  0.70900000  0.75840000  1
  C  C150  1  0.99750000  0.77960000  0.47080000  1
  C  C151  1  0.99860000  0.55380000  0.55530000  1
  O  O152  1  0.00080000  0.93460000  0.79110000  1
  O  O153  1  0.02280000  0.77890000  0.76490000  1
  O  O154  1  0.02620000  0.48480000  0.79100000  1
  O  O155  1  0.04170000  0.37010000  0.76850000  1
  O  O156  1  0.05720000  0.66710000  0.75270000  1
  O  O157  1  0.05840000  0.04300000  0.75380000  1
  O  O158  1  0.10870000  0.27560000  0.66700000  1
  O  O159  1  0.11650000  0.16190000  0.68530000  1
  O  O160  1  0.12740000  0.55460000  0.68310000  1
  O  O161  1  0.12850000  0.87870000  0.67840000  1
  O  O162  1  0.13090000  0.43550000  0.64810000  1
  O  O163  1  0.18320000  0.99280000  0.65090000  1
  O  O164  1  0.26600000  0.00050000  0.87250000  1
  O  O165  1  0.27080000  0.56370000  0.89100000  1
  O  O166  1  0.28580000  0.45690000  0.83670000  1
  O  O167  1  0.28610000  0.11030000  0.84100000  1
  O  O168  1  0.29690000  0.71300000  0.85340000  1
  O  O169  1  0.30640000  0.82490000  0.82830000  1
  O  O170  1  0.36370000  0.33080000  0.77960000  1
  O  O171  1  0.36810000  0.94750000  0.76060000  1
  O  O172  1  0.37030000  0.60390000  0.76860000  1
  O  O173  1  0.38880000  0.21950000  0.76860000  1
  O  O174  1  0.39830000  0.49460000  0.72410000  1
  O  O175  1  0.43000000  0.06250000  0.73780000  1
  O  O176  1  0.57000000  0.93750000  0.26220000  1
  O  O177  1  0.60170000  0.50540000  0.27590000  1
  O  O178  1  0.61120000  0.78050000  0.23140000  1
  O  O179  1  0.62970000  0.39610000  0.23140000  1
  O  O180  1  0.63190000  0.05250000  0.23940000  1
  O  O181  1  0.63630000  0.66920000  0.22040000  1
  O  O182  1  0.69360000  0.17510000  0.17170000  1
  O  O183  1  0.70310000  0.28700000  0.14660000  1
  O  O184  1  0.71390000  0.88970000  0.15900000  1
  O  O185  1  0.71420000  0.54310000  0.16330000  1
  O  O186  1  0.72920000  0.43630000  0.10900000  1
  O  O187  1  0.73400000  0.99950000  0.12750000  1
  O  O188  1  0.81680000  0.00720000  0.34910000  1
  O  O189  1  0.86910000  0.56450000  0.35190000  1
  O  O190  1  0.87150000  0.12130000  0.32160000  1
  O  O191  1  0.87260000  0.44540000  0.31690000  1
  O  O192  1  0.88350000  0.83810000  0.31470000  1
  O  O193  1  0.89130000  0.72440000  0.33300000  1
  O  O194  1  0.94160000  0.95700000  0.24620000  1
  O  O195  1  0.94280000  0.33290000  0.24730000  1
  O  O196  1  0.95830000  0.62990000  0.23150000  1
  O  O197  1  0.97380000  0.51520000  0.20900000  1
  O  O198  1  0.97720000  0.22110000  0.23510000  1
  O  O199  1  0.99920000  0.06540000  0.20890000  1
