# generated using pymatgen
data_ZnH15C11Br(NO)2
_symmetry_space_group_name_H-M   'P 1'
_cell_length_a   10.47960000
_cell_length_b   17.76800000
_cell_length_c   17.76800000
_cell_angle_alpha   120.00000000
_cell_angle_beta   90.00000000
_cell_angle_gamma   90.00000000
_symmetry_Int_Tables_number   1
_chemical_formula_structural   ZnH15C11Br(NO)2
_chemical_formula_sum   'Zn6 H90 C66 Br6 N12 O12'
_cell_volume   2865.18341754
_cell_formula_units_Z   6
loop_
 _symmetry_equiv_pos_site_id
 _symmetry_equiv_pos_as_xyz
  1  'x, y, z'
loop_
 _atom_site_type_symbol
 _atom_site_label
 _atom_site_symmetry_multiplicity
 _atom_site_fract_x
 _atom_site_fract_y
 _atom_site_fract_z
 _atom_site_occupancy
  Zn  Zn0  1  0.07048000  0.92928000  0.47221000  1
  Zn  Zn1  1  0.23715000  0.45707000  0.92928000  1
  Zn  Zn2  1  0.40382000  0.52779000  0.45707000  1
  Zn  Zn3  1  0.57048000  0.07072000  0.52779000  1
  Zn  Zn4  1  0.73715000  0.54293000  0.07072000  1
  Zn  Zn5  1  0.90382000  0.47221000  0.54293000  1
  H  H6  1  0.00677000  0.64970000  0.62240000  1
  H  H7  1  0.02170000  0.47240000  0.69560000  1
  H  H8  1  0.02457000  0.56820000  0.35150000  1
  H  H9  1  0.02823000  0.04920000  0.66940000  1
  H  H10  1  0.03513000  0.32410000  0.89730000  1
  H  H11  1  0.08383000  0.26930000  0.63570000  1
  H  H12  1  0.09053000  0.14800000  0.40850000  1
  H  H13  1  0.09820000  0.67500000  0.19580000  1
  H  H14  1  0.10633000  0.28220000  0.55560000  1
  H  H15  1  0.11543000  0.07040000  0.42500000  1
  H  H16  1  0.12330000  0.52910000  0.15390000  1
  H  H17  1  0.14580000  0.38790000  0.18170000  1
  H  H18  1  0.14760000  0.68840000  0.08170000  1
  H  H19  1  0.14777000  0.67780000  0.51630000  1
  H  H20  1  0.16253000  0.07960000  0.55490000  1
  H  H21  1  0.17343000  0.02730000  0.64970000  1
  H  H22  1  0.18837000  0.77680000  0.47240000  1
  H  H23  1  0.19123000  0.21670000  0.56820000  1
  H  H24  1  0.19490000  0.37980000  0.04920000  1
  H  H25  1  0.20180000  0.42680000  0.32410000  1
  H  H26  1  0.25050000  0.63360000  0.26930000  1
  H  H27  1  0.25720000  0.73950000  0.14800000  1
  H  H28  1  0.26487000  0.47920000  0.67500000  1
  H  H29  1  0.27300000  0.72660000  0.28220000  1
  H  H30  1  0.28210000  0.64540000  0.07040000  1
  H  H31  1  0.28997000  0.37520000  0.52910000  1
  H  H32  1  0.31247000  0.20620000  0.38790000  1
  H  H33  1  0.31427000  0.60670000  0.68840000  1
  H  H34  1  0.31443000  0.16150000  0.67780000  1
  H  H35  1  0.32920000  0.52470000  0.07960000  1
  H  H36  1  0.34010000  0.37760000  0.02730000  1
  H  H37  1  0.35503000  0.30440000  0.77680000  1
  H  H38  1  0.35790000  0.64850000  0.21670000  1
  H  H39  1  0.36157000  0.33060000  0.37980000  1
  H  H40  1  0.36847000  0.10270000  0.42680000  1
  H  H41  1  0.41717000  0.36430000  0.63360000  1
  H  H42  1  0.42387000  0.59150000  0.73950000  1
  H  H43  1  0.43153000  0.80420000  0.47920000  1
  H  H44  1  0.43967000  0.44440000  0.72660000  1
  H  H45  1  0.44877000  0.57500000  0.64540000  1
  H  H46  1  0.45663000  0.84610000  0.37520000  1
  H  H47  1  0.47913000  0.81830000  0.20620000  1
  H  H48  1  0.48093000  0.91830000  0.60670000  1
  H  H49  1  0.48110000  0.48370000  0.16150000  1
  H  H50  1  0.49587000  0.44510000  0.52470000  1
  H  H51  1  0.50677000  0.35030000  0.37760000  1
  H  H52  1  0.52170000  0.52760000  0.30440000  1
  H  H53  1  0.52457000  0.43180000  0.64850000  1
  H  H54  1  0.52823000  0.95080000  0.33060000  1
  H  H55  1  0.53513000  0.67590000  0.10270000  1
  H  H56  1  0.58383000  0.73070000  0.36430000  1
  H  H57  1  0.59053000  0.85200000  0.59150000  1
  H  H58  1  0.59820000  0.32500000  0.80420000  1
  H  H59  1  0.60633000  0.71780000  0.44440000  1
  H  H60  1  0.61543000  0.92960000  0.57500000  1
  H  H61  1  0.62330000  0.47090000  0.84610000  1
  H  H62  1  0.64580000  0.61210000  0.81830000  1
  H  H63  1  0.64760000  0.31160000  0.91830000  1
  H  H64  1  0.64777000  0.32220000  0.48370000  1
  H  H65  1  0.66253000  0.92040000  0.44510000  1
  H  H66  1  0.67343000  0.97270000  0.35030000  1
  H  H67  1  0.68837000  0.22320000  0.52760000  1
  H  H68  1  0.69123000  0.78330000  0.43180000  1
  H  H69  1  0.69490000  0.62020000  0.95080000  1
  H  H70  1  0.70180000  0.57320000  0.67590000  1
  H  H71  1  0.75050000  0.36640000  0.73070000  1
  H  H72  1  0.75720000  0.26050000  0.85200000  1
  H  H73  1  0.76487000  0.52080000  0.32500000  1
  H  H74  1  0.77300000  0.27340000  0.71780000  1
  H  H75  1  0.78210000  0.35460000  0.92960000  1
  H  H76  1  0.78997000  0.62480000  0.47090000  1
  H  H77  1  0.81247000  0.79380000  0.61210000  1
  H  H78  1  0.81427000  0.39330000  0.31160000  1
  H  H79  1  0.81443000  0.83850000  0.32220000  1
  H  H80  1  0.82920000  0.47530000  0.92040000  1
  H  H81  1  0.84010000  0.62240000  0.97270000  1
  H  H82  1  0.85503000  0.69560000  0.22320000  1
  H  H83  1  0.85790000  0.35150000  0.78330000  1
  H  H84  1  0.86157000  0.66940000  0.62020000  1
  H  H85  1  0.86847000  0.89730000  0.57320000  1
  H  H86  1  0.91717000  0.63570000  0.36640000  1
  H  H87  1  0.92387000  0.40850000  0.26050000  1
  H  H88  1  0.93153000  0.19580000  0.52080000  1
  H  H89  1  0.93967000  0.55560000  0.27340000  1
  H  H90  1  0.94877000  0.42500000  0.35460000  1
  H  H91  1  0.95663000  0.15390000  0.62480000  1
  H  H92  1  0.97913000  0.18170000  0.79380000  1
  H  H93  1  0.98093000  0.08170000  0.39330000  1
  H  H94  1  0.98110000  0.51630000  0.83850000  1
  H  H95  1  0.99587000  0.55490000  0.47530000  1
  C  C96  1  0.01133000  0.16760000  0.52200000  1
  C  C97  1  0.03100000  0.53220000  0.05320000  1
  C  C98  1  0.05333000  0.11190000  0.42870000  1
  C  C99  1  0.05663000  0.20500000  0.78970000  1
  C  C100  1  0.08807000  0.72070000  0.52670000  1
  C  C101  1  0.09013000  0.29130000  0.85120000  1
  C  C102  1  0.10673000  0.06700000  0.65380000  1
  C  C103  1  0.10723000  0.24080000  0.57540000  1
  C  C104  1  0.11287000  0.78080000  0.50170000  1
  C  C105  1  0.14013000  0.15610000  0.72380000  1
  C  C106  1  0.14710000  0.54890000  0.11330000  1
  C  C107  1  0.17800000  0.64560000  0.16760000  1
  C  C108  1  0.19767000  0.47900000  0.53220000  1
  C  C109  1  0.22000000  0.68320000  0.11190000  1
  C  C110  1  0.22330000  0.41530000  0.20500000  1
  C  C111  1  0.25473000  0.19400000  0.72070000  1
  C  C112  1  0.25680000  0.44010000  0.29130000  1
  C  C113  1  0.27340000  0.41320000  0.06700000  1
  C  C114  1  0.27390000  0.66540000  0.24080000  1
  C  C115  1  0.27953000  0.27910000  0.78080000  1
  C  C116  1  0.30680000  0.43230000  0.15610000  1
  C  C117  1  0.31377000  0.43560000  0.54890000  1
  C  C118  1  0.34467000  0.47800000  0.64560000  1
  C  C119  1  0.36433000  0.94680000  0.47900000  1
  C  C120  1  0.38667000  0.57130000  0.68320000  1
  C  C121  1  0.38997000  0.21030000  0.41530000  1
  C  C122  1  0.42140000  0.47330000  0.19400000  1
  C  C123  1  0.42347000  0.14880000  0.44010000  1
  C  C124  1  0.44007000  0.34620000  0.41320000  1
  C  C125  1  0.44057000  0.42460000  0.66540000  1
  C  C126  1  0.44620000  0.49830000  0.27910000  1
  C  C127  1  0.47347000  0.27620000  0.43230000  1
  C  C128  1  0.48043000  0.88670000  0.43560000  1
  C  C129  1  0.51133000  0.83240000  0.47800000  1
  C  C130  1  0.53100000  0.46780000  0.94680000  1
  C  C131  1  0.55333000  0.88810000  0.57130000  1
  C  C132  1  0.55663000  0.79500000  0.21030000  1
  C  C133  1  0.58807000  0.27930000  0.47330000  1
  C  C134  1  0.59013000  0.70870000  0.14880000  1
  C  C135  1  0.60673000  0.93300000  0.34620000  1
  C  C136  1  0.60723000  0.75920000  0.42460000  1
  C  C137  1  0.61287000  0.21920000  0.49830000  1
  C  C138  1  0.64013000  0.84390000  0.27620000  1
  C  C139  1  0.64710000  0.45110000  0.88670000  1
  C  C140  1  0.67800000  0.35440000  0.83240000  1
  C  C141  1  0.69767000  0.52100000  0.46780000  1
  C  C142  1  0.72000000  0.31680000  0.88810000  1
  C  C143  1  0.72330000  0.58470000  0.79500000  1
  C  C144  1  0.75473000  0.80600000  0.27930000  1
  C  C145  1  0.75680000  0.55990000  0.70870000  1
  C  C146  1  0.77340000  0.58680000  0.93300000  1
  C  C147  1  0.77390000  0.33460000  0.75920000  1
  C  C148  1  0.77953000  0.72090000  0.21920000  1
  C  C149  1  0.80680000  0.56770000  0.84390000  1
  C  C150  1  0.81377000  0.56440000  0.45110000  1
  C  C151  1  0.84467000  0.52200000  0.35440000  1
  C  C152  1  0.86433000  0.05320000  0.52100000  1
  C  C153  1  0.88667000  0.42870000  0.31680000  1
  C  C154  1  0.88997000  0.78970000  0.58470000  1
  C  C155  1  0.92140000  0.52670000  0.80600000  1
  C  C156  1  0.92347000  0.85120000  0.55990000  1
  C  C157  1  0.94007000  0.65380000  0.58680000  1
  C  C158  1  0.94057000  0.57540000  0.33460000  1
  C  C159  1  0.94620000  0.50170000  0.72090000  1
  C  C160  1  0.97347000  0.72380000  0.56770000  1
  C  C161  1  0.98043000  0.11330000  0.56440000  1
  Br  Br162  1  0.08172000  0.86849000  0.32032000  1
  Br  Br163  1  0.24839000  0.54817000  0.86849000  1
  Br  Br164  1  0.41506000  0.67968000  0.54817000  1
  Br  Br165  1  0.58172000  0.13151000  0.67968000  1
  Br  Br166  1  0.74839000  0.45183000  0.13151000  1
  Br  Br167  1  0.91506000  0.32032000  0.45183000  1
  N  N168  1  0.03057000  0.84520000  0.51850000  1
  N  N169  1  0.08983000  0.05950000  0.56690000  1
  N  N170  1  0.19723000  0.32670000  0.84520000  1
  N  N171  1  0.25650000  0.49260000  0.05950000  1
  N  N172  1  0.36390000  0.48150000  0.32670000  1
  N  N173  1  0.42317000  0.43310000  0.49260000  1
  N  N174  1  0.53057000  0.15480000  0.48150000  1
  N  N175  1  0.58983000  0.94050000  0.43310000  1
  N  N176  1  0.69723000  0.67330000  0.15480000  1
  N  N177  1  0.75650000  0.50740000  0.94050000  1
  N  N178  1  0.86390000  0.51850000  0.67330000  1
  N  N179  1  0.92317000  0.56690000  0.50740000  1
  O  O180  1  0.04110000  0.48440000  0.97270000  1
  O  O181  1  0.09897000  0.47930000  0.57200000  1
  O  O182  1  0.20777000  0.51170000  0.48440000  1
  O  O183  1  0.26563000  0.90730000  0.47930000  1
  O  O184  1  0.37443000  0.02730000  0.51170000  1
  O  O185  1  0.43230000  0.42800000  0.90730000  1
  O  O186  1  0.54110000  0.51560000  0.02730000  1
  O  O187  1  0.59897000  0.52070000  0.42800000  1
  O  O188  1  0.70777000  0.48830000  0.51560000  1
  O  O189  1  0.76563000  0.09270000  0.52070000  1
  O  O190  1  0.87443000  0.97270000  0.48830000  1
  O  O191  1  0.93230000  0.57200000  0.09270000  1
