# generated using pymatgen
data_Co2H37C51(NO2)6
_symmetry_space_group_name_H-M   'P 1'
_cell_length_a   9.03840000
_cell_length_b   16.34070000
_cell_length_c   18.50500000
_cell_angle_alpha   73.39400000
_cell_angle_beta   76.39400000
_cell_angle_gamma   86.29800000
_symmetry_Int_Tables_number   1
_chemical_formula_structural   Co2H37C51(NO2)6
_chemical_formula_sum   'Co4 H74 C102 N12 O24'
_cell_volume   2545.57279572
_cell_formula_units_Z   2
loop_
 _symmetry_equiv_pos_site_id
 _symmetry_equiv_pos_as_xyz
  1  'x, y, z'
loop_
 _atom_site_type_symbol
 _atom_site_label
 _atom_site_symmetry_multiplicity
 _atom_site_fract_x
 _atom_site_fract_y
 _atom_site_fract_z
 _atom_site_occupancy
  Co  Co0  1  0.15212000  0.72061000  0.39124000  1
  Co  Co1  1  0.25467000  0.96734000  0.82288000  1
  Co  Co2  1  0.74533000  0.03266000  0.17712000  1
  Co  Co3  1  0.84788000  0.27939000  0.60876000  1
  H  H4  1  0.01790000  0.21310000  0.22510000  1
  H  H5  1  0.06290000  0.81360000  0.95250000  1
  H  H6  1  0.08090000  0.39900000  0.79800000  1
  H  H7  1  0.08110000  0.49620000  0.86940000  1
  H  H8  1  0.08360000  0.27110000  0.76620000  1
  H  H9  1  0.08790000  0.03120000  0.68300000  1
  H  H10  1  0.08810000  0.95390000  0.12000000  1
  H  H11  1  0.12200000  0.67920000  0.78390000  1
  H  H12  1  0.12570000  0.29340000  0.35910000  1
  H  H13  1  0.13040000  0.53900000  0.97450000  1
  H  H14  1  0.15700000  0.71750000  0.84710000  1
  H  H15  1  0.18010000  0.53080000  0.78470000  1
  H  H16  1  0.20580000  0.18560000  0.98380000  1
  H  H17  1  0.21730000  0.11870000  0.24590000  1
  H  H18  1  0.22890000  0.49860000  0.21170000  1
  H  H19  1  0.22910000  0.82410000  0.61810000  1
  H  H20  1  0.23950000  0.75440000  0.15170000  1
  H  H21  1  0.24090000  0.50060000  0.08760000  1
  H  H22  1  0.24360000  0.87330000  0.43850000  1
  H  H23  1  0.25230000  0.75760000  0.02720000  1
  H  H24  1  0.29590000  0.90980000  0.02570000  1
  H  H25  1  0.29820000  0.36370000  0.04210000  1
  H  H26  1  0.30740000  0.52420000  0.95580000  1
  H  H27  1  0.32280000  0.17270000  0.61330000  1
  H  H28  1  0.33560000  0.82490000  0.72590000  1
  H  H29  1  0.34150000  0.31850000  0.25350000  1
  H  H30  1  0.36410000  0.34870000  0.49860000  1
  H  H31  1  0.37990000  0.03410000  0.39740000  1
  H  H32  1  0.40430000  0.13710000  0.46060000  1
  H  H33  1  0.41680000  0.67290000  0.82570000  1
  H  H34  1  0.41950000  0.63420000  0.60250000  1
  H  H35  1  0.45130000  0.19780000  0.85100000  1
  H  H36  1  0.45840000  0.13690000  0.01180000  1
  H  H37  1  0.46020000  0.32760000  0.87450000  1
  H  H38  1  0.46340000  0.57850000  0.82540000  1
  H  H39  1  0.46720000  0.27170000  0.64740000  1
  H  H40  1  0.49760000  0.27170000  0.06450000  1
  H  H41  1  0.50240000  0.72830000  0.93550000  1
  H  H42  1  0.53280000  0.72830000  0.35260000  1
  H  H43  1  0.53660000  0.42150000  0.17460000  1
  H  H44  1  0.53980000  0.67240000  0.12550000  1
  H  H45  1  0.54160000  0.86310000  0.98820000  1
  H  H46  1  0.54870000  0.80220000  0.14900000  1
  H  H47  1  0.58050000  0.36580000  0.39750000  1
  H  H48  1  0.58320000  0.32710000  0.17430000  1
  H  H49  1  0.59570000  0.86290000  0.53940000  1
  H  H50  1  0.62010000  0.96590000  0.60260000  1
  H  H51  1  0.63590000  0.65130000  0.50140000  1
  H  H52  1  0.65850000  0.68150000  0.74650000  1
  H  H53  1  0.66440000  0.17510000  0.27410000  1
  H  H54  1  0.67720000  0.82730000  0.38670000  1
  H  H55  1  0.69260000  0.47580000  0.04420000  1
  H  H56  1  0.70180000  0.63630000  0.95790000  1
  H  H57  1  0.70410000  0.09020000  0.97430000  1
  H  H58  1  0.74770000  0.24240000  0.97280000  1
  H  H59  1  0.75640000  0.12670000  0.56150000  1
  H  H60  1  0.75910000  0.49940000  0.91240000  1
  H  H61  1  0.76050000  0.24560000  0.84830000  1
  H  H62  1  0.77090000  0.17590000  0.38190000  1
  H  H63  1  0.77110000  0.50140000  0.78830000  1
  H  H64  1  0.78270000  0.88130000  0.75410000  1
  H  H65  1  0.79420000  0.81440000  0.01620000  1
  H  H66  1  0.81990000  0.46920000  0.21530000  1
  H  H67  1  0.84300000  0.28250000  0.15290000  1
  H  H68  1  0.86960000  0.46100000  0.02550000  1
  H  H69  1  0.87430000  0.70660000  0.64090000  1
  H  H70  1  0.87800000  0.32080000  0.21610000  1
  H  H71  1  0.91190000  0.04610000  0.88000000  1
  H  H72  1  0.91210000  0.96880000  0.31700000  1
  H  H73  1  0.91640000  0.72890000  0.23380000  1
  H  H74  1  0.91890000  0.50380000  0.13060000  1
  H  H75  1  0.91910000  0.60100000  0.20200000  1
  H  H76  1  0.93710000  0.18640000  0.04750000  1
  H  H77  1  0.98210000  0.78690000  0.77490000  1
  C  C78  1  0.00060000  0.13910000  0.05410000  1
  C  C79  1  0.00780000  0.91230000  0.53390000  1
  C  C80  1  0.05290000  0.05760000  0.53040000  1
  C  C81  1  0.06190000  0.97100000  0.56290000  1
  C  C82  1  0.08230000  0.01140000  0.09410000  1
  C  C83  1  0.08950000  0.29880000  0.50620000  1
  C  C84  1  0.11390000  0.22490000  0.19230000  1
  C  C85  1  0.12270000  0.66680000  0.83840000  1
  C  C86  1  0.13670000  0.97980000  0.68080000  1
  C  C87  1  0.13770000  0.29790000  0.13170000  1
  C  C88  1  0.14940000  0.13930000  0.01860000  1
  C  C89  1  0.15670000  0.28120000  0.79060000  1
  C  C90  1  0.15780000  0.35930000  0.80680000  1
  C  C91  1  0.18200000  0.51530000  0.83910000  1
  C  C92  1  0.21480000  0.86590000  0.64420000  1
  C  C93  1  0.21650000  0.62320000  0.27800000  1
  C  C94  1  0.21870000  0.30870000  0.36490000  1
  C  C95  1  0.22750000  0.56550000  0.94540000  1
  C  C96  1  0.22990000  0.62630000  0.19570000  1
  C  C97  1  0.23070000  0.59230000  0.86030000  1
  C  C98  1  0.23230000  0.55070000  0.17410000  1
  C  C99  1  0.23240000  0.31780000  0.43960000  1
  C  C100  1  0.23410000  0.16810000  0.20470000  1
  C  C101  1  0.23870000  0.70360000  0.13870000  1
  C  C102  1  0.23950000  0.55130000  0.10100000  1
  C  C103  1  0.24310000  0.13150000  0.80250000  1
  C  C104  1  0.24480000  0.63130000  0.04460000  1
  C  C105  1  0.24610000  0.70540000  0.06490000  1
  C  C106  1  0.25980000  0.21980000  0.80960000  1
  C  C107  1  0.27120000  0.86630000  0.70390000  1
  C  C108  1  0.27620000  0.37650000  0.83630000  1
  C  C109  1  0.28160000  0.31460000  0.08350000  1
  C  C110  1  0.33650000  0.84860000  0.42230000  1
  C  C111  1  0.34610000  0.32300000  0.30190000  1
  C  C112  1  0.35380000  0.02900000  0.02060000  1
  C  C113  1  0.35960000  0.34060000  0.45140000  1
  C  C114  1  0.37680000  0.23840000  0.83990000  1
  C  C115  1  0.37800000  0.18470000  0.15630000  1
  C  C116  1  0.37800000  0.94620000  0.01500000  1
  C  C117  1  0.38270000  0.31610000  0.85340000  1
  C  C118  1  0.38940000  0.62300000  0.81310000  1
  C  C119  1  0.40110000  0.25880000  0.09650000  1
  C  C120  1  0.42800000  0.02030000  0.43850000  1
  C  C121  1  0.42800000  0.17490000  0.60610000  1
  C  C122  1  0.44270000  0.08230000  0.47640000  1
  C  C123  1  0.47500000  0.08180000  0.00670000  1
  C  C124  1  0.48120000  0.34460000  0.31810000  1
  C  C125  1  0.48490000  0.93980000  0.46280000  1
  C  C126  1  0.48790000  0.35240000  0.38990000  1
  C  C127  1  0.48990000  0.77030000  0.37600000  1
  C  C128  1  0.49570000  0.87620000  0.82660000  1
  C  C129  1  0.50430000  0.12380000  0.17340000  1
  C  C130  1  0.51010000  0.22970000  0.62400000  1
  C  C131  1  0.51210000  0.64760000  0.61010000  1
  C  C132  1  0.51510000  0.06020000  0.53720000  1
  C  C133  1  0.51880000  0.65540000  0.68190000  1
  C  C134  1  0.52500000  0.91820000  0.99330000  1
  C  C135  1  0.55730000  0.91770000  0.52360000  1
  C  C136  1  0.57200000  0.82510000  0.39390000  1
  C  C137  1  0.57200000  0.97970000  0.56150000  1
  C  C138  1  0.59890000  0.74120000  0.90350000  1
  C  C139  1  0.61060000  0.37700000  0.18690000  1
  C  C140  1  0.61730000  0.68390000  0.14660000  1
  C  C141  1  0.62200000  0.05380000  0.98500000  1
  C  C142  1  0.62200000  0.81530000  0.84370000  1
  C  C143  1  0.62320000  0.76160000  0.16010000  1
  C  C144  1  0.64040000  0.65940000  0.54860000  1
  C  C145  1  0.64620000  0.97100000  0.97940000  1
  C  C146  1  0.65390000  0.67700000  0.69810000  1
  C  C147  1  0.66350000  0.15140000  0.57770000  1
  C  C148  1  0.71840000  0.68540000  0.91650000  1
  C  C149  1  0.72380000  0.62350000  0.16370000  1
  C  C150  1  0.72880000  0.13370000  0.29610000  1
  C  C151  1  0.74020000  0.78020000  0.19040000  1
  C  C152  1  0.75390000  0.29460000  0.93510000  1
  C  C153  1  0.75520000  0.36870000  0.95540000  1
  C  C154  1  0.75690000  0.86850000  0.19750000  1
  C  C155  1  0.76050000  0.44870000  0.89900000  1
  C  C156  1  0.76130000  0.29640000  0.86130000  1
  C  C157  1  0.76590000  0.83190000  0.79530000  1
  C  C158  1  0.76760000  0.68220000  0.56040000  1
  C  C159  1  0.76770000  0.44930000  0.82590000  1
  C  C160  1  0.76930000  0.40770000  0.13970000  1
  C  C161  1  0.77010000  0.37370000  0.80430000  1
  C  C162  1  0.77250000  0.43450000  0.05460000  1
  C  C163  1  0.78130000  0.69130000  0.63510000  1
  C  C164  1  0.78350000  0.37680000  0.72200000  1
  C  C165  1  0.78520000  0.13410000  0.35580000  1
  C  C166  1  0.81800000  0.48470000  0.16090000  1
  C  C167  1  0.84220000  0.64070000  0.19320000  1
  C  C168  1  0.84330000  0.71880000  0.20940000  1
  C  C169  1  0.85060000  0.86070000  0.98140000  1
  C  C170  1  0.86230000  0.70210000  0.86830000  1
  C  C171  1  0.86330000  0.02020000  0.31920000  1
  C  C172  1  0.87730000  0.33320000  0.16160000  1
  C  C173  1  0.88610000  0.77510000  0.80770000  1
  C  C174  1  0.91050000  0.70120000  0.49380000  1
  C  C175  1  0.91770000  0.98860000  0.90590000  1
  C  C176  1  0.93810000  0.02900000  0.43710000  1
  C  C177  1  0.94710000  0.94240000  0.46960000  1
  C  C178  1  0.99220000  0.08770000  0.46610000  1
  C  C179  1  0.99940000  0.86090000  0.94590000  1
  N  N180  1  0.04400000  0.94150000  0.89830000  1
  N  N181  1  0.13210000  0.93820000  0.62860000  1
  N  N182  1  0.20030000  0.05830000  0.04370000  1
  N  N183  1  0.22050000  0.93720000  0.72860000  1
  N  N184  1  0.34230000  0.78330000  0.39530000  1
  N  N185  1  0.46080000  0.87850000  0.42650000  1
  N  N186  1  0.53920000  0.12150000  0.57350000  1
  N  N187  1  0.65770000  0.21670000  0.60470000  1
  N  N188  1  0.77950000  0.06280000  0.27140000  1
  N  N189  1  0.79970000  0.94170000  0.95630000  1
  N  N190  1  0.86790000  0.06180000  0.37140000  1
  N  N191  1  0.95600000  0.05850000  0.10170000  1
  O  O192  1  0.02750000  0.73060000  0.50280000  1
  O  O193  1  0.02800000  0.35590000  0.11510000  1
  O  O194  1  0.08590000  0.31890000  0.56420000  1
  O  O195  1  0.14470000  0.11550000  0.77150000  1
  O  O196  1  0.20330000  0.55180000  0.32690000  1
  O  O197  1  0.21560000  0.69440000  0.29250000  1
  O  O198  1  0.24990000  0.63920000  0.96840000  1
  O  O199  1  0.28960000  0.45010000  0.85540000  1
  O  O200  1  0.33120000  0.07410000  0.83240000  1
  O  O201  1  0.36290000  0.85910000  0.87270000  1
  O  O202  1  0.38980000  0.64340000  0.73470000  1
  O  O203  1  0.48020000  0.05800000  0.22810000  1
  O  O204  1  0.51980000  0.94200000  0.77190000  1
  O  O205  1  0.61020000  0.35660000  0.26530000  1
  O  O206  1  0.63710000  0.14090000  0.12730000  1
  O  O207  1  0.66880000  0.92590000  0.16760000  1
  O  O208  1  0.71040000  0.54990000  0.14460000  1
  O  O209  1  0.75010000  0.36080000  0.03160000  1
  O  O210  1  0.78440000  0.30560000  0.70750000  1
  O  O211  1  0.79670000  0.44820000  0.67310000  1
  O  O212  1  0.85530000  0.88450000  0.22850000  1
  O  O213  1  0.91410000  0.68110000  0.43580000  1
  O  O214  1  0.97200000  0.64410000  0.88490000  1
  O  O215  1  0.97250000  0.26940000  0.49720000  1
