# generated using pymatgen
data_LaH9(C2O)6
_symmetry_space_group_name_H-M   'P 1'
_cell_length_a   8.61800000
_cell_length_b   11.02800000
_cell_length_c   11.12600000
_cell_angle_alpha   64.06000000
_cell_angle_beta   80.57000000
_cell_angle_gamma   73.21000000
_symmetry_Int_Tables_number   1
_chemical_formula_structural   LaH9(C2O)6
_chemical_formula_sum   'La2 H18 C24 O12'
_cell_volume   909.47705493
_cell_formula_units_Z   2
loop_
 _symmetry_equiv_pos_site_id
 _symmetry_equiv_pos_as_xyz
  1  'x, y, z'
loop_
 _atom_site_type_symbol
 _atom_site_label
 _atom_site_symmetry_multiplicity
 _atom_site_fract_x
 _atom_site_fract_y
 _atom_site_fract_z
 _atom_site_occupancy
  La  La0  1  0.24652000  0.50634000  0.00142000  1
  La  La1  1  0.75348000  0.49366000  0.99858000  1
  H  H2  1  0.01230000  0.39960000  0.68960000  1
  H  H3  1  0.03740000  0.25510000  0.81920000  1
  H  H4  1  0.25410000  0.44760000  0.52590000  1
  H  H5  1  0.25960000  0.06550000  0.82200000  1
  H  H6  1  0.37710000  0.66840000  0.63840000  1
  H  H7  1  0.40520000  0.88940000  0.48390000  1
  H  H8  1  0.43020000  0.86060000  0.79220000  1
  H  H9  1  0.43900000  0.12120000  0.33010000  1
  H  H10  1  0.48210000  0.53250000  0.61850000  1
  H  H11  1  0.51790000  0.46750000  0.38150000  1
  H  H12  1  0.56100000  0.87880000  0.66990000  1
  H  H13  1  0.56980000  0.13940000  0.20780000  1
  H  H14  1  0.59480000  0.11060000  0.51610000  1
  H  H15  1  0.62290000  0.33160000  0.36160000  1
  H  H16  1  0.74040000  0.93450000  0.17800000  1
  H  H17  1  0.74590000  0.55240000  0.47410000  1
  H  H18  1  0.96260000  0.74490000  0.18080000  1
  H  H19  1  0.98770000  0.60040000  0.31040000  1
  C  C20  1  0.09170000  0.32850000  0.75630000  1
  C  C21  1  0.14040000  0.39520000  0.83270000  1
  C  C22  1  0.23390000  0.26500000  0.68490000  1
  C  C23  1  0.30110000  0.35030000  0.56480000  1
  C  C24  1  0.30440000  0.12320000  0.74020000  1
  C  C25  1  0.35000000  0.13220000  0.16310000  1
  C  C26  1  0.41830000  0.42740000  0.25050000  1
  C  C27  1  0.43610000  0.29300000  0.50260000  1
  C  C28  1  0.43800000  0.06360000  0.67940000  1
  C  C29  1  0.48450000  0.08990000  0.25790000  1
  C  C30  1  0.48900000  0.61690000  0.62620000  1
  C  C31  1  0.49670000  0.85000000  0.44060000  1
  C  C32  1  0.50330000  0.15000000  0.55940000  1
  C  C33  1  0.51100000  0.38310000  0.37380000  1
  C  C34  1  0.51550000  0.91010000  0.74210000  1
  C  C35  1  0.56200000  0.93640000  0.32060000  1
  C  C36  1  0.56390000  0.70700000  0.49740000  1
  C  C37  1  0.58170000  0.57260000  0.74950000  1
  C  C38  1  0.65000000  0.86780000  0.83690000  1
  C  C39  1  0.69560000  0.87680000  0.25980000  1
  C  C40  1  0.69890000  0.64970000  0.43520000  1
  C  C41  1  0.76610000  0.73500000  0.31510000  1
  C  C42  1  0.85960000  0.60480000  0.16730000  1
  C  C43  1  0.90830000  0.67150000  0.24370000  1
  O  O44  1  0.03190000  0.43780000  0.90870000  1
  O  O45  1  0.26880000  0.44210000  0.25640000  1
  O  O46  1  0.27780000  0.25980000  0.11810000  1
  O  O47  1  0.28080000  0.40900000  0.82300000  1
  O  O48  1  0.31660000  0.04580000  0.13610000  1
  O  O49  1  0.49780000  0.45160000  0.13710000  1
  O  O50  1  0.50220000  0.54840000  0.86290000  1
  O  O51  1  0.68340000  0.95420000  0.86390000  1
  O  O52  1  0.71920000  0.59100000  0.17700000  1
  O  O53  1  0.72220000  0.74020000  0.88190000  1
  O  O54  1  0.73120000  0.55790000  0.74360000  1
  O  O55  1  0.96810000  0.56220000  0.09130000  1
