# generated using pymatgen
data_ZnPO4
_symmetry_space_group_name_H-M   'P 1'
_cell_length_a   13.29300000
_cell_length_b   13.78200000
_cell_length_c   14.01100000
_cell_angle_alpha   90.00000000
_cell_angle_beta   90.00000000
_cell_angle_gamma   90.00000000
_symmetry_Int_Tables_number   1
_chemical_formula_structural   ZnPO4
_chemical_formula_sum   'Zn20 P20 O80'
_cell_volume   2566.87300939
_cell_formula_units_Z   20
loop_
 _symmetry_equiv_pos_site_id
 _symmetry_equiv_pos_as_xyz
  1  'x, y, z'
loop_
 _atom_site_type_symbol
 _atom_site_label
 _atom_site_symmetry_multiplicity
 _atom_site_fract_x
 _atom_site_fract_y
 _atom_site_fract_z
 _atom_site_occupancy
  Zn  Zn0  1  0.06587000  0.24041000  0.36732000  1
  Zn  Zn1  1  0.12666000  0.73963000  0.99452000  1
  Zn  Zn2  1  0.12808000  0.77703000  0.74437000  1
  Zn  Zn3  1  0.22490000  0.63123000  0.38723000  1
  Zn  Zn4  1  0.24193000  0.87417000  0.34983000  1
  Zn  Zn5  1  0.25807000  0.37417000  0.84983000  1
  Zn  Zn6  1  0.27510000  0.13123000  0.88723000  1
  Zn  Zn7  1  0.37192000  0.27703000  0.24437000  1
  Zn  Zn8  1  0.37334000  0.23963000  0.49452000  1
  Zn  Zn9  1  0.43413000  0.74041000  0.86732000  1
  Zn  Zn10  1  0.56587000  0.25959000  0.86732000  1
  Zn  Zn11  1  0.62666000  0.76037000  0.49452000  1
  Zn  Zn12  1  0.62808000  0.72297000  0.24437000  1
  Zn  Zn13  1  0.72490000  0.86877000  0.88723000  1
  Zn  Zn14  1  0.74193000  0.62583000  0.84983000  1
  Zn  Zn15  1  0.75807000  0.12583000  0.34983000  1
  Zn  Zn16  1  0.77510000  0.36877000  0.38723000  1
  Zn  Zn17  1  0.87192000  0.22297000  0.74437000  1
  Zn  Zn18  1  0.87334000  0.26037000  0.99452000  1
  Zn  Zn19  1  0.93413000  0.75959000  0.36732000  1
  P  P20  1  0.06931000  0.24161000  0.87084000  1
  P  P21  1  0.10791000  0.73793000  0.22598000  1
  P  P22  1  0.11283000  0.78159000  0.51427000  1
  P  P23  1  0.24084000  0.39212000  0.39104000  1
  P  P24  1  0.24252000  0.61091000  0.84327000  1
  P  P25  1  0.25748000  0.11091000  0.34327000  1
  P  P26  1  0.25916000  0.89212000  0.89104000  1
  P  P27  1  0.38717000  0.28159000  0.01427000  1
  P  P28  1  0.39209000  0.23793000  0.72598000  1
  P  P29  1  0.43069000  0.74161000  0.37084000  1
  P  P30  1  0.56931000  0.25839000  0.37084000  1
  P  P31  1  0.60791000  0.76207000  0.72598000  1
  P  P32  1  0.61283000  0.71841000  0.01427000  1
  P  P33  1  0.74084000  0.10788000  0.89104000  1
  P  P34  1  0.74252000  0.88909000  0.34327000  1
  P  P35  1  0.75748000  0.38909000  0.84327000  1
  P  P36  1  0.75916000  0.60788000  0.39104000  1
  P  P37  1  0.88717000  0.21841000  0.51427000  1
  P  P38  1  0.89209000  0.26207000  0.22598000  1
  P  P39  1  0.93069000  0.75839000  0.87084000  1
  O  O40  1  0.00300000  0.20860000  0.95470000  1
  O  O41  1  0.00680000  0.26400000  0.78240000  1
  O  O42  1  0.00720000  0.74380000  0.48700000  1
  O  O43  1  0.00950000  0.78890000  0.25170000  1
  O  O44  1  0.10100000  0.69990000  0.12470000  1
  O  O45  1  0.11140000  0.82070000  0.61590000  1
  O  O46  1  0.11980000  0.65110000  0.29460000  1
  O  O47  1  0.12810000  0.33300000  0.89980000  1
  O  O48  1  0.14030000  0.86490000  0.44710000  1
  O  O49  1  0.14130000  0.15850000  0.84560000  1
  O  O50  1  0.14420000  0.35630000  0.34330000  1
  O  O51  1  0.15430000  0.12980000  0.38840000  1
  O  O52  1  0.15770000  0.62660000  0.91600000  1
  O  O53  1  0.17100000  0.88860000  0.82060000  1
  O  O54  1  0.19240000  0.69990000  0.50700000  1
  O  O55  1  0.19770000  0.80720000  0.23450000  1
  O  O56  1  0.22440000  0.49680000  0.42500000  1
  O  O57  1  0.22740000  0.67610000  0.75490000  1
  O  O58  1  0.23620000  0.83150000  0.98140000  1
  O  O59  1  0.23850000  0.50530000  0.80830000  1
  O  O60  1  0.26150000  0.00530000  0.30830000  1
  O  O61  1  0.26380000  0.33150000  0.48140000  1
  O  O62  1  0.27260000  0.17610000  0.25490000  1
  O  O63  1  0.27560000  0.99680000  0.92500000  1
  O  O64  1  0.30230000  0.30720000  0.73450000  1
  O  O65  1  0.30760000  0.19990000  0.00700000  1
  O  O66  1  0.32900000  0.38860000  0.32060000  1
  O  O67  1  0.34230000  0.12660000  0.41600000  1
  O  O68  1  0.34570000  0.62980000  0.88840000  1
  O  O69  1  0.35580000  0.85630000  0.84330000  1
  O  O70  1  0.35870000  0.65850000  0.34560000  1
  O  O71  1  0.35970000  0.36490000  0.94710000  1
  O  O72  1  0.37190000  0.83300000  0.39980000  1
  O  O73  1  0.38020000  0.15110000  0.79460000  1
  O  O74  1  0.38860000  0.32070000  0.11590000  1
  O  O75  1  0.39900000  0.19990000  0.62470000  1
  O  O76  1  0.49050000  0.28890000  0.75170000  1
  O  O77  1  0.49280000  0.24380000  0.98700000  1
  O  O78  1  0.49320000  0.76400000  0.28240000  1
  O  O79  1  0.49700000  0.70860000  0.45470000  1
  O  O80  1  0.50300000  0.29140000  0.45470000  1
  O  O81  1  0.50680000  0.23600000  0.28240000  1
  O  O82  1  0.50720000  0.75620000  0.98700000  1
  O  O83  1  0.50950000  0.71110000  0.75170000  1
  O  O84  1  0.60100000  0.80010000  0.62470000  1
  O  O85  1  0.61140000  0.67930000  0.11590000  1
  O  O86  1  0.61980000  0.84890000  0.79460000  1
  O  O87  1  0.62810000  0.16700000  0.39980000  1
  O  O88  1  0.64030000  0.63510000  0.94710000  1
  O  O89  1  0.64130000  0.34150000  0.34560000  1
  O  O90  1  0.64420000  0.14370000  0.84330000  1
  O  O91  1  0.65430000  0.37020000  0.88840000  1
  O  O92  1  0.65770000  0.87340000  0.41600000  1
  O  O93  1  0.67100000  0.61140000  0.32060000  1
  O  O94  1  0.69240000  0.80010000  0.00700000  1
  O  O95  1  0.69770000  0.69280000  0.73450000  1
  O  O96  1  0.72440000  0.00320000  0.92500000  1
  O  O97  1  0.72740000  0.82390000  0.25490000  1
  O  O98  1  0.73620000  0.66850000  0.48140000  1
  O  O99  1  0.73850000  0.99470000  0.30830000  1
  O  O100  1  0.76150000  0.49470000  0.80830000  1
  O  O101  1  0.76380000  0.16850000  0.98140000  1
  O  O102  1  0.77260000  0.32390000  0.75490000  1
  O  O103  1  0.77560000  0.50320000  0.42500000  1
  O  O104  1  0.80230000  0.19280000  0.23450000  1
  O  O105  1  0.80760000  0.30010000  0.50700000  1
  O  O106  1  0.82900000  0.11140000  0.82060000  1
  O  O107  1  0.84230000  0.37340000  0.91600000  1
  O  O108  1  0.84570000  0.87020000  0.38840000  1
  O  O109  1  0.85580000  0.64370000  0.34330000  1
  O  O110  1  0.85870000  0.84150000  0.84560000  1
  O  O111  1  0.85970000  0.13510000  0.44710000  1
  O  O112  1  0.87190000  0.66700000  0.89980000  1
  O  O113  1  0.88020000  0.34890000  0.29460000  1
  O  O114  1  0.88860000  0.17930000  0.61590000  1
  O  O115  1  0.89900000  0.30010000  0.12470000  1
  O  O116  1  0.99050000  0.21110000  0.25170000  1
  O  O117  1  0.99280000  0.25620000  0.48700000  1
  O  O118  1  0.99320000  0.73600000  0.78240000  1
  O  O119  1  0.99700000  0.79140000  0.95470000  1
