# generated using pymatgen
data_CeH9(C2O)6
_symmetry_space_group_name_H-M   'P 1'
_cell_length_a   8.58200000
_cell_length_b   10.95600000
_cell_length_c   11.21700000
_cell_angle_alpha   64.17000000
_cell_angle_beta   79.98000000
_cell_angle_gamma   73.43100000
_symmetry_Int_Tables_number   1
_chemical_formula_structural   CeH9(C2O)6
_chemical_formula_sum   'Ce2 H18 C24 O12'
_cell_volume   908.36868251
_cell_formula_units_Z   2
loop_
 _symmetry_equiv_pos_site_id
 _symmetry_equiv_pos_as_xyz
  1  'x, y, z'
loop_
 _atom_site_type_symbol
 _atom_site_label
 _atom_site_symmetry_multiplicity
 _atom_site_fract_x
 _atom_site_fract_y
 _atom_site_fract_z
 _atom_site_occupancy
  Ce  Ce0  1  0.25200000  0.49734000  0.99676000  1
  Ce  Ce1  1  0.74800000  0.50266000  0.00324000  1
  H  H2  1  0.01590000  0.46600000  0.37390000  1
  H  H3  1  0.05820000  0.87490000  0.67450000  1
  H  H4  1  0.06690000  0.14330000  0.19880000  1
  H  H5  1  0.09300000  0.10910000  0.51590000  1
  H  H6  1  0.11790000  0.32820000  0.35560000  1
  H  H7  1  0.23670000  0.93150000  0.17260000  1
  H  H8  1  0.24830000  0.55190000  0.47900000  1
  H  H9  1  0.47230000  0.73380000  0.19090000  1
  H  H10  1  0.48220000  0.58880000  0.31810000  1
  H  H11  1  0.51780000  0.41120000  0.68190000  1
  H  H12  1  0.52770000  0.26620000  0.80910000  1
  H  H13  1  0.75170000  0.44810000  0.52100000  1
  H  H14  1  0.76330000  0.06850000  0.82740000  1
  H  H15  1  0.88210000  0.67180000  0.64440000  1
  H  H16  1  0.90700000  0.89090000  0.48410000  1
  H  H17  1  0.93310000  0.85670000  0.80120000  1
  H  H18  1  0.94180000  0.12510000  0.32550000  1
  H  H19  1  0.98410000  0.53400000  0.62610000  1
  C  C20  1  0.00140000  0.15000000  0.55860000  1
  C  C21  1  0.00620000  0.38070000  0.36840000  1
  C  C22  1  0.01590000  0.90820000  0.74570000  1
  C  C23  1  0.06630000  0.70850000  0.49820000  1
  C  C24  1  0.06700000  0.93400000  0.31840000  1
  C  C25  1  0.08360000  0.57460000  0.75400000  1
  C  C26  1  0.15800000  0.87430000  0.83230000  1
  C  C27  1  0.19530000  0.87500000  0.25700000  1
  C  C28  1  0.20100000  0.64920000  0.43780000  1
  C  C29  1  0.26890000  0.73160000  0.31550000  1
  C  C30  1  0.35980000  0.60210000  0.16740000  1
  C  C31  1  0.40960000  0.66390000  0.24950000  1
  C  C32  1  0.59040000  0.33610000  0.75050000  1
  C  C33  1  0.64020000  0.39790000  0.83260000  1
  C  C34  1  0.73110000  0.26840000  0.68450000  1
  C  C35  1  0.79900000  0.35080000  0.56220000  1
  C  C36  1  0.80470000  0.12500000  0.74300000  1
  C  C37  1  0.84200000  0.12570000  0.16770000  1
  C  C38  1  0.91640000  0.42540000  0.24600000  1
  C  C39  1  0.93300000  0.06600000  0.68160000  1
  C  C40  1  0.93370000  0.29150000  0.50180000  1
  C  C41  1  0.98410000  0.09180000  0.25430000  1
  C  C42  1  0.99380000  0.61930000  0.63160000  1
  C  C43  1  0.99860000  0.85000000  0.44140000  1
  O  O44  1  0.00810000  0.54310000  0.86940000  1
  O  O45  1  0.19340000  0.96060000  0.85390000  1
  O  O46  1  0.21740000  0.58440000  0.17750000  1
  O  O47  1  0.22160000  0.74350000  0.88410000  1
  O  O48  1  0.24590000  0.55250000  0.75060000  1
  O  O49  1  0.47120000  0.55680000  0.09230000  1
  O  O50  1  0.52880000  0.44320000  0.90770000  1
  O  O51  1  0.75410000  0.44750000  0.24940000  1
  O  O52  1  0.77840000  0.25650000  0.11590000  1
  O  O53  1  0.78260000  0.41560000  0.82250000  1
  O  O54  1  0.80660000  0.03940000  0.14610000  1
  O  O55  1  0.99190000  0.45690000  0.13060000  1
