# generated using pymatgen
data_Cd3H20C42(NO8)2
_symmetry_space_group_name_H-M   'P 1'
_cell_length_a   13.52310000
_cell_length_b   29.56150000
_cell_length_c   29.56150224
_cell_angle_alpha   87.00116915
_cell_angle_beta   76.77778152
_cell_angle_gamma   76.77790000
_symmetry_Int_Tables_number   1
_chemical_formula_structural   Cd3H20C42(NO8)2
_chemical_formula_sum   'Cd24 H160 C336 N16 O128'
_cell_volume   11199.34634206
_cell_formula_units_Z   8
loop_
 _symmetry_equiv_pos_site_id
 _symmetry_equiv_pos_as_xyz
  1  'x, y, z'
loop_
 _atom_site_type_symbol
 _atom_site_label
 _atom_site_symmetry_multiplicity
 _atom_site_fract_x
 _atom_site_fract_y
 _atom_site_fract_z
 _atom_site_occupancy
  Cd  Cd0  1  0.50950000  0.24888000  0.48960000  1
  Cd  Cd1  1  0.03392000  0.38433000  0.94955000  1
  Cd  Cd2  1  0.08174000  0.05046000  0.88433000  1
  Cd  Cd3  1  0.36780000  0.11567000  0.55045000  1
  Cd  Cd4  1  0.41441000  0.61101000  0.44169000  1
  Cd  Cd5  1  0.00091000  0.98959000  0.75112000  1
  Cd  Cd6  1  0.75202000  0.74888000  0.98960000  1
  Cd  Cd7  1  0.01654000  0.44954000  0.61567000  1
  Cd  Cd8  1  0.47458000  0.55831000  0.11101000  1
  Cd  Cd9  1  0.14390000  0.94169000  0.38899000  1
  Cd  Cd10  1  0.46711000  0.88899000  0.05831000  1
  Cd  Cd11  1  0.25839000  0.48959000  0.25112000  1
  Cd  Cd12  1  0.74161000  0.51041000  0.74888000  1
  Cd  Cd13  1  0.53289000  0.11101000  0.94169000  1
  Cd  Cd14  1  0.85610000  0.05831000  0.61101000  1
  Cd  Cd15  1  0.52542000  0.44169000  0.88899000  1
  Cd  Cd16  1  0.98346000  0.55046000  0.38433000  1
  Cd  Cd17  1  0.24798000  0.25112000  0.01040000  1
  Cd  Cd18  1  0.99909000  0.01041000  0.24888000  1
  Cd  Cd19  1  0.58559000  0.38899000  0.55831000  1
  Cd  Cd20  1  0.63220000  0.88433000  0.44955000  1
  Cd  Cd21  1  0.91826000  0.94954000  0.11567000  1
  Cd  Cd22  1  0.96608000  0.61567000  0.05045000  1
  Cd  Cd23  1  0.49050000  0.75112000  0.51040000  1
  H  H24  1  0.83420000  0.72770000  0.16390000  1
  H  H25  1  0.01970000  0.28200000  0.97180000  1
  H  H26  1  0.19830000  0.02820000  0.78200000  1
  H  H27  1  0.79770000  0.56840000  0.17460000  1
  H  H28  1  0.75300000  0.44770000  0.21310000  1
  H  H29  1  0.25980000  0.53810000  0.70590000  1
  H  H30  1  0.29800000  0.11030000  0.66590000  1
  H  H31  1  0.63580000  0.58250000  0.32550000  1
  H  H32  1  0.23090000  0.16070000  0.72930000  1
  H  H33  1  0.27420000  0.22770000  0.66390000  1
  H  H34  1  0.88010000  0.18340000  0.04720000  1
  H  H35  1  0.65170000  0.96950000  0.27470000  1
  H  H36  1  0.03610000  0.16590000  0.88970000  1
  H  H37  1  0.07420000  0.38970000  0.83410000  1
  H  H38  1  0.57490000  0.45240000  0.33160000  1
  H  H39  1  0.92640000  0.22530000  0.96950000  1
  H  H40  1  0.12090000  0.33930000  0.77070000  1
  H  H41  1  0.07270000  0.54720000  0.81660000  1
  H  H42  1  0.81320000  0.33160000  0.06860000  1
  H  H43  1  0.25570000  0.42180000  0.62520000  1
  H  H44  1  0.56350000  0.04720000  0.31660000  1
  H  H45  1  0.03980000  0.22930000  0.83930000  1
  H  H46  1  0.10410000  0.46950000  0.77470000  1
  H  H47  1  0.53540000  0.70030000  0.33190000  1
  H  H48  1  0.54070000  0.93160000  0.32540000  1
  H  H49  1  0.56500000  0.54060000  0.27680000  1
  H  H50  1  0.06190000  0.16390000  0.77230000  1
  H  H51  1  0.66040000  0.42380000  0.16500000  1
  H  H52  1  0.69730000  0.92180000  0.12520000  1
  H  H53  1  0.69220000  0.56950000  0.12310000  1
  H  H54  1  0.64480000  0.06860000  0.16840000  1
  H  H55  1  0.27350000  0.21800000  0.52820000  1
  H  H56  1  0.86610000  0.17460000  0.93160000  1
  H  H57  1  0.11820000  0.56860000  0.66840000  1
  H  H58  1  0.30950000  0.72080000  0.46040000  1
  H  H59  1  0.10840000  0.27070000  0.66070000  1
  H  H60  1  0.38480000  0.93050000  0.37690000  1
  H  H61  1  0.70070000  0.21310000  0.05230000  1
  H  H62  1  0.17460000  0.66500000  0.57620000  1
  H  H63  1  0.82250000  0.37480000  0.92180000  1
  H  H64  1  0.70210000  0.29410000  0.03810000  1
  H  H65  1  0.56760000  0.79970000  0.16810000  1
  H  H66  1  0.43720000  0.64170000  0.29310000  1
  H  H67  1  0.00850000  0.47180000  0.71800000  1
  H  H68  1  0.99810000  0.33610000  0.72770000  1
  H  H69  1  0.54380000  0.91750000  0.17450000  1
  H  H70  1  0.49620000  0.03810000  0.20590000  1
  H  H71  1  0.09170000  0.33410000  0.61030000  1
  H  H72  1  0.41380000  0.05230000  0.28690000  1
  H  H73  1  0.11910000  0.12520000  0.57820000  1
  H  H74  1  0.76170000  0.12310000  0.93050000  1
  H  H75  1  0.46970000  0.53960000  0.22080000  1
  H  H76  1  0.36840000  0.72890000  0.31970000  1
  H  H77  1  0.58420000  0.16500000  0.07620000  1
  H  H78  1  0.12120000  0.27470000  0.53050000  1
  H  H79  1  0.21340000  0.16840000  0.43140000  1
  H  H80  1  0.09350000  0.83160000  0.54760000  1
  H  H81  1  0.71830000  0.32550000  0.91750000  1
  H  H82  1  0.40270000  0.68030000  0.22890000  1
  H  H83  1  0.26970000  0.79310000  0.35830000  1
  H  H84  1  0.15820000  0.77680000  0.45940000  1
  H  H85  1  0.18470000  0.62310000  0.43050000  1
  H  H86  1  0.38240000  0.95940000  0.22320000  1
  H  H87  1  0.41700000  0.77110000  0.18030000  1
  H  H88  1  0.03390000  0.71310000  0.55230000  1
  H  H89  1  0.24920000  0.07620000  0.33500000  1
  H  H90  1  0.31190000  0.81970000  0.27110000  1
  H  H91  1  0.37200000  0.85830000  0.20690000  1
  H  H92  1  0.52730000  0.33160000  0.04760000  1
  H  H93  1  0.86730000  0.16810000  0.70030000  1
  H  H94  1  0.60560000  0.27680000  0.95940000  1
  H  H95  1  0.11070000  0.31660000  0.45280000  1
  H  H96  1  0.42110000  0.70690000  0.14170000  1
  H  H97  1  0.96130000  0.17450000  0.58250000  1
  H  H98  1  0.97230000  0.32540000  0.56840000  1
  H  H99  1  0.73570000  0.33190000  0.79970000  1
  H  H100  1  0.49070000  0.77920000  0.03960000  1
  H  H101  1  0.35890000  0.04760000  0.16840000  1
  H  H102  1  0.23010000  0.96040000  0.27920000  1
  H  H103  1  0.96570000  0.79410000  0.53810000  1
  H  H104  1  0.03430000  0.20590000  0.46190000  1
  H  H105  1  0.76990000  0.03960000  0.72080000  1
  H  H106  1  0.64110000  0.95240000  0.83160000  1
  H  H107  1  0.50930000  0.22080000  0.96040000  1
  H  H108  1  0.26430000  0.66810000  0.20030000  1
  H  H109  1  0.02770000  0.67460000  0.43160000  1
  H  H110  1  0.03870000  0.82550000  0.41750000  1
  H  H111  1  0.57890000  0.29310000  0.85830000  1
  H  H112  1  0.88930000  0.68340000  0.54720000  1
  H  H113  1  0.39440000  0.72320000  0.04060000  1
  H  H114  1  0.13270000  0.83190000  0.29970000  1
  H  H115  1  0.47270000  0.66840000  0.95240000  1
  H  H116  1  0.62800000  0.14170000  0.79310000  1
  H  H117  1  0.68810000  0.18030000  0.72890000  1
  H  H118  1  0.75080000  0.92380000  0.66500000  1
  H  H119  1  0.96610000  0.28690000  0.44770000  1
  H  H120  1  0.58300000  0.22890000  0.81970000  1
  H  H121  1  0.61760000  0.04060000  0.77680000  1
  H  H122  1  0.81530000  0.37690000  0.56950000  1
  H  H123  1  0.84180000  0.22320000  0.54060000  1
  H  H124  1  0.73030000  0.20690000  0.64170000  1
  H  H125  1  0.59730000  0.31970000  0.77110000  1
  H  H126  1  0.28170000  0.67450000  0.08250000  1
  H  H127  1  0.90650000  0.16840000  0.45240000  1
  H  H128  1  0.78660000  0.83160000  0.56860000  1
  H  H129  1  0.87880000  0.72530000  0.46950000  1
  H  H130  1  0.41580000  0.83500000  0.92380000  1
  H  H131  1  0.63160000  0.27110000  0.68030000  1
  H  H132  1  0.53030000  0.46040000  0.77920000  1
  H  H133  1  0.23830000  0.87690000  0.06950000  1
  H  H134  1  0.88090000  0.87480000  0.42180000  1
  H  H135  1  0.58620000  0.94770000  0.71310000  1
  H  H136  1  0.90830000  0.66590000  0.38970000  1
  H  H137  1  0.50380000  0.96190000  0.79410000  1
  H  H138  1  0.45620000  0.08250000  0.82550000  1
  H  H139  1  0.00190000  0.66390000  0.27230000  1
  H  H140  1  0.99150000  0.52820000  0.28200000  1
  H  H141  1  0.56280000  0.35830000  0.70690000  1
  H  H142  1  0.43240000  0.20030000  0.83190000  1
  H  H143  1  0.29790000  0.70590000  0.96190000  1
  H  H144  1  0.17750000  0.62520000  0.07820000  1
  H  H145  1  0.82540000  0.33500000  0.42380000  1
  H  H146  1  0.29930000  0.78690000  0.94770000  1
  H  H147  1  0.61520000  0.06950000  0.62310000  1
  H  H148  1  0.89160000  0.72930000  0.33930000  1
  H  H149  1  0.69050000  0.27920000  0.53960000  1
  H  H150  1  0.88180000  0.43140000  0.33160000  1
  H  H151  1  0.13390000  0.82540000  0.06840000  1
  H  H152  1  0.72650000  0.78200000  0.47180000  1
  H  H153  1  0.35520000  0.93140000  0.83160000  1
  H  H154  1  0.30780000  0.43050000  0.87690000  1
  H  H155  1  0.30270000  0.07820000  0.87480000  1
  H  H156  1  0.33960000  0.57620000  0.83500000  1
  H  H157  1  0.93810000  0.83610000  0.22770000  1
  H  H158  1  0.43500000  0.45940000  0.72320000  1
  H  H159  1  0.45930000  0.06840000  0.67460000  1
  H  H160  1  0.46460000  0.29970000  0.66810000  1
  H  H161  1  0.89590000  0.53050000  0.22530000  1
  H  H162  1  0.96020000  0.77070000  0.16070000  1
  H  H163  1  0.43650000  0.95280000  0.68340000  1
  H  H164  1  0.74430000  0.57820000  0.37480000  1
  H  H165  1  0.18680000  0.66840000  0.93140000  1
  H  H166  1  0.92730000  0.45280000  0.18340000  1
  H  H167  1  0.87910000  0.66070000  0.22930000  1
  H  H168  1  0.07360000  0.77470000  0.03050000  1
  H  H169  1  0.42510000  0.54760000  0.66840000  1
  H  H170  1  0.92580000  0.61030000  0.16590000  1
  H  H171  1  0.96390000  0.83410000  0.11030000  1
  H  H172  1  0.34830000  0.03050000  0.72530000  1
  H  H173  1  0.11990000  0.81660000  0.95280000  1
  H  H174  1  0.72580000  0.77230000  0.33610000  1
  H  H175  1  0.76910000  0.83930000  0.27070000  1
  H  H176  1  0.36420000  0.41750000  0.67450000  1
  H  H177  1  0.70200000  0.88970000  0.33410000  1
  H  H178  1  0.74020000  0.46190000  0.29410000  1
  H  H179  1  0.24700000  0.55230000  0.78690000  1
  H  H180  1  0.20230000  0.43160000  0.82540000  1
  H  H181  1  0.80170000  0.97180000  0.21800000  1
  H  H182  1  0.98030000  0.71800000  0.02820000  1
  H  H183  1  0.16580000  0.27230000  0.83610000  1
  C  C184  1  0.56338000  0.67385000  0.43099000  1
  C  C185  1  0.38826000  0.56878000  0.60570000  1
  C  C186  1  0.57884000  0.05830000  0.40242000  1
  C  C187  1  0.83323000  0.75438000  0.14576000  1
  C  C188  1  0.29274000  0.42887000  0.68445000  1
  C  C189  1  0.24539000  0.44555000  0.73147000  1
  C  C190  1  0.62962000  0.44549000  0.34687000  1
  C  C191  1  0.08913000  0.18176000  0.88718000  1
  C  C192  1  0.35456000  0.26920000  0.62128000  1
  C  C193  1  0.93360000  0.40135000  0.04105000  1
  C  C194  1  0.78495000  0.43995000  0.18235000  1
  C  C195  1  0.87634000  0.41460000  0.08992000  1
  C  C196  1  0.01874000  0.90242000  0.94170000  1
  C  C197  1  0.74944000  0.96016000  0.21016000  1
  C  C198  1  0.52919000  0.81985000  0.42017000  1
  C  C199  1  0.27173000  0.55101000  0.67633000  1
  C  C200  1  0.08982000  0.22059000  0.85697000  1
  C  C201  1  0.06523000  0.56861000  0.88153000  1
  C  C202  1  0.11040000  0.55691000  0.83549000  1
  C  C203  1  0.34362000  0.30846000  0.59210000  1
  C  C204  1  0.86616000  0.11847000  0.06861000  1
  C  C205  1  0.83495000  0.04105000  0.09865000  1
  C  C206  1  0.83808000  0.83348000  0.08736000  1
  C  C207  1  0.68897000  0.55615000  0.23291000  1
  C  C208  1  0.50155000  0.43105000  0.41905000  1
  C  C209  1  0.95960000  0.28984000  0.96016000  1
  C  C210  1  0.73050000  0.56367000  0.18493000  1
  C  C211  1  0.26663000  0.25438000  0.64576000  1
  C  C212  1  0.22911000  0.11282000  0.68176000  1
  C  C213  1  0.53847000  0.75135000  0.37191000  1
  C  C214  1  0.18959000  0.14303000  0.72059000  1
  C  C215  1  0.65808000  0.96010000  0.24434000  1
  C  C216  1  0.84342000  0.87157000  0.05579000  1
  C  C217  1  0.30935000  0.58148000  0.58422000  1
  C  C218  1  0.83269000  0.16451000  0.05691000  1
  C  C219  1  0.77665000  0.41260000  0.10850000  1
  C  C220  1  0.72970000  0.42513000  0.15347000  1
  C  C221  1  0.22690000  0.43083000  0.65597000  1
  C  C222  1  0.13748000  0.46010000  0.74434000  1
  C  C223  1  0.79094000  0.08992000  0.08540000  1
  C  C224  1  0.75496000  0.76920000  0.12128000  1
  C  C225  1  0.47984000  0.79341000  0.39311000  1
  C  C226  1  0.33494000  0.59451000  0.53341000  1
  C  C227  1  0.48463000  0.06861000  0.38153000  1
  C  C228  1  0.96044000  0.55830000  0.90242000  1
  C  C229  1  0.90242000  0.25566000  0.96010000  1
  C  C230  1  0.76921000  0.68015000  0.07983000  1
  C  C231  1  0.75582000  0.80846000  0.09210000  1
  C  C232  1  0.21499000  0.05579000  0.62843000  1
  C  C233  1  0.68630000  0.93083000  0.15597000  1
  C  C234  1  0.02369000  0.38718000  0.81824000  1
  C  C235  1  0.49596000  0.72808000  0.34580000  1
  C  C236  1  0.18627000  0.56836000  0.65270000  1
  C  C237  1  0.59264000  0.54672000  0.24580000  1
  C  C238  1  0.17156000  0.08736000  0.66652000  1
  C  C239  1  0.37600000  0.09865000  0.45895000  1
  C  C240  1  0.08761000  0.14576000  0.74562000  1
  C  C241  1  0.49720000  0.05691000  0.33549000  1
  C  C242  1  0.05321000  0.35697000  0.77941000  1
  C  C243  1  0.24108000  0.33348000  0.58736000  1
  C  C244  1  0.66677000  0.56355000  0.15431000  1
  C  C245  1  0.74537000  0.34730000  0.06836000  1
  C  C246  1  0.20479000  0.58420000  0.60822000  1
  C  C247  1  0.16738000  0.27941000  0.64303000  1
  C  C248  1  0.57759000  0.94555000  0.23147000  1
  C  C249  1  0.71101000  0.39178000  0.08420000  1
  C  C250  1  0.47910000  0.93633000  0.31507000  1
  C  C251  1  0.38086000  0.08540000  0.41008000  1
  C  C252  1  0.08024000  0.46016000  0.71016000  1
  C  C253  1  0.66173000  0.74865000  0.12809000  1
  C  C254  1  0.22922000  0.37157000  0.55579000  1
  C  C255  1  0.72490000  0.18235000  0.06005000  1
  C  C256  1  0.59394000  0.92887000  0.18445000  1
  C  C257  1  0.68925000  0.10850000  0.08740000  1
  C  C258  1  0.66636000  0.70659000  0.10689000  1
  C  C259  1  0.84227000  0.34403000  0.93083000  1
  C  C260  1  0.15807000  0.31824000  0.61282000  1
  C  C261  1  0.89921000  0.44421000  0.87157000  1
  C  C262  1  0.94936000  0.07983000  0.81985000  1
  C  C263  1  0.37659000  0.80831000  0.38871000  1
  C  C264  1  0.92544000  0.41264000  0.83348000  1
  C  C265  1  0.06428000  0.09210000  0.69154000  1
  C  C266  1  0.02416000  0.12128000  0.73080000  1
  C  C267  1  0.80906000  0.26853000  0.94555000  1
  C  C268  1  0.20960000  0.21016000  0.53984000  1
  C  C269  1  0.53533000  0.54636000  0.21178000  1
  C  C270  1  0.59267000  0.06836000  0.15270000  1
  C  C271  1  0.47803000  0.94385000  0.26709000  1
  C  C272  1  0.66822000  0.82615000  0.06901000  1
  C  C273  1  0.39493000  0.74444000  0.33910000  1
  C  C274  1  0.97899000  0.35424000  0.75438000  1
  C  C275  1  0.79417000  0.18493000  0.93633000  1
  C  C276  1  0.38463000  0.93645000  0.34569000  1
  C  C277  1  0.65483000  0.15347000  0.07487000  1
  C  C278  1  0.67726000  0.32367000  0.05101000  1
  C  C279  1  0.40725000  0.06005000  0.31765000  1
  C  C280  1  0.56984000  0.77192000  0.15420000  1
  C  C281  1  0.30557000  0.84969000  0.41337000  1
  C  C282  1  0.60279000  0.08420000  0.10822000  1
  C  C283  1  0.77839000  0.31555000  0.92887000  1
  C  C284  1  0.25289000  0.71178000  0.45364000  1
  C  C285  1  0.11485000  0.60850000  0.58740000  1
  C  C286  1  0.33827000  0.78281000  0.36125000  1
  C  C287  1  0.34474000  0.58663000  0.34969000  1
  C  C288  1  0.11683000  0.65347000  0.57487000  1
  C  C289  1  0.60917000  0.41578000  0.08148000  1
  C  C290  1  0.29775000  0.08740000  0.39150000  1
  C  C291  1  0.74512000  0.23291000  0.94385000  1
  C  C292  1  0.11713000  0.15597000  0.56917000  1
  C  C293  1  0.57361000  0.69169000  0.11129000  1
  C  C294  1  0.50093000  0.05101000  0.17633000  1
  C  C295  1  0.99437000  0.06901000  0.67385000  1
  C  C296  1  0.73032000  0.15431000  0.93645000  1
  C  C297  1  0.87295000  0.10689000  0.79341000  1
  C  C298  1  0.57055000  0.46659000  0.09451000  1
  C  C299  1  0.37892000  0.63875000  0.28281000  1
  C  C300  1  0.91038000  0.12809000  0.75135000  1
  C  C301  1  0.11818000  0.24434000  0.53990000  1
  C  C302  1  0.84792000  0.40790000  0.80846000  1
  C  C303  1  0.56863000  0.65031000  0.08663000  1
  C  C304  1  0.30830000  0.07487000  0.34653000  1
  C  C305  1  0.07940000  0.91905000  0.56895000  1
  C  C306  1  0.87624000  0.37872000  0.76920000  1
  C  C307  1  0.47847000  0.75556000  0.16090000  1
  C  C308  1  0.38516000  0.95328000  0.25420000  1
  C  C309  1  0.57511000  0.34687000  0.05451000  1
  C  C310  1  0.02535000  0.54105000  0.59865000  1
  C  C311  1  0.31510000  0.61129000  0.30831000  1
  C  C312  1  0.48233000  0.71719000  0.13875000  1
  C  C313  1  0.03374000  0.58992000  0.58540000  1
  C  C314  1  0.17892000  0.65431000  0.43645000  1
  C  C315  1  0.16156000  0.74580000  0.45328000  1
  C  C316  1  0.54296000  0.39430000  0.06878000  1
  C  C317  1  0.52495000  0.08148000  0.08422000  1
  C  C318  1  0.36063000  0.66090000  0.24444000  1
  C  C319  1  0.18699000  0.10822000  0.41580000  1
  C  C320  1  0.02281000  0.18445000  0.57113000  1
  C  C321  1  0.03270000  0.68235000  0.56005000  1
  C  C322  1  0.16103000  0.15270000  0.43164000  1
  C  C323  1  0.63936000  0.24580000  0.95328000  1
  C  C324  1  0.29347000  0.95364000  0.28822000  1
  C  C325  1  0.13714000  0.40242000  0.44170000  1
  C  C326  1  0.02351000  0.84687000  0.55451000  1
  C  C327  1  0.02314000  0.23147000  0.55445000  1
  C  C328  1  0.42198000  0.05451000  0.15313000  1
  C  C329  1  0.76530000  0.11129000  0.80831000  1
  C  C330  1  0.53714000  0.09451000  0.03341000  1
  C  C331  1  0.84176000  0.15420000  0.72808000  1
  C  C332  1  0.71894000  0.08663000  0.84969000  1
  C  C333  1  0.64835000  0.93105000  0.91905000  1
  C  C334  1  0.73723000  0.43099000  0.82615000  1
  C  C335  1  0.99396000  0.89430000  0.56878000  1
  C  C336  1  0.43726000  0.06878000  0.10570000  1
  C  C337  1  0.78982000  0.37191000  0.74865000  1
  C  C338  1  0.13165000  0.03341000  0.40549000  1
  C  C339  1  0.58169000  0.21178000  0.95364000  1
  C  C340  1  0.84904000  0.42017000  0.68015000  1
  C  C341  1  0.10643000  0.08422000  0.41852000  1
  C  C342  1  0.07812000  0.73291000  0.44385000  1
  C  C343  1  0.26597000  0.83910000  0.25556000  1
  C  C344  1  0.08457000  0.68493000  0.43633000  1
  C  C345  1  0.22675000  0.60689000  0.29341000  1
  C  C346  1  0.30048000  0.86125000  0.21719000  1
  C  C347  1  0.94676000  0.61847000  0.56861000  1
  C  C348  1  0.27596000  0.65420000  0.22808000  1
  C  C349  1  0.94589000  0.66451000  0.55691000  1
  C  C350  1  0.43260000  0.41905000  0.06895000  1
  C  C351  1  0.05194000  0.17633000  0.44899000  1
  C  C352  1  0.94806000  0.82367000  0.55101000  1
  C  C353  1  0.56740000  0.58095000  0.93105000  1
  C  C354  1  0.05411000  0.33549000  0.44309000  1
  C  C355  1  0.72404000  0.34580000  0.77192000  1
  C  C356  1  0.05324000  0.38153000  0.43139000  1
  C  C357  1  0.69952000  0.13875000  0.78281000  1
  C  C358  1  0.77325000  0.39311000  0.70659000  1
  C  C359  1  0.91543000  0.31507000  0.56367000  1
  C  C360  1  0.73403000  0.16090000  0.74444000  1
  C  C361  1  0.92188000  0.26709000  0.55615000  1
  C  C362  1  0.89357000  0.91578000  0.58148000  1
  C  C363  1  0.15096000  0.57983000  0.31985000  1
  C  C364  1  0.41831000  0.78822000  0.04636000  1
  C  C365  1  0.86835000  0.96659000  0.59451000  1
  C  C366  1  0.21018000  0.62809000  0.25135000  1
  C  C367  1  0.56274000  0.93122000  0.89430000  1
  C  C368  1  0.00604000  0.10570000  0.43122000  1
  C  C369  1  0.26277000  0.56901000  0.17385000  1
  C  C370  1  0.35165000  0.06895000  0.08095000  1
  C  C371  1  0.28106000  0.91337000  0.15031000  1
  C  C372  1  0.15824000  0.84580000  0.27192000  1
  C  C373  1  0.46286000  0.90549000  0.96659000  1
  C  C374  1  0.23470000  0.88871000  0.19169000  1
  C  C375  1  0.57802000  0.94549000  0.84687000  1
  C  C376  1  0.97686000  0.76853000  0.44555000  1
  C  C377  1  0.97649000  0.15313000  0.44549000  1
  C  C378  1  0.86286000  0.59758000  0.55830000  1
  C  C379  1  0.70653000  0.04636000  0.71178000  1
  C  C380  1  0.36064000  0.75420000  0.04672000  1
  C  C381  1  0.83897000  0.84730000  0.56836000  1
  C  C382  1  0.96730000  0.31765000  0.43995000  1
  C  C383  1  0.97719000  0.81555000  0.42887000  1
  C  C384  1  0.81301000  0.89178000  0.58420000  1
  C  C385  1  0.63937000  0.33910000  0.75556000  1
  C  C386  1  0.47505000  0.91852000  0.91578000  1
  C  C387  1  0.45704000  0.60570000  0.93122000  1
  C  C388  1  0.83844000  0.25420000  0.54672000  1
  C  C389  1  0.82108000  0.34569000  0.56355000  1
  C  C390  1  0.96626000  0.41008000  0.41460000  1
  C  C391  1  0.51767000  0.28281000  0.86125000  1
  C  C392  1  0.68490000  0.38871000  0.69169000  1
  C  C393  1  0.97465000  0.45895000  0.40135000  1
  C  C394  1  0.42489000  0.65313000  0.94549000  1
  C  C395  1  0.61484000  0.04672000  0.74580000  1
  C  C396  1  0.52153000  0.24444000  0.83910000  1
  C  C397  1  0.12376000  0.62128000  0.23080000  1
  C  C398  1  0.92060000  0.08095000  0.43105000  1
  C  C399  1  0.69170000  0.92513000  0.65347000  1
  C  C400  1  0.43137000  0.34969000  0.91337000  1
  C  C401  1  0.15208000  0.59210000  0.19154000  1
  C  C402  1  0.88182000  0.75566000  0.46010000  1
  C  C403  1  0.08962000  0.87191000  0.24865000  1
  C  C404  1  0.62108000  0.36125000  0.71719000  1
  C  C405  1  0.42945000  0.53341000  0.90549000  1
  C  C406  1  0.12705000  0.89311000  0.20659000  1
  C  C407  1  0.26968000  0.84569000  0.06355000  1
  C  C408  1  0.00563000  0.93099000  0.32615000  1
  C  C409  1  0.49907000  0.94899000  0.82367000  1
  C  C410  1  0.42639000  0.30831000  0.88871000  1
  C  C411  1  0.88287000  0.84403000  0.43083000  1
  C  C412  1  0.25488000  0.76709000  0.05615000  1
  C  C413  1  0.70225000  0.91260000  0.60850000  1
  C  C414  1  0.39083000  0.58422000  0.91852000  1
  C  C415  1  0.88317000  0.34653000  0.42513000  1
  C  C416  1  0.65526000  0.41337000  0.65031000  1
  C  C417  1  0.66173000  0.21719000  0.63875000  1
  C  C418  1  0.88515000  0.39150000  0.41260000  1
  C  C419  1  0.74711000  0.28822000  0.54636000  1
  C  C420  1  0.22161000  0.68445000  0.07113000  1
  C  C421  1  0.39721000  0.91580000  0.89178000  1
  C  C422  1  0.69443000  0.15031000  0.58663000  1
  C  C423  1  0.43016000  0.22808000  0.84580000  1
  C  C424  1  0.59275000  0.93995000  0.68235000  1
  C  C425  1  0.32274000  0.67633000  0.94899000  1
  C  C426  1  0.34517000  0.84653000  0.92513000  1
  C  C427  1  0.61537000  0.06355000  0.65431000  1
  C  C428  1  0.20583000  0.81507000  0.06367000  1
  C  C429  1  0.02101000  0.64576000  0.24562000  1
  C  C430  1  0.60507000  0.25556000  0.66090000  1
  C  C431  1  0.33178000  0.17385000  0.93099000  1
  C  C432  1  0.52197000  0.05615000  0.73291000  1
  C  C433  1  0.40733000  0.93164000  0.84730000  1
  C  C434  1  0.46467000  0.45364000  0.78822000  1
  C  C435  1  0.79040000  0.78984000  0.46016000  1
  C  C436  1  0.19094000  0.73147000  0.05445000  1
  C  C437  1  0.97584000  0.87872000  0.26920000  1
  C  C438  1  0.93572000  0.90790000  0.30846000  1
  C  C439  1  0.07456000  0.58736000  0.16652000  1
  C  C440  1  0.62341000  0.19169000  0.61129000  1
  C  C441  1  0.05064000  0.92017000  0.18015000  1
  C  C442  1  0.10079000  0.55579000  0.12843000  1
  C  C443  1  0.84193000  0.68176000  0.38718000  1
  C  C444  1  0.15773000  0.65597000  0.06917000  1
  C  C445  1  0.33364000  0.29341000  0.89311000  1
  C  C446  1  0.31075000  0.89150000  0.91260000  1
  C  C447  1  0.40606000  0.07113000  0.81555000  1
  C  C448  1  0.27510000  0.81765000  0.93995000  1
  C  C449  1  0.77078000  0.62843000  0.44421000  1
  C  C450  1  0.33827000  0.25135000  0.87191000  1
  C  C451  1  0.91976000  0.53984000  0.28984000  1
  C  C452  1  0.61914000  0.91460000  0.58992000  1
  C  C453  1  0.52090000  0.06367000  0.68493000  1
  C  C454  1  0.28899000  0.60822000  0.91580000  1
  C  C455  1  0.42241000  0.05445000  0.76853000  1
  C  C456  1  0.83262000  0.72059000  0.35697000  1
  C  C457  1  0.79521000  0.41580000  0.39178000  1
  C  C458  1  0.25463000  0.65270000  0.93164000  1
  C  C459  1  0.33323000  0.43645000  0.84569000  1
  C  C460  1  0.75892000  0.66652000  0.41264000  1
  C  C461  1  0.94679000  0.64303000  0.22059000  1
  C  C462  1  0.50280000  0.94309000  0.66451000  1
  C  C463  1  0.91239000  0.85424000  0.25438000  1
  C  C464  1  0.62400000  0.90135000  0.54105000  1
  C  C465  1  0.82844000  0.91264000  0.33348000  1
  C  C466  1  0.40736000  0.45328000  0.75420000  1
  C  C467  1  0.81373000  0.43164000  0.34730000  1
  C  C468  1  0.50404000  0.27192000  0.65420000  1
  C  C469  1  0.97631000  0.61282000  0.18176000  1
  C  C470  1  0.31370000  0.06917000  0.84403000  1
  C  C471  1  0.78501000  0.94421000  0.37157000  1
  C  C472  1  0.24418000  0.19154000  0.90790000  1
  C  C473  1  0.23079000  0.31985000  0.92017000  1
  C  C474  1  0.09758000  0.74434000  0.03990000  1
  C  C475  1  0.03956000  0.44170000  0.09758000  1
  C  C476  1  0.51537000  0.93139000  0.61847000  1
  C  C477  1  0.66506000  0.40549000  0.46659000  1
  C  C478  1  0.52016000  0.20659000  0.60689000  1
  C  C479  1  0.24504000  0.23080000  0.87872000  1
  C  C480  1  0.20906000  0.91008000  0.91460000  1
  C  C481  1  0.86252000  0.53990000  0.25566000  1
  C  C482  1  0.77310000  0.56917000  0.34403000  1
  C  C483  1  0.27030000  0.57487000  0.84653000  1
  C  C484  1  0.22335000  0.58740000  0.89150000  1
  C  C485  1  0.16731000  0.83549000  0.94309000  1
  C  C486  1  0.69065000  0.41852000  0.41578000  1
  C  C487  1  0.15658000  0.12843000  0.94421000  1
  C  C488  1  0.34192000  0.03990000  0.75566000  1
  C  C489  1  0.81041000  0.85697000  0.27941000  1
  C  C490  1  0.46153000  0.24865000  0.62809000  1
  C  C491  1  0.77089000  0.88718000  0.31824000  1
  C  C492  1  0.73337000  0.74562000  0.35424000  1
  C  C493  1  0.26950000  0.43633000  0.81507000  1
  C  C494  1  0.04040000  0.71016000  0.03984000  1
  C  C495  1  0.49845000  0.56895000  0.58095000  1
  C  C496  1  0.31103000  0.44385000  0.76709000  1
  C  C497  1  0.16192000  0.16652000  0.91264000  1
  C  C498  1  0.16505000  0.95895000  0.90135000  1
  C  C499  1  0.13384000  0.88153000  0.93139000  1
  C  C500  1  0.65638000  0.69154000  0.40790000  1
  C  C501  1  0.88960000  0.44309000  0.16451000  1
  C  C502  1  0.93477000  0.43139000  0.11847000  1
  C  C503  1  0.91018000  0.77941000  0.14303000  1
  C  C504  1  0.72827000  0.44899000  0.32367000  1
  C  C505  1  0.47081000  0.18015000  0.57983000  1
  C  C506  1  0.25056000  0.03984000  0.78984000  1
  C  C507  1  0.98126000  0.09758000  0.05830000  1
  C  C508  1  0.12366000  0.58540000  0.91008000  1
  C  C509  1  0.21505000  0.56005000  0.81765000  1
  C  C510  1  0.06640000  0.59865000  0.95895000  1
  C  C511  1  0.64544000  0.73080000  0.37872000  1
  C  C512  1  0.91087000  0.81824000  0.11282000  1
  C  C513  1  0.37038000  0.55451000  0.65313000  1
  C  C514  1  0.75461000  0.55445000  0.26853000  1
  C  C515  1  0.70726000  0.57113000  0.31555000  1
  C  C516  1  0.16677000  0.24562000  0.85424000  1
  C  C517  1  0.42116000  0.94170000  0.59758000  1
  C  C518  1  0.61174000  0.43122000  0.39430000  1
  C  C519  1  0.43662000  0.32615000  0.56901000  1
  N  N520  1  0.76419000  0.94500000  0.16882000  1
  N  N521  1  0.93301000  0.33118000  0.94500000  1
  N  N522  1  0.12199000  0.44500000  0.66882000  1
  N  N523  1  0.20919000  0.16882000  0.55500000  1
  N  N524  1  0.57170000  0.55538000  0.16682000  1
  N  N525  1  0.26148000  0.66682000  0.44462000  1
  N  N526  1  0.29390000  0.94462000  0.33318000  1
  N  N527  1  0.62708000  0.16682000  0.94462000  1
  N  N528  1  0.37292000  0.83318000  0.05538000  1
  N  N529  1  0.70610000  0.05538000  0.66682000  1
  N  N530  1  0.73852000  0.33318000  0.55538000  1
  N  N531  1  0.42830000  0.44462000  0.83318000  1
  N  N532  1  0.79081000  0.83118000  0.44500000  1
  N  N533  1  0.87801000  0.55500000  0.33118000  1
  N  N534  1  0.06699000  0.66882000  0.05500000  1
  N  N535  1  0.23581000  0.05500000  0.83118000  1
  O  O536  1  0.45357000  0.19527000  0.54019000  1
  O  O537  1  0.41596000  0.96763000  0.56525000  1
  O  O538  1  0.10191000  0.96704000  0.87674000  1
  O  O539  1  0.55777000  0.63680000  0.41366000  1
  O  O540  1  0.34583000  0.92402000  0.61852000  1
  O  O541  1  0.56082000  0.85375000  0.40161000  1
  O  O542  1  0.49367000  0.69626000  0.46060000  1
  O  O543  1  0.98121000  0.93475000  0.96763000  1
  O  O544  1  0.97865000  0.62326000  0.96704000  1
  O  O545  1  0.87806000  0.90434000  0.06514000  1
  O  O546  1  0.81618000  0.64625000  0.09839000  1
  O  O547  1  0.38767000  0.62586000  0.52220000  1
  O  O548  1  0.45766000  0.45930000  0.45198000  1
  O  O549  1  0.43105000  0.12326000  0.46704000  1
  O  O550  1  0.88737000  0.41820000  0.00926000  1
  O  O551  1  0.96435000  0.88148000  0.92402000  1
  O  O552  1  0.80557000  0.00926000  0.08180000  1
  O  O553  1  0.94884000  0.53237000  0.93475000  1
  O  O554  1  0.28240000  0.06514000  0.59566000  1
  O  O555  1  0.45461000  0.40242000  0.40776000  1
  O  O556  1  0.81097000  0.69527000  0.04019000  1
  O  O557  1  0.94320000  0.43486000  0.90434000  1
  O  O558  1  0.81093000  0.87170000  0.01824000  1
  O  O559  1  0.29913000  0.37170000  0.51824000  1
  O  O560  1  0.96243000  0.09839000  0.85375000  1
  O  O561  1  0.30917000  0.57358000  0.50448000  1
  O  O562  1  0.00624000  0.04019000  0.80473000  1
  O  O563  1  0.18263000  0.01824000  0.62830000  1
  O  O564  1  0.31483000  0.08180000  0.49074000  1
  O  O565  1  0.32254000  0.86257000  0.45035000  1
  O  O566  1  0.40194000  0.60183000  0.36949000  1
  O  O567  1  0.88837000  0.57598000  0.88148000  1
  O  O568  1  0.13763000  0.90776000  0.59758000  1
  O  O569  1  0.15246000  0.40434000  0.56514000  1
  O  O570  1  0.82917000  0.48176000  0.87170000  1
  O  O571  1  0.60823000  0.86320000  0.08634000  1
  O  O572  1  0.61725000  0.49552000  0.07358000  1
  O  O573  1  0.65053000  0.80374000  0.03940000  1
  O  O574  1  0.10337000  0.50926000  0.58180000  1
  O  O575  1  0.63546000  0.63743000  0.04965000  1
  O  O576  1  0.31489000  0.54965000  0.36257000  1
  O  O577  1  0.23015000  0.38148000  0.42402000  1
  O  O578  1  0.95427000  0.03940000  0.69626000  1
  O  O579  1  0.73521000  0.90242000  0.90776000  1
  O  O580  1  0.77289000  0.04965000  0.86257000  1
  O  O581  1  0.09036000  0.95198000  0.54070000  1
  O  O582  1  0.22857000  0.86949000  0.39817000  1
  O  O583  1  0.61277000  0.07358000  0.00448000  1
  O  O584  1  0.18635000  0.00448000  0.42642000  1
  O  O585  1  0.48647000  0.47780000  0.12586000  1
  O  O586  1  0.97143000  0.08634000  0.63680000  1
  O  O587  1  0.49623000  0.63051000  0.10183000  1
  O  O588  1  0.11641000  0.43475000  0.46763000  1
  O  O589  1  0.63106000  0.95930000  0.95198000  1
  O  O590  1  0.94569000  0.53296000  0.62326000  1
  O  O591  1  0.91457000  0.40161000  0.64625000  1
  O  O592  1  0.69457000  0.41366000  0.86320000  1
  O  O593  1  0.85116000  0.45981000  0.69527000  1
  O  O594  1  0.64297000  0.59224000  0.90242000  1
  O  O595  1  0.58304000  0.54802000  0.95930000  1
  O  O596  1  0.90987000  0.97780000  0.62586000  1
  O  O597  1  0.53573000  0.87414000  0.97780000  1
  O  O598  1  0.31007000  0.53940000  0.19626000  1
  O  O599  1  0.37326000  0.89817000  0.13051000  1
  O  O600  1  0.62674000  0.10183000  0.86949000  1
  O  O601  1  0.68993000  0.46060000  0.80374000  1
  O  O602  1  0.46427000  0.12586000  0.02220000  1
  O  O603  1  0.09013000  0.02220000  0.37414000  1
  O  O604  1  0.41696000  0.45198000  0.04070000  1
  O  O605  1  0.35703000  0.40776000  0.09758000  1
  O  O606  1  0.14884000  0.54019000  0.30473000  1
  O  O607  1  0.30543000  0.58634000  0.13680000  1
  O  O608  1  0.08543000  0.59839000  0.35375000  1
  O  O609  1  0.05431000  0.46704000  0.37674000  1
  O  O610  1  0.36894000  0.04070000  0.04802000  1
  O  O611  1  0.88359000  0.56525000  0.53237000  1
  O  O612  1  0.50377000  0.36949000  0.89817000  1
  O  O613  1  0.02857000  0.91366000  0.36320000  1
  O  O614  1  0.51353000  0.52220000  0.87414000  1
  O  O615  1  0.81365000  0.99552000  0.57358000  1
  O  O616  1  0.38723000  0.92642000  0.99552000  1
  O  O617  1  0.77143000  0.13051000  0.60183000  1
  O  O618  1  0.90964000  0.04802000  0.45930000  1
  O  O619  1  0.22711000  0.95035000  0.13743000  1
  O  O620  1  0.26479000  0.09758000  0.09224000  1
  O  O621  1  0.04573000  0.96060000  0.30374000  1
  O  O622  1  0.76985000  0.61852000  0.57598000  1
  O  O623  1  0.68511000  0.45035000  0.63743000  1
  O  O624  1  0.36454000  0.36257000  0.95035000  1
  O  O625  1  0.89663000  0.49074000  0.41820000  1
  O  O626  1  0.34947000  0.19626000  0.96060000  1
  O  O627  1  0.38275000  0.50448000  0.92642000  1
  O  O628  1  0.39177000  0.13680000  0.91366000  1
  O  O629  1  0.17083000  0.51824000  0.12830000  1
  O  O630  1  0.84754000  0.59566000  0.43486000  1
  O  O631  1  0.86237000  0.09224000  0.40242000  1
  O  O632  1  0.11163000  0.42402000  0.11852000  1
  O  O633  1  0.59806000  0.39817000  0.63051000  1
  O  O634  1  0.67746000  0.13743000  0.54965000  1
  O  O635  1  0.68517000  0.91820000  0.50926000  1
  O  O636  1  0.81737000  0.98176000  0.37170000  1
  O  O637  1  0.99376000  0.95981000  0.19527000  1
  O  O638  1  0.69083000  0.42642000  0.49552000  1
  O  O639  1  0.03757000  0.90161000  0.14625000  1
  O  O640  1  0.70087000  0.62830000  0.48176000  1
  O  O641  1  0.18907000  0.12830000  0.98176000  1
  O  O642  1  0.05680000  0.56514000  0.09566000  1
  O  O643  1  0.18903000  0.30473000  0.95981000  1
  O  O644  1  0.54539000  0.59758000  0.59224000  1
  O  O645  1  0.71760000  0.93486000  0.40434000  1
  O  O646  1  0.05116000  0.46763000  0.06525000  1
  O  O647  1  0.19443000  0.99074000  0.91820000  1
  O  O648  1  0.03565000  0.11852000  0.07598000  1
  O  O649  1  0.11263000  0.58180000  0.99074000  1
  O  O650  1  0.56895000  0.87674000  0.53296000  1
  O  O651  1  0.54234000  0.54070000  0.54802000  1
  O  O652  1  0.61233000  0.37414000  0.47780000  1
  O  O653  1  0.18382000  0.35375000  0.90161000  1
  O  O654  1  0.12194000  0.09566000  0.93486000  1
  O  O655  1  0.02135000  0.37674000  0.03296000  1
  O  O656  1  0.01879000  0.06525000  0.03237000  1
  O  O657  1  0.50633000  0.30374000  0.53940000  1
  O  O658  1  0.43918000  0.14625000  0.59839000  1
  O  O659  1  0.65417000  0.07598000  0.38148000  1
  O  O660  1  0.44223000  0.36320000  0.58634000  1
  O  O661  1  0.89809000  0.03296000  0.12326000  1
  O  O662  1  0.58404000  0.03237000  0.43475000  1
  O  O663  1  0.54643000  0.80473000  0.45981000  1
