# generated using pymatgen
data_Mg3H33C57N3O13
_symmetry_space_group_name_H-M   'P 1'
_cell_length_a   18.88320000
_cell_length_b   18.88320000
_cell_length_c   18.88320000
_cell_angle_alpha   62.09840000
_cell_angle_beta   62.09840000
_cell_angle_gamma   62.09840000
_symmetry_Int_Tables_number   1
_chemical_formula_structural   Mg3H33C57N3O13
_chemical_formula_sum   'Mg6 H66 C114 N6 O26'
_cell_volume   4984.45898225
_cell_formula_units_Z   2
loop_
 _symmetry_equiv_pos_site_id
 _symmetry_equiv_pos_as_xyz
  1  'x, y, z'
loop_
 _atom_site_type_symbol
 _atom_site_label
 _atom_site_symmetry_multiplicity
 _atom_site_fract_x
 _atom_site_fract_y
 _atom_site_fract_z
 _atom_site_occupancy
  Mg  Mg0  1  0.75000000  0.85174000  0.64826000  1
  Mg  Mg1  1  0.64826000  0.75000000  0.85174000  1
  Mg  Mg2  1  0.85174000  0.64826000  0.75000000  1
  Mg  Mg3  1  0.14826000  0.35174000  0.25000000  1
  Mg  Mg4  1  0.35174000  0.25000000  0.14826000  1
  Mg  Mg5  1  0.25000000  0.14826000  0.35174000  1
  H  H6  1  0.03530000  0.99710000  0.56780000  1
  H  H7  1  0.84070000  0.98810000  0.53290000  1
  H  H8  1  0.65930000  0.96710000  0.51190000  1
  H  H9  1  0.43220000  0.96470000  0.00290000  1
  H  H10  1  0.92790000  0.94640000  0.60620000  1
  H  H11  1  0.46470000  0.93220000  0.50290000  1
  H  H12  1  0.60620000  0.92790000  0.94640000  1
  H  H13  1  0.31950000  0.91850000  0.28870000  1
  H  H14  1  0.57210000  0.89380000  0.55360000  1
  H  H15  1  0.31190000  0.86020000  0.73520000  1
  H  H16  1  0.25000000  0.84265000  0.65735000  1
  H  H17  1  0.53290000  0.84070000  0.98810000  1
  H  H18  1  0.41850000  0.81950000  0.78870000  1
  H  H19  1  0.36020000  0.81190000  0.23520000  1
  H  H20  1  0.81950000  0.78870000  0.41850000  1
  H  H21  1  0.18810000  0.76480000  0.63980000  1
  H  H22  1  0.34265000  0.75000000  0.15735000  1
  H  H23  1  0.86020000  0.73520000  0.31190000  1
  H  H24  1  0.08150000  0.71130000  0.68050000  1
  H  H25  1  0.26480000  0.68810000  0.13980000  1
  H  H26  1  0.71130000  0.68050000  0.08150000  1
  H  H27  1  0.51190000  0.65930000  0.96710000  1
  H  H28  1  0.84265000  0.65735000  0.25000000  1
  H  H29  1  0.76480000  0.63980000  0.18810000  1
  H  H30  1  0.94640000  0.60620000  0.92790000  1
  H  H31  1  0.21130000  0.58150000  0.18050000  1
  H  H32  1  0.55360000  0.57210000  0.89380000  1
  H  H33  1  0.99710000  0.56780000  0.03530000  1
  H  H34  1  0.89380000  0.55360000  0.57210000  1
  H  H35  1  0.49710000  0.53530000  0.06780000  1
  H  H36  1  0.98810000  0.53290000  0.84070000  1
  H  H37  1  0.96710000  0.51190000  0.65930000  1
  H  H38  1  0.93220000  0.50290000  0.46470000  1
  H  H39  1  0.06780000  0.49710000  0.53530000  1
  H  H40  1  0.03290000  0.48810000  0.34070000  1
  H  H41  1  0.01190000  0.46710000  0.15930000  1
  H  H42  1  0.50290000  0.46470000  0.93220000  1
  H  H43  1  0.10620000  0.44640000  0.42790000  1
  H  H44  1  0.00290000  0.43220000  0.96470000  1
  H  H45  1  0.44640000  0.42790000  0.10620000  1
  H  H46  1  0.78870000  0.41850000  0.81950000  1
  H  H47  1  0.05360000  0.39380000  0.07210000  1
  H  H48  1  0.23520000  0.36020000  0.81190000  1
  H  H49  1  0.15735000  0.34265000  0.75000000  1
  H  H50  1  0.48810000  0.34070000  0.03290000  1
  H  H51  1  0.28870000  0.31950000  0.91850000  1
  H  H52  1  0.73520000  0.31190000  0.86020000  1
  H  H53  1  0.91850000  0.28870000  0.31950000  1
  H  H54  1  0.13980000  0.26480000  0.68810000  1
  H  H55  1  0.65735000  0.25000000  0.84265000  1
  H  H56  1  0.81190000  0.23520000  0.36020000  1
  H  H57  1  0.18050000  0.21130000  0.58150000  1
  H  H58  1  0.63980000  0.18810000  0.76480000  1
  H  H59  1  0.58150000  0.18050000  0.21130000  1
  H  H60  1  0.46710000  0.15930000  0.01190000  1
  H  H61  1  0.75000000  0.15735000  0.34265000  1
  H  H62  1  0.68810000  0.13980000  0.26480000  1
  H  H63  1  0.42790000  0.10620000  0.44640000  1
  H  H64  1  0.68050000  0.08150000  0.71130000  1
  H  H65  1  0.39380000  0.07210000  0.05360000  1
  H  H66  1  0.53530000  0.06780000  0.49710000  1
  H  H67  1  0.07210000  0.05360000  0.39380000  1
  H  H68  1  0.56780000  0.03530000  0.99710000  1
  H  H69  1  0.34070000  0.03290000  0.48810000  1
  H  H70  1  0.15930000  0.01190000  0.46710000  1
  H  H71  1  0.96470000  0.00290000  0.43220000  1
  C  C72  1  0.69587000  0.99678000  0.49317000  1
  C  C73  1  0.64827000  0.99329000  0.82133000  1
  C  C74  1  0.19587000  0.99317000  0.49678000  1
  C  C75  1  0.61342000  0.97976000  0.90898000  1
  C  C76  1  0.40995000  0.95514000  0.06096000  1
  C  C77  1  0.04486000  0.93904000  0.59005000  1
  C  C78  1  0.34268000  0.92888000  0.23048000  1
  C  C79  1  0.31048000  0.92826000  0.57694000  1
  C  C80  1  0.66287000  0.92764000  0.78817000  1
  C  C81  1  0.18952000  0.92306000  0.57174000  1
  C  C82  1  0.45514000  0.90995000  0.56096000  1
  C  C83  1  0.97976000  0.90898000  0.61342000  1
  C  C84  1  0.37576000  0.90108000  0.61534000  1
  C  C85  1  0.25000000  0.89035000  0.60965000  1
  C  C86  1  0.52024000  0.88658000  0.59102000  1
  C  C87  1  0.12424000  0.88466000  0.59892000  1
  C  C88  1  0.40108000  0.87576000  0.11534000  1
  C  C89  1  0.36386000  0.86746000  0.69806000  1
  C  C90  1  0.36746000  0.86386000  0.19806000  1
  C  C91  1  0.50671000  0.85173000  0.67867000  1
  C  C92  1  0.42888000  0.84268000  0.73048000  1
  C  C93  1  0.57236000  0.83713000  0.71183000  1
  C  C94  1  0.99329000  0.82133000  0.64827000  1
  C  C95  1  0.42826000  0.81048000  0.07694000  1
  C  C96  1  0.50322000  0.80413000  0.00683000  1
  C  C97  1  0.13614000  0.80194000  0.63254000  1
  C  C98  1  0.92764000  0.78817000  0.66287000  1
  C  C99  1  0.07112000  0.76952000  0.65732000  1
  C  C100  1  0.39035000  0.75000000  0.10965000  1
  C  C101  1  0.84268000  0.73048000  0.42888000  1
  C  C102  1  0.83713000  0.71183000  0.57236000  1
  C  C103  1  0.86746000  0.69806000  0.36386000  1
  C  C104  1  0.49317000  0.69587000  0.99678000  1
  C  C105  1  0.42306000  0.68952000  0.07174000  1
  C  C106  1  0.85173000  0.67867000  0.50671000  1
  C  C107  1  0.78817000  0.66287000  0.92764000  1
  C  C108  1  0.76952000  0.65732000  0.07112000  1
  C  C109  1  0.82133000  0.64827000  0.99329000  1
  C  C110  1  0.30194000  0.63614000  0.13254000  1
  C  C111  1  0.80194000  0.63254000  0.13614000  1
  C  C112  1  0.38466000  0.62424000  0.09892000  1
  C  C113  1  0.90108000  0.61534000  0.37576000  1
  C  C114  1  0.90898000  0.61342000  0.97976000  1
  C  C115  1  0.89035000  0.60965000  0.25000000  1
  C  C116  1  0.88466000  0.59892000  0.12424000  1
  C  C117  1  0.88658000  0.59102000  0.52024000  1
  C  C118  1  0.93904000  0.59005000  0.04486000  1
  C  C119  1  0.92826000  0.57694000  0.31048000  1
  C  C120  1  0.71183000  0.57236000  0.83713000  1
  C  C121  1  0.92306000  0.57174000  0.18952000  1
  C  C122  1  0.26952000  0.57112000  0.15732000  1
  C  C123  1  0.90995000  0.56096000  0.45514000  1
  C  C124  1  0.43904000  0.54486000  0.09005000  1
  C  C125  1  0.59102000  0.52024000  0.88658000  1
  C  C126  1  0.00322000  0.50683000  0.30413000  1
  C  C127  1  0.67867000  0.50671000  0.85173000  1
  C  C128  1  0.00683000  0.50322000  0.80413000  1
  C  C129  1  0.99317000  0.49678000  0.19587000  1
  C  C130  1  0.32133000  0.49329000  0.14827000  1
  C  C131  1  0.99678000  0.49317000  0.69587000  1
  C  C132  1  0.40898000  0.47976000  0.11342000  1
  C  C133  1  0.56096000  0.45514000  0.90995000  1
  C  C134  1  0.09005000  0.43904000  0.54486000  1
  C  C135  1  0.73048000  0.42888000  0.84268000  1
  C  C136  1  0.07694000  0.42826000  0.81048000  1
  C  C137  1  0.28817000  0.42764000  0.16287000  1
  C  C138  1  0.07174000  0.42306000  0.68952000  1
  C  C139  1  0.06096000  0.40995000  0.95514000  1
  C  C140  1  0.11342000  0.40898000  0.47976000  1
  C  C141  1  0.11534000  0.40108000  0.87576000  1
  C  C142  1  0.10965000  0.39035000  0.75000000  1
  C  C143  1  0.09102000  0.38658000  0.02024000  1
  C  C144  1  0.09892000  0.38466000  0.62424000  1
  C  C145  1  0.61534000  0.37576000  0.90108000  1
  C  C146  1  0.19806000  0.36746000  0.86386000  1
  C  C147  1  0.69806000  0.36386000  0.86746000  1
  C  C148  1  0.17867000  0.35173000  0.00671000  1
  C  C149  1  0.23048000  0.34268000  0.92888000  1
  C  C150  1  0.21183000  0.33713000  0.07236000  1
  C  C151  1  0.14827000  0.32133000  0.49329000  1
  C  C152  1  0.57694000  0.31048000  0.92826000  1
  C  C153  1  0.50683000  0.30413000  0.00322000  1
  C  C154  1  0.13254000  0.30194000  0.63614000  1
  C  C155  1  0.16287000  0.28817000  0.42764000  1
  C  C156  1  0.15732000  0.26952000  0.57112000  1
  C  C157  1  0.60965000  0.25000000  0.89035000  1
  C  C158  1  0.92888000  0.23048000  0.34268000  1
  C  C159  1  0.07236000  0.21183000  0.33713000  1
  C  C160  1  0.86386000  0.19806000  0.36746000  1
  C  C161  1  0.49678000  0.19587000  0.99317000  1
  C  C162  1  0.57174000  0.18952000  0.92306000  1
  C  C163  1  0.00671000  0.17867000  0.35173000  1
  C  C164  1  0.42764000  0.16287000  0.28817000  1
  C  C165  1  0.57112000  0.15732000  0.26952000  1
  C  C166  1  0.49329000  0.14827000  0.32133000  1
  C  C167  1  0.63254000  0.13614000  0.80194000  1
  C  C168  1  0.63614000  0.13254000  0.30194000  1
  C  C169  1  0.59892000  0.12424000  0.88466000  1
  C  C170  1  0.87576000  0.11534000  0.40108000  1
  C  C171  1  0.47976000  0.11342000  0.40898000  1
  C  C172  1  0.75000000  0.10965000  0.39035000  1
  C  C173  1  0.62424000  0.09892000  0.38466000  1
  C  C174  1  0.02024000  0.09102000  0.38658000  1
  C  C175  1  0.54486000  0.09005000  0.43904000  1
  C  C176  1  0.81048000  0.07694000  0.42826000  1
  C  C177  1  0.33713000  0.07236000  0.21183000  1
  C  C178  1  0.68952000  0.07174000  0.42306000  1
  C  C179  1  0.65732000  0.07112000  0.76952000  1
  C  C180  1  0.95514000  0.06096000  0.40995000  1
  C  C181  1  0.59005000  0.04486000  0.93904000  1
  C  C182  1  0.38658000  0.02024000  0.09102000  1
  C  C183  1  0.80413000  0.00683000  0.50322000  1
  C  C184  1  0.35173000  0.00671000  0.17867000  1
  C  C185  1  0.30413000  0.00322000  0.50683000  1
  N  N186  1  0.75000000  0.96657000  0.53343000  1
  N  N187  1  0.53343000  0.75000000  0.96657000  1
  N  N188  1  0.96657000  0.53343000  0.75000000  1
  N  N189  1  0.03343000  0.46657000  0.25000000  1
  N  N190  1  0.46657000  0.25000000  0.03343000  1
  N  N191  1  0.25000000  0.03343000  0.46657000  1
  O  O192  1  0.71076000  0.93283000  0.71328000  1
  O  O193  1  0.62913000  0.87177000  0.83797000  1
  O  O194  1  0.62823000  0.87087000  0.66203000  1
  O  O195  1  0.87177000  0.83797000  0.62913000  1
  O  O196  1  0.56717000  0.78924000  0.78672000  1
  O  O197  1  0.78924000  0.78672000  0.56717000  1
  O  O198  1  0.75000000  0.75000000  0.75000000  1
  O  O199  1  0.93283000  0.71328000  0.71076000  1
  O  O200  1  0.71328000  0.71076000  0.93283000  1
  O  O201  1  0.87087000  0.66203000  0.62823000  1
  O  O202  1  0.83797000  0.62913000  0.87177000  1
  O  O203  1  0.66203000  0.62823000  0.87087000  1
  O  O204  1  0.78672000  0.56717000  0.78924000  1
  O  O205  1  0.21328000  0.43283000  0.21076000  1
  O  O206  1  0.33797000  0.37177000  0.12913000  1
  O  O207  1  0.16203000  0.37087000  0.12823000  1
  O  O208  1  0.12913000  0.33797000  0.37177000  1
  O  O209  1  0.28672000  0.28924000  0.06717000  1
  O  O210  1  0.06717000  0.28672000  0.28924000  1
  O  O211  1  0.25000000  0.25000000  0.25000000  1
  O  O212  1  0.21076000  0.21328000  0.43283000  1
  O  O213  1  0.43283000  0.21076000  0.21328000  1
  O  O214  1  0.12823000  0.16203000  0.37087000  1
  O  O215  1  0.37177000  0.12913000  0.33797000  1
  O  O216  1  0.37087000  0.12823000  0.16203000  1
  O  O217  1  0.28924000  0.06717000  0.28672000  1
