# generated using pymatgen
data_Zn3H24C42(NO6)2
_symmetry_space_group_name_H-M   'P 1'
_cell_length_a   14.81120000
_cell_length_b   14.81120000
_cell_length_c   16.55890000
_cell_angle_alpha   102.82600000
_cell_angle_beta   102.82600000
_cell_angle_gamma   115.99400000
_symmetry_Int_Tables_number   1
_chemical_formula_structural   Zn3H24C42(NO6)2
_chemical_formula_sum   'Zn6 H48 C84 N4 O24'
_cell_volume   2964.83254233
_cell_formula_units_Z   2
loop_
 _symmetry_equiv_pos_site_id
 _symmetry_equiv_pos_as_xyz
  1  'x, y, z'
loop_
 _atom_site_type_symbol
 _atom_site_label
 _atom_site_symmetry_multiplicity
 _atom_site_fract_x
 _atom_site_fract_y
 _atom_site_fract_z
 _atom_site_occupancy
  Zn  Zn0  1  0.56562000  0.95278000  0.06381000  1
  Zn  Zn1  1  0.17070000  0.82930000  0.75000000  1
  Zn  Zn2  1  0.95278000  0.56562000  0.56381000  1
  Zn  Zn3  1  0.04722000  0.43438000  0.43619000  1
  Zn  Zn4  1  0.82930000  0.17070000  0.25000000  1
  Zn  Zn5  1  0.43438000  0.04722000  0.93619000  1
  H  H6  1  0.20630000  0.99730000  0.51190000  1
  H  H7  1  0.04500000  0.99520000  0.83590000  1
  H  H8  1  0.09190000  0.95970000  0.34900000  1
  H  H9  1  0.00480000  0.95500000  0.66410000  1
  H  H10  1  0.69490000  0.93910000  0.75440000  1
  H  H11  1  0.50750000  0.92270000  0.52890000  1
  H  H12  1  0.56200000  0.91420000  0.81270000  1
  H  H13  1  0.04030000  0.90810000  0.15100000  1
  H  H14  1  0.37230000  0.89470000  0.58700000  1
  H  H15  1  0.16370000  0.87710000  0.96610000  1
  H  H16  1  0.29930000  0.86190000  0.33430000  1
  H  H17  1  0.12290000  0.83630000  0.53390000  1
  H  H18  1  0.00270000  0.79370000  0.98810000  1
  H  H19  1  0.29560000  0.77780000  0.13830000  1
  H  H20  1  0.63450000  0.75710000  0.57960000  1
  H  H21  1  0.67360000  0.73340000  0.09540000  1
  H  H22  1  0.22220000  0.70440000  0.36170000  1
  H  H23  1  0.13810000  0.70070000  0.16570000  1
  H  H24  1  0.93910000  0.69490000  0.25440000  1
  H  H25  1  0.73340000  0.67360000  0.59540000  1
  H  H26  1  0.75710000  0.63450000  0.07960000  1
  H  H27  1  0.10530000  0.62770000  0.91300000  1
  H  H28  1  0.91420000  0.56200000  0.31270000  1
  H  H29  1  0.92270000  0.50750000  0.02890000  1
  H  H30  1  0.07730000  0.49250000  0.97110000  1
  H  H31  1  0.08580000  0.43800000  0.68730000  1
  H  H32  1  0.89470000  0.37230000  0.08700000  1
  H  H33  1  0.24290000  0.36550000  0.92040000  1
  H  H34  1  0.26660000  0.32640000  0.40460000  1
  H  H35  1  0.06090000  0.30510000  0.74560000  1
  H  H36  1  0.86190000  0.29930000  0.83430000  1
  H  H37  1  0.77780000  0.29560000  0.63830000  1
  H  H38  1  0.32640000  0.26660000  0.90460000  1
  H  H39  1  0.36550000  0.24290000  0.42040000  1
  H  H40  1  0.70440000  0.22220000  0.86170000  1
  H  H41  1  0.99730000  0.20630000  0.01190000  1
  H  H42  1  0.87710000  0.16370000  0.46610000  1
  H  H43  1  0.70070000  0.13810000  0.66570000  1
  H  H44  1  0.83630000  0.12290000  0.03390000  1
  H  H45  1  0.62770000  0.10530000  0.41300000  1
  H  H46  1  0.95970000  0.09190000  0.84900000  1
  H  H47  1  0.43800000  0.08580000  0.18730000  1
  H  H48  1  0.49250000  0.07730000  0.47110000  1
  H  H49  1  0.30510000  0.06090000  0.24560000  1
  H  H50  1  0.99520000  0.04500000  0.33590000  1
  H  H51  1  0.90810000  0.04030000  0.65100000  1
  H  H52  1  0.95500000  0.00480000  0.16410000  1
  H  H53  1  0.79370000  0.00270000  0.48810000  1
  C  C54  1  0.87230000  0.96650000  0.63890000  1
  C  C55  1  0.75298000  0.94562000  0.13810000  1
  C  C56  1  0.25821000  0.94479000  0.41770000  1
  C  C57  1  0.20726000  0.93774000  0.48010000  1
  C  C58  1  0.61529000  0.93551000  0.63610000  1
  C  C59  1  0.63073000  0.93147000  0.72110000  1
  C  C60  1  0.91518000  0.93022000  0.14710000  1
  C  C61  1  0.51854000  0.92126000  0.58600000  1
  C  C62  1  0.55097000  0.91603000  0.75570000  1
  C  C63  1  0.93022000  0.91518000  0.64710000  1
  C  C64  1  0.76010000  0.90810000  0.61240000  1
  C  C65  1  0.43736000  0.90464000  0.62090000  1
  C  C66  1  0.45391000  0.90309000  0.70620000  1
  C  C67  1  0.35040000  0.89320000  0.03750000  1
  C  C68  1  0.36843000  0.88977000  0.74560000  1
  C  C69  1  0.80504000  0.87936000  0.13040000  1
  C  C70  1  0.96650000  0.87230000  0.13890000  1
  C  C71  1  0.26385000  0.85715000  0.37440000  1
  C  C72  1  0.15850000  0.84150000  0.49390000  1
  C  C73  1  0.15850000  0.84150000  0.00610000  1
  C  C74  1  0.24720000  0.83800000  0.05110000  1
  C  C75  1  0.87936000  0.80504000  0.63040000  1
  C  C76  1  0.70901000  0.79719000  0.59650000  1
  C  C77  1  0.06226000  0.79274000  0.01990000  1
  C  C78  1  0.23770000  0.78310000  0.10960000  1
  C  C79  1  0.74703000  0.76837000  0.10580000  1
  C  C80  1  0.21690000  0.76230000  0.39040000  1
  C  C81  1  0.90810000  0.76010000  0.11240000  1
  C  C82  1  0.94562000  0.75298000  0.63810000  1
  C  C83  1  0.16200000  0.75280000  0.44890000  1
  C  C84  1  0.76837000  0.74703000  0.60580000  1
  C  C85  1  0.05521000  0.74179000  0.08230000  1
  C  C86  1  0.14285000  0.73615000  0.12560000  1
  C  C87  1  0.79719000  0.70901000  0.09650000  1
  C  C88  1  0.10680000  0.64960000  0.46250000  1
  C  C89  1  0.11023000  0.63157000  0.75440000  1
  C  C90  1  0.93147000  0.63073000  0.22110000  1
  C  C91  1  0.93551000  0.61529000  0.13610000  1
  C  C92  1  0.09536000  0.56264000  0.87910000  1
  C  C93  1  0.91603000  0.55097000  0.25570000  1
  C  C94  1  0.09691000  0.54609000  0.79380000  1
  C  C95  1  0.92126000  0.51854000  0.08600000  1
  C  C96  1  0.07874000  0.48146000  0.91400000  1
  C  C97  1  0.90309000  0.45391000  0.20620000  1
  C  C98  1  0.08397000  0.44903000  0.74430000  1
  C  C99  1  0.90464000  0.43736000  0.12090000  1
  C  C100  1  0.06449000  0.38471000  0.86390000  1
  C  C101  1  0.06853000  0.36927000  0.77890000  1
  C  C102  1  0.88977000  0.36843000  0.24560000  1
  C  C103  1  0.89320000  0.35040000  0.53750000  1
  C  C104  1  0.20281000  0.29099000  0.90350000  1
  C  C105  1  0.85715000  0.26385000  0.87440000  1
  C  C106  1  0.94479000  0.25821000  0.91770000  1
  C  C107  1  0.23163000  0.25297000  0.39420000  1
  C  C108  1  0.83800000  0.24720000  0.55110000  1
  C  C109  1  0.05438000  0.24702000  0.36190000  1
  C  C110  1  0.09190000  0.23990000  0.88760000  1
  C  C111  1  0.78310000  0.23770000  0.60960000  1
  C  C112  1  0.25297000  0.23163000  0.89420000  1
  C  C113  1  0.76230000  0.21690000  0.89040000  1
  C  C114  1  0.93774000  0.20726000  0.98010000  1
  C  C115  1  0.29099000  0.20281000  0.40350000  1
  C  C116  1  0.12064000  0.19496000  0.36960000  1
  C  C117  1  0.75280000  0.16200000  0.94890000  1
  C  C118  1  0.84150000  0.15850000  0.99390000  1
  C  C119  1  0.84150000  0.15850000  0.50610000  1
  C  C120  1  0.73615000  0.14285000  0.62560000  1
  C  C121  1  0.03350000  0.12770000  0.86110000  1
  C  C122  1  0.19496000  0.12064000  0.86960000  1
  C  C123  1  0.63157000  0.11023000  0.25440000  1
  C  C124  1  0.64960000  0.10680000  0.96250000  1
  C  C125  1  0.54609000  0.09691000  0.29380000  1
  C  C126  1  0.56264000  0.09536000  0.37910000  1
  C  C127  1  0.23990000  0.09190000  0.38760000  1
  C  C128  1  0.06978000  0.08482000  0.35290000  1
  C  C129  1  0.44903000  0.08397000  0.24430000  1
  C  C130  1  0.48146000  0.07874000  0.41400000  1
  C  C131  1  0.08482000  0.06978000  0.85290000  1
  C  C132  1  0.36927000  0.06853000  0.27890000  1
  C  C133  1  0.38471000  0.06449000  0.36390000  1
  C  C134  1  0.79274000  0.06226000  0.51990000  1
  C  C135  1  0.74179000  0.05521000  0.58230000  1
  C  C136  1  0.24702000  0.05438000  0.86190000  1
  C  C137  1  0.12770000  0.03350000  0.36110000  1
  N  N138  1  0.69970000  0.95890000  0.60140000  1
  N  N139  1  0.95890000  0.69970000  0.10140000  1
  N  N140  1  0.04110000  0.30030000  0.89860000  1
  N  N141  1  0.30030000  0.04110000  0.39860000  1
  O  O142  1  0.18774000  0.95446000  0.83940000  1
  O  O143  1  0.35780000  0.95280000  0.99290000  1
  O  O144  1  0.39006000  0.90554000  0.82710000  1
  O  O145  1  0.65178000  0.89742000  0.12000000  1
  O  O146  1  0.42500000  0.87980000  0.07380000  1
  O  O147  1  0.27765000  0.86195000  0.69350000  1
  O  O148  1  0.04554000  0.81226000  0.66060000  1
  O  O149  1  0.13805000  0.72235000  0.80650000  1
  O  O150  1  0.89742000  0.65178000  0.62000000  1
  O  O151  1  0.04720000  0.64220000  0.50710000  1
  O  O152  1  0.09446000  0.60994000  0.67290000  1
  O  O153  1  0.12020000  0.57500000  0.42620000  1
  O  O154  1  0.87980000  0.42500000  0.57380000  1
  O  O155  1  0.90554000  0.39006000  0.32710000  1
  O  O156  1  0.95280000  0.35780000  0.49290000  1
  O  O157  1  0.10258000  0.34822000  0.38000000  1
  O  O158  1  0.86195000  0.27765000  0.19350000  1
  O  O159  1  0.95446000  0.18774000  0.33940000  1
  O  O160  1  0.72235000  0.13805000  0.30650000  1
  O  O161  1  0.57500000  0.12020000  0.92620000  1
  O  O162  1  0.34822000  0.10258000  0.88000000  1
  O  O163  1  0.60994000  0.09446000  0.17290000  1
  O  O164  1  0.64220000  0.04720000  0.00710000  1
  O  O165  1  0.81226000  0.04554000  0.16060000  1
