# generated using pymatgen
data_CuH13C27O4
_symmetry_space_group_name_H-M   'P 1'
_cell_length_a   18.44910000
_cell_length_b   18.50265547
_cell_length_c   37.56953441
_cell_angle_alpha   78.04134996
_cell_angle_beta   75.78668196
_cell_angle_gamma   60.09570235
_symmetry_Int_Tables_number   1
_chemical_formula_structural   CuH13C27O4
_chemical_formula_sum   'Cu12 H156 C324 O48'
_cell_volume   10721.83428727
_cell_formula_units_Z   12
loop_
 _symmetry_equiv_pos_site_id
 _symmetry_equiv_pos_as_xyz
  1  'x, y, z'
loop_
 _atom_site_type_symbol
 _atom_site_label
 _atom_site_symmetry_multiplicity
 _atom_site_fract_x
 _atom_site_fract_y
 _atom_site_fract_z
 _atom_site_occupancy
  C  C0  1  0.80220000  0.50400000  0.50300000  1
  C  C1  1  0.69080000  0.00400000  0.00300000  1
  C  C2  1  0.76660000  0.45180000  0.45060000  1
  C  C3  1  0.83100000  0.95180000  0.95060000  1
  C  C4  1  0.91886000  0.51894000  0.51594000  1
  C  C5  1  0.54626000  0.01894000  0.01594000  1
  C  C6  1  0.82340000  0.54310000  0.52950000  1
  C  C7  1  0.60400000  0.04310000  0.02950000  1
  C  C8  1  0.49399000  0.02351000  0.96231000  1
  C  C9  1  0.02019000  0.52351000  0.46231000  1
  C  C10  1  0.93598000  0.54197000  0.47927000  1
  C  C11  1  0.54278000  0.04197000  0.97927000  1
  C  C12  1  0.23220000  0.05110000  0.98670000  1
  C  C13  1  0.23000000  0.55110000  0.48670000  1
  C  C14  1  0.81830000  0.53120000  0.46660000  1
  C  C15  1  0.68390000  0.03120000  0.96660000  1
  C  C16  1  0.16100000  0.07860000  0.01180000  1
  C  C17  1  0.24860000  0.57860000  0.51180000  1
  C  C18  1  0.79940000  0.50840000  0.43980000  1
  C  C19  1  0.75240000  0.00840000  0.93980000  1
  C  C20  1  0.77760000  0.63750000  0.52150000  1
  C  C21  1  0.56340000  0.13750000  0.02150000  1
  C  C22  1  0.84368000  0.35038000  0.22286000  1
  C  C23  1  0.08308000  0.85038000  0.72286000  1
  C  C24  1  0.48664000  0.05326000  0.92386000  1
  C  C25  1  0.03624000  0.55326000  0.42386000  1
  C  C26  1  0.27147000  0.84923000  0.71863000  1
  C  C27  1  0.66067000  0.34923000  0.21863000  1
  C  C28  1  0.85415000  0.59295000  0.46135000  1
  C  C29  1  0.59155000  0.09295000  0.96135000  1
  C  C30  1  0.71930000  0.69770000  0.54550000  1
  C  C31  1  0.53750000  0.19770000  0.04550000  1
  C  C32  1  0.79600000  0.66220000  0.48300000  1
  C  C33  1  0.55880000  0.16220000  0.98300000  1
  C  C34  1  0.48215000  0.07875000  0.89215000  1
  C  C35  1  0.04695000  0.57875000  0.39215000  1
  C  C36  1  0.58490000  0.67490000  0.47970000  1
  C  C37  1  0.76050000  0.17490000  0.97970000  1
  C  C38  1  0.30100000  0.20780000  0.00760000  1
  C  C39  1  0.98360000  0.70780000  0.50760000  1
  C  C40  1  0.30660000  0.90723000  0.69977000  1
  C  C41  1  0.58640000  0.40723000  0.19977000  1
  C  C42  1  0.87045000  0.41308000  0.20482000  1
  C  C43  1  0.01165000  0.91308000  0.70482000  1
  C  C44  1  0.22330000  0.23860000  0.03000000  1
  C  C45  1  0.00810000  0.73860000  0.53000000  1
  C  C46  1  0.92280000  0.23710000  0.02450000  1
  C  C47  1  0.31560000  0.73710000  0.52450000  1
  C  C48  1  0.96180000  0.25960000  0.04360000  1
  C  C49  1  0.23500000  0.75960000  0.54360000  1
  C  C50  1  0.52750000  0.73490000  0.50490000  1
  C  C51  1  0.73270000  0.23490000  0.00490000  1
  C  C52  1  0.35269000  0.89911000  0.66371000  1
  C  C53  1  0.58449000  0.39911000  0.16371000  1
  C  C54  1  0.91329000  0.40884000  0.16798000  1
  C  C55  1  0.00989000  0.90884000  0.66798000  1
  C  C56  1  0.68390000  0.78260000  0.53300000  1
  C  C57  1  0.50050000  0.28260000  0.03300000  1
  C  C58  1  0.31120000  0.21920000  0.96860000  1
  C  C59  1  0.00100000  0.71920000  0.46860000  1
  C  C60  1  0.28591000  0.97506000  0.71772000  1
  C  C61  1  0.52131000  0.47506000  0.21772000  1
  C  C62  1  0.85195000  0.48205000  0.22305000  1
  C  C63  1  0.94295000  0.98205000  0.72305000  1
  C  C64  1  0.48073000  0.11387000  0.85407000  1
  C  C65  1  0.05133000  0.61387000  0.35407000  1
  C  C66  1  0.59680000  0.70530000  0.44290000  1
  C  C67  1  0.75500000  0.20530000  0.94290000  1
  C  C68  1  0.92970000  0.24850000  0.98390000  1
  C  C69  1  0.33790000  0.74850000  0.48390000  1
  C  C70  1  0.15090000  0.28540000  0.01440000  1
  C  C71  1  0.04930000  0.78540000  0.51440000  1
  C  C72  1  0.75700000  0.74790000  0.47170000  1
  C  C73  1  0.52340000  0.24790000  0.97170000  1
  C  C74  1  0.01130000  0.29800000  0.02020000  1
  C  C75  1  0.17050000  0.79800000  0.52020000  1
  C  C76  1  0.06160000  0.32630000  0.03430000  1
  C  C77  1  0.07780000  0.82630000  0.53430000  1
  C  C78  1  0.41533000  0.13027000  0.83627000  1
  C  C79  1  0.11813000  0.63027000  0.33627000  1
  C  C80  1  0.98539000  0.63671000  0.33571000  1
  C  C81  1  0.54219000  0.13671000  0.83571000  1
  C  C82  1  0.24100000  0.26310000  0.95350000  1
  C  C83  1  0.04240000  0.76310000  0.45350000  1
  C  C84  1  0.70480000  0.80800000  0.49640000  1
  C  C85  1  0.49080000  0.30800000  0.99640000  1
  C  C86  1  0.37583000  0.96027000  0.64607000  1
  C  C87  1  0.51783000  0.46027000  0.14607000  1
  C  C88  1  0.97770000  0.28230000  0.96610000  1
  C  C89  1  0.27390000  0.78230000  0.46610000  1
  C  C90  1  0.15790000  0.29730000  0.97570000  1
  C  C91  1  0.06910000  0.79730000  0.47570000  1
  C  C92  1  0.48890000  0.81610000  0.49410000  1
  C  C93  1  0.70090000  0.31610000  0.99410000  1
  C  C94  1  0.93231000  0.47269000  0.14909000  1
  C  C95  1  0.94591000  0.97269000  0.64909000  1
  C  C96  1  0.01530000  0.30850000  0.98110000  1
  C  C97  1  0.19510000  0.80850000  0.48110000  1
  C  C98  1  0.30768000  0.03622000  0.70022000  1
  C  C99  1  0.45588000  0.53622000  0.20022000  1
  C  C100  1  0.86869000  0.54591000  0.20431000  1
  C  C101  1  0.88109000  0.04591000  0.70431000  1
  C  C102  1  0.41767000  0.95603000  0.60783000  1
  C  C103  1  0.51847000  0.45603000  0.10783000  1
  C  C104  1  0.55700000  0.78550000  0.43230000  1
  C  C105  1  0.72520000  0.28550000  0.93230000  1
  C  C106  1  0.96536000  0.47114000  0.11114000  1
  C  C107  1  0.95236000  0.97114000  0.61114000  1
  C  C108  1  0.35157000  0.03043000  0.66383000  1
  C  C109  1  0.45417000  0.53043000  0.16383000  1
  C  C110  1  0.41598000  0.16622000  0.79922000  1
  C  C111  1  0.11858000  0.66622000  0.29922000  1
  C  C112  1  0.91070000  0.53950000  0.16770000  1
  C  C113  1  0.88210000  0.03950000  0.66770000  1
  C  C114  1  0.98670000  0.67270000  0.29930000  1
  C  C115  1  0.54130000  0.17270000  0.79930000  1
  C  C116  1  0.42370000  0.89070000  0.51630000  1
  C  C117  1  0.66930000  0.39070000  0.01630000  1
  C  C118  1  0.50510000  0.84030000  0.45790000  1
  C  C119  1  0.69670000  0.34030000  0.95790000  1
  C  C120  1  0.44738000  0.96112000  0.57592000  1
  C  C121  1  0.51558000  0.46112000  0.07592000  1
  C  C122  1  0.07440000  0.35010000  0.96230000  1
  C  C123  1  0.11320000  0.85010000  0.46230000  1
  C  C124  1  0.27990000  0.11264000  0.71876000  1
  C  C125  1  0.38870000  0.61264000  0.21876000  1
  C  C126  1  0.98213000  0.47737000  0.07857000  1
  C  C127  1  0.96193000  0.97737000  0.57857000  1
  C  C128  1  0.02890000  0.41950000  0.01870000  1
  C  C129  1  0.03290000  0.91950000  0.51870000  1
  C  C130  1  0.83554000  0.62485000  0.22247000  1
  C  C131  1  0.81714000  0.12485000  0.72247000  1
  C  C132  1  0.48042000  0.18542000  0.78154000  1
  C  C133  1  0.05262000  0.68542000  0.28154000  1
  C  C134  1  0.34534000  0.18813000  0.78019000  1
  C  C135  1  0.18634000  0.68813000  0.28019000  1
  C  C136  1  0.20550000  0.46960000  0.04560000  1
  C  C137  1  0.77930000  0.96960000  0.54560000  1
  C  C138  1  0.90608000  0.70617000  0.28127000  1
  C  C139  1  0.60648000  0.20617000  0.78127000  1
  C  C140  1  0.70140000  0.98930000  0.56090000  1
  C  C141  1  0.24840000  0.48930000  0.06090000  1
  C  C142  1  0.47618000  0.97742000  0.53842000  1
  C  C143  1  0.50798000  0.47742000  0.03842000  1
  C  C144  1  0.46337000  0.95013000  0.50913000  1
  C  C145  1  0.57737000  0.45013000  0.00913000  1
  C  C146  1  0.34470000  0.93900000  0.49700000  1
  C  C147  1  0.71930000  0.43900000  0.99700000  1
  C  C148  1  0.76880000  0.45600000  0.01340000  1
  C  C149  1  0.26180000  0.95600000  0.51340000  1
  C  C150  1  0.99359000  0.48821000  0.03861000  1
  C  C151  1  0.97959000  0.98821000  0.53861000  1
  C  C152  1  0.03587000  0.43073000  0.97993000  1
  C  C153  1  0.05347000  0.93073000  0.47993000  1
  C  C154  1  0.46069000  0.93551000  0.44711000  1
  C  C155  1  0.65669000  0.43551000  0.94711000  1
  C  C156  1  0.19450000  0.49710000  0.00850000  1
  C  C157  1  0.79990000  0.99710000  0.50850000  1
  C  C158  1  0.48275000  0.97175000  0.47395000  1
  C  C159  1  0.57155000  0.47175000  0.97395000  1
  C  C160  1  0.63500000  0.03770000  0.53930000  1
  C  C161  1  0.28800000  0.53770000  0.03930000  1
  C  C162  1  0.36500000  0.96230000  0.46070000  1
  C  C163  1  0.71200000  0.46230000  0.96070000  1
  C  C164  1  0.51725000  0.02825000  0.52605000  1
  C  C165  1  0.42845000  0.52825000  0.02605000  1
  C  C166  1  0.80550000  0.50290000  0.99150000  1
  C  C167  1  0.20010000  0.00290000  0.49150000  1
  C  C168  1  0.53931000  0.06449000  0.55289000  1
  C  C169  1  0.34331000  0.56449000  0.05289000  1
  C  C170  1  0.96413000  0.56927000  0.02007000  1
  C  C171  1  0.94653000  0.06927000  0.52007000  1
  C  C172  1  0.00641000  0.51179000  0.96139000  1
  C  C173  1  0.02041000  0.01179000  0.46139000  1
  C  C174  1  0.23120000  0.54400000  0.98660000  1
  C  C175  1  0.73820000  0.04400000  0.48660000  1
  C  C176  1  0.65530000  0.06100000  0.50300000  1
  C  C177  1  0.28070000  0.56100000  0.00300000  1
  C  C178  1  0.53663000  0.04987000  0.49087000  1
  C  C179  1  0.42263000  0.54987000  0.99087000  1
  C  C180  1  0.52382000  0.02258000  0.46158000  1
  C  C181  1  0.49202000  0.52258000  0.96158000  1
  C  C182  1  0.29860000  0.01070000  0.43910000  1
  C  C183  1  0.75160000  0.51070000  0.93910000  1
  C  C184  1  0.09392000  0.29383000  0.71873000  1
  C  C185  1  0.39352000  0.79383000  0.21873000  1
  C  C186  1  0.79450000  0.53040000  0.95440000  1
  C  C187  1  0.22070000  0.03040000  0.45440000  1
  C  C188  1  0.65466000  0.81187000  0.21981000  1
  C  C189  1  0.81366000  0.31187000  0.71981000  1
  C  C190  1  0.51958000  0.81458000  0.21846000  1
  C  C191  1  0.94738000  0.31458000  0.71846000  1
  C  C192  1  0.16446000  0.37515000  0.77753000  1
  C  C193  1  0.18286000  0.87515000  0.27753000  1
  C  C194  1  0.97110000  0.58050000  0.98130000  1
  C  C195  1  0.96710000  0.08050000  0.48130000  1
  C  C196  1  0.01787000  0.52263000  0.92143000  1
  C  C197  1  0.03807000  0.02263000  0.42143000  1
  C  C198  1  0.72010000  0.88736000  0.28124000  1
  C  C199  1  0.61130000  0.38736000  0.78124000  1
  C  C200  1  0.92560000  0.64990000  0.03770000  1
  C  C201  1  0.88680000  0.14990000  0.53770000  1
  C  C202  1  0.55262000  0.03888000  0.42408000  1
  C  C203  1  0.48442000  0.53888000  0.92408000  1
  C  C204  1  0.49490000  0.15970000  0.54210000  1
  C  C205  1  0.30330000  0.65970000  0.04210000  1
  C  C206  1  0.57630000  0.10930000  0.48370000  1
  C  C207  1  0.33070000  0.60930000  0.98370000  1
  C  C208  1  0.01330000  0.32730000  0.70070000  1
  C  C209  1  0.45870000  0.82730000  0.20070000  1
  C  C210  1  0.08930000  0.46050000  0.83230000  1
  C  C211  1  0.11790000  0.96050000  0.33230000  1
  C  C212  1  0.58402000  0.83378000  0.20078000  1
  C  C213  1  0.88142000  0.33378000  0.70078000  1
  C  C214  1  0.64843000  0.96957000  0.33617000  1
  C  C215  1  0.54583000  0.46957000  0.83617000  1
  C  C216  1  0.03464000  0.52886000  0.88886000  1
  C  C217  1  0.04764000  0.02886000  0.38886000  1
  C  C218  1  0.44300000  0.21450000  0.56770000  1
  C  C219  1  0.27480000  0.71450000  0.06770000  1
  C  C220  1  0.58233000  0.04397000  0.39217000  1
  C  C221  1  0.48153000  0.54397000  0.89217000  1
  C  C222  1  0.13131000  0.45409000  0.79569000  1
  C  C223  1  0.11891000  0.95409000  0.29569000  1
  C  C224  1  0.69232000  0.96378000  0.29978000  1
  C  C225  1  0.54412000  0.46378000  0.79978000  1
  C  C226  1  0.98470000  0.69150000  0.01890000  1
  C  C227  1  0.80490000  0.19150000  0.51890000  1
  C  C228  1  0.06769000  0.52731000  0.85091000  1
  C  C229  1  0.05409000  0.02731000  0.35091000  1
  C  C230  1  0.51110000  0.18390000  0.50590000  1
  C  C231  1  0.29910000  0.68390000  0.00590000  1
  C  C232  1  0.84210000  0.70270000  0.02430000  1
  C  C233  1  0.93090000  0.20270000  0.52430000  1
  C  C234  1  0.02230000  0.71770000  0.03390000  1
  C  C235  1  0.72610000  0.21770000  0.53390000  1
  C  C236  1  0.62417000  0.03973000  0.35393000  1
  C  C237  1  0.48217000  0.53973000  0.85393000  1
  C  C238  1  0.29520000  0.19200000  0.50360000  1
  C  C239  1  0.50920000  0.69200000  0.00360000  1
  C  C240  1  0.75900000  0.73690000  0.04650000  1
  C  C241  1  0.95760000  0.23690000  0.54650000  1
  C  C242  1  0.01461000  0.36329000  0.66429000  1
  C  C243  1  0.45781000  0.86329000  0.16429000  1
  C  C244  1  0.58467000  0.86973000  0.16373000  1
  C  C245  1  0.88187000  0.36973000  0.66373000  1
  C  C246  1  0.93840000  0.67370000  0.96570000  1
  C  C247  1  0.92220000  0.17370000  0.46570000  1
  C  C248  1  0.98870000  0.70200000  0.97980000  1
  C  C249  1  0.82950000  0.20200000  0.47980000  1
  C  C250  1  0.24300000  0.25210000  0.52830000  1
  C  C251  1  0.47660000  0.75210000  0.02830000  1
  C  C252  1  0.84910000  0.71460000  0.98560000  1
  C  C253  1  0.95070000  0.21460000  0.48560000  1
  C  C254  1  0.07030000  0.75150000  0.01610000  1
  C  C255  1  0.66210000  0.25150000  0.51610000  1
  C  C256  1  0.40320000  0.29470000  0.55710000  1
  C  C257  1  0.24500000  0.79470000  0.05710000  1
  C  C258  1  0.51927000  0.88613000  0.14593000  1
  C  C259  1  0.94867000  0.38613000  0.64593000  1
  C  C260  1  0.14805000  0.51795000  0.77695000  1
  C  C261  1  0.05705000  0.01795000  0.27695000  1
  C  C262  1  0.71409000  0.02494000  0.28228000  1
  C  C263  1  0.47869000  0.52494000  0.78228000  1
  C  C264  1  0.68880000  0.78080000  0.03140000  1
  C  C265  1  0.99900000  0.28080000  0.53140000  1
  C  C266  1  0.31610000  0.21740000  0.46700000  1
  C  C267  1  0.49950000  0.71740000  0.96700000  1
  C  C268  1  0.08671000  0.59116000  0.83202000  1
  C  C269  1  0.99011000  0.09116000  0.33202000  1
  C  C270  1  0.64731000  0.10089000  0.33629000  1
  C  C271  1  0.41551000  0.60089000  0.83629000  1
  C  C272  1  0.47250000  0.26510000  0.49510000  1
  C  C273  1  0.26730000  0.76510000  0.99510000  1
  C  C274  1  0.03820000  0.74040000  0.95640000  1
  C  C275  1  0.76500000  0.24040000  0.45640000  1
  C  C276  1  0.07720000  0.76290000  0.97550000  1
  C  C277  1  0.68440000  0.26290000  0.47550000  1
  C  C278  1  0.77670000  0.76140000  0.97000000  1
  C  C279  1  0.99190000  0.26140000  0.47000000  1
  C  C280  1  0.12955000  0.58692000  0.79518000  1
  C  C281  1  0.98835000  0.08692000  0.29518000  1
  C  C282  1  0.69340000  0.09277000  0.30023000  1
  C  C283  1  0.41360000  0.59277000  0.80023000  1
  C  C284  1  0.69900000  0.79220000  0.99240000  1
  C  C285  1  0.01640000  0.29220000  0.49240000  1
  C  C286  1  0.41510000  0.32510000  0.52030000  1
  C  C287  1  0.23950000  0.82510000  0.02030000  1
  C  C288  1  0.51785000  0.92125000  0.10785000  1
  C  C289  1  0.95305000  0.42125000  0.60785000  1
  C  C290  1  0.20400000  0.33780000  0.51700000  1
  C  C291  1  0.44120000  0.83780000  0.01700000  1
  C  C292  1  0.28070000  0.30230000  0.45450000  1
  C  C293  1  0.46250000  0.80230000  0.95450000  1
  C  C294  1  0.14585000  0.40705000  0.53865000  1
  C  C295  1  0.40845000  0.90705000  0.03865000  1
  C  C296  1  0.72853000  0.15077000  0.28137000  1
  C  C297  1  0.33933000  0.65077000  0.78137000  1
  C  C298  1  0.51336000  0.94674000  0.07614000  1
  C  C299  1  0.96376000  0.44674000  0.57614000  1
  C  C300  1  0.15632000  0.64962000  0.77714000  1
  C  C301  1  0.91692000  0.14962000  0.27714000  1
  C  C302  1  0.22240000  0.36250000  0.47850000  1
  C  C303  1  0.43660000  0.86250000  0.97850000  1
  C  C304  1  0.20060000  0.49160000  0.56020000  1
  C  C305  1  0.24760000  0.99160000  0.06020000  1
  C  C306  1  0.83900000  0.92140000  0.98820000  1
  C  C307  1  0.75140000  0.42140000  0.48820000  1
  C  C308  1  0.18170000  0.46880000  0.53340000  1
  C  C309  1  0.31610000  0.96880000  0.03340000  1
  C  C310  1  0.76780000  0.94890000  0.01330000  1
  C  C311  1  0.77000000  0.44890000  0.51330000  1
  C  C312  1  0.06402000  0.45803000  0.52073000  1
  C  C313  1  0.45722000  0.95803000  0.02073000  1
  C  C314  1  0.50601000  0.97649000  0.03769000  1
  C  C315  1  0.97981000  0.47649000  0.53769000  1
  C  C316  1  0.17660000  0.45690000  0.47050000  1
  C  C317  1  0.39600000  0.95690000  0.97050000  1
  C  C318  1  0.08114000  0.48106000  0.48406000  1
  C  C319  1  0.45374000  0.98106000  0.98406000  1
  C  C320  1  0.23340000  0.54820000  0.54940000  1
  C  C321  1  0.16900000  0.04820000  0.04940000  1
  C  C322  1  0.19780000  0.49600000  0.49700000  1
  C  C323  1  0.30920000  0.99600000  0.99700000  1
  Cu  Cu324  1  0.75016000  0.29198000  0.27988000  1
  Cu  Cu325  1  0.17798000  0.79198000  0.77988000  1
  Cu  Cu326  1  0.18090000  0.21383000  0.77821000  1
  Cu  Cu327  1  0.32706000  0.71383000  0.27821000  1
  Cu  Cu328  1  0.74638000  0.72458000  0.28090000  1
  Cu  Cu329  1  0.74813500  0.22458500  0.78090500  1
  Cu  Cu330  1  0.25362000  0.27542000  0.71910000  1
  Cu  Cu331  1  0.25186500  0.77541500  0.21909500  1
  Cu  Cu332  1  0.81910000  0.78617000  0.22179000  1
  Cu  Cu333  1  0.67294000  0.28617000  0.72179000  1
  Cu  Cu334  1  0.24984000  0.70802000  0.72012000  1
  Cu  Cu335  1  0.82202000  0.20802000  0.22012000  1
  H  H336  1  0.75450000  0.43340000  0.43260000  1
  H  H337  1  0.87950000  0.93340000  0.93260000  1
  H  H338  1  0.39090000  0.97600000  0.94440000  1
  H  H339  1  0.18870000  0.47600000  0.44440000  1
  H  H340  1  0.22910000  0.07010000  0.96190000  1
  H  H341  1  0.23890000  0.57010000  0.46190000  1
  H  H342  1  0.70410000  0.68080000  0.57000000  1
  H  H343  1  0.54510000  0.18080000  0.07000000  1
  H  H344  1  0.10860000  0.11590000  0.00490000  1
  H  H345  1  0.27060000  0.61590000  0.50490000  1
  H  H346  1  0.80780000  0.52900000  0.41520000  1
  H  H347  1  0.74800000  0.02900000  0.91520000  1
  H  H348  1  0.61320000  0.61790000  0.48750000  1
  H  H349  1  0.78140000  0.11790000  0.98750000  1
  H  H350  1  0.34920000  0.17820000  0.01860000  1
  H  H351  1  0.95400000  0.67820000  0.51860000  1
  H  H352  1  0.21950000  0.22810000  0.05550000  1
  H  H353  1  0.99690000  0.72810000  0.55550000  1
  H  H354  1  0.88970000  0.21270000  0.03810000  1
  H  H355  1  0.35950000  0.71270000  0.53810000  1
  H  H356  1  0.86640000  0.61170000  0.43530000  1
  H  H357  1  0.58660000  0.11170000  0.93530000  1
  H  H358  1  0.95680000  0.25140000  0.06920000  1
  H  H359  1  0.22260000  0.75140000  0.56920000  1
  H  H360  1  0.51670000  0.71660000  0.52960000  1
  H  H361  1  0.73710000  0.21660000  0.02960000  1
  H  H362  1  0.36750000  0.85330000  0.65170000  1
  H  H363  1  0.62750000  0.35330000  0.15170000  1
  H  H364  1  0.92920000  0.36260000  0.15600000  1
  H  H365  1  0.05220000  0.86260000  0.65600000  1
  H  H366  1  0.82830000  0.48400000  0.24800000  1
  H  H367  1  0.93970000  0.98400000  0.74800000  1
  H  H368  1  0.25680000  0.97930000  0.74190000  1
  H  H369  1  0.52200000  0.47930000  0.24190000  1
  H  H370  1  0.63370000  0.66790000  0.42550000  1
  H  H371  1  0.77290000  0.16790000  0.92550000  1
  H  H372  1  0.36480000  0.19670000  0.95410000  1
  H  H373  1  0.98440000  0.69670000  0.45410000  1
  H  H374  1  0.05710000  0.31740000  0.06120000  1
  H  H375  1  0.06430000  0.81740000  0.56120000  1
  H  H376  1  0.90200000  0.23270000  0.97190000  1
  H  H377  1  0.39340000  0.73270000  0.47190000  1
  H  H378  1  0.37200000  0.11780000  0.84860000  1
  H  H379  1  0.16160000  0.61780000  0.34860000  1
  H  H380  1  0.64610000  0.82230000  0.54930000  1
  H  H381  1  0.48230000  0.32230000  0.04930000  1
  H  H382  1  0.93980000  0.62760000  0.34780000  1
  H  H383  1  0.58480000  0.12760000  0.84780000  1
  H  H384  1  0.76610000  0.76570000  0.44670000  1
  H  H385  1  0.52150000  0.26570000  0.94670000  1
  H  H386  1  0.41020000  0.87420000  0.54260000  1
  H  H387  1  0.67300000  0.37420000  0.04260000  1
  H  H388  1  0.24600000  0.27190000  0.92790000  1
  H  H389  1  0.05420000  0.77190000  0.42790000  1
  H  H390  1  0.98520000  0.28830000  0.94050000  1
  H  H391  1  0.28600000  0.78830000  0.44050000  1
  H  H392  1  0.68420000  0.86470000  0.48830000  1
  H  H393  1  0.46280000  0.36470000  0.98830000  1
  H  H394  1  0.18130000  0.43670000  0.05950000  1
  H  H395  1  0.82250000  0.93670000  0.55950000  1
  H  H396  1  0.68880000  0.97210000  0.58570000  1
  H  H397  1  0.25340000  0.47210000  0.08570000  1
  H  H398  1  0.56420000  0.80480000  0.40740000  1
  H  H399  1  0.72360000  0.30480000  0.90740000  1
  H  H400  1  0.77650000  0.43680000  0.03780000  1
  H  H401  1  0.24890000  0.93680000  0.53780000  1
  H  H402  1  0.36450000  0.07280000  0.65160000  1
  H  H403  1  0.41110000  0.57280000  0.15160000  1
  H  H404  1  0.08020000  0.35880000  0.93540000  1
  H  H405  1  0.12560000  0.85880000  0.43540000  1
  H  H406  1  0.92440000  0.58140000  0.15560000  1
  H  H407  1  0.83860000  0.08140000  0.65560000  1
  H  H408  1  0.48160000  0.20750000  0.75690000  1
  H  H409  1  0.05400000  0.70750000  0.25690000  1
  H  H410  1  0.52520000  0.04740000  0.57900000  1
  H  H411  1  0.34840000  0.54740000  0.07900000  1
  H  H412  1  0.16200000  0.48340000  0.99860000  1
  H  H413  1  0.85600000  0.98340000  0.49860000  1
  H  H414  1  0.83800000  0.51660000  0.00140000  1
  H  H415  1  0.14400000  0.01660000  0.50140000  1
  H  H416  1  0.47480000  0.95260000  0.42100000  1
  H  H417  1  0.65160000  0.45260000  0.92100000  1
  H  H418  1  0.51840000  0.79250000  0.24310000  1
  H  H419  1  0.94600000  0.29250000  0.74310000  1
  H  H420  1  0.07560000  0.41860000  0.84440000  1
  H  H421  1  0.16140000  0.91860000  0.34440000  1
  H  H422  1  0.91980000  0.64120000  0.06460000  1
  H  H423  1  0.87440000  0.14120000  0.56460000  1
  H  H424  1  0.63550000  0.92720000  0.34840000  1
  H  H425  1  0.58890000  0.42720000  0.84840000  1
  H  H426  1  0.22350000  0.56320000  0.96220000  1
  H  H427  1  0.75110000  0.06320000  0.46220000  1
  H  H428  1  0.43580000  0.19520000  0.59260000  1
  H  H429  1  0.27640000  0.69520000  0.09260000  1
  H  H430  1  0.31120000  0.02790000  0.41430000  1
  H  H431  1  0.74660000  0.52790000  0.91430000  1
  H  H432  1  0.81870000  0.56330000  0.94050000  1
  H  H433  1  0.17750000  0.06330000  0.44050000  1
  H  H434  1  0.31580000  0.13530000  0.51170000  1
  H  H435  1  0.53720000  0.63530000  0.01170000  1
  H  H436  1  0.01480000  0.71170000  0.05950000  1
  H  H437  1  0.71400000  0.21170000  0.55950000  1
  H  H438  1  0.75400000  0.72810000  0.07210000  1
  H  H439  1  0.94580000  0.22810000  0.57210000  1
  H  H440  1  0.58980000  0.12580000  0.45740000  1
  H  H441  1  0.32700000  0.62580000  0.95740000  1
  H  H442  1  0.23390000  0.23430000  0.55330000  1
  H  H443  1  0.47850000  0.73430000  0.05330000  1
  H  H444  1  0.06020000  0.37240000  0.65220000  1
  H  H445  1  0.41520000  0.87240000  0.15220000  1
  H  H446  1  0.35390000  0.17770000  0.45070000  1
  H  H447  1  0.51770000  0.67770000  0.95070000  1
  H  H448  1  0.62800000  0.88220000  0.15140000  1
  H  H449  1  0.83840000  0.38220000  0.65140000  1
  H  H450  1  0.09800000  0.76730000  0.02810000  1
  H  H451  1  0.60660000  0.26730000  0.52810000  1
  H  H452  1  0.94290000  0.68260000  0.93880000  1
  H  H453  1  0.93570000  0.18260000  0.43880000  1
  H  H454  1  0.63520000  0.80330000  0.04590000  1
  H  H455  1  0.01560000  0.30330000  0.54590000  1
  H  H456  1  0.36630000  0.33210000  0.57450000  1
  H  H457  1  0.22710000  0.83210000  0.07450000  1
  H  H458  1  0.74320000  0.02070000  0.25810000  1
  H  H459  1  0.47800000  0.52070000  0.75810000  1
  H  H460  1  0.17170000  0.51600000  0.75200000  1
  H  H461  1  0.06030000  0.01600000  0.25200000  1
  H  H462  1  0.07080000  0.63740000  0.84400000  1
  H  H463  1  0.94780000  0.13740000  0.34400000  1
  H  H464  1  0.63250000  0.14670000  0.34830000  1
  H  H465  1  0.37250000  0.64670000  0.84830000  1
  H  H466  1  0.48330000  0.28340000  0.47040000  1
  H  H467  1  0.26290000  0.78340000  0.97040000  1
  H  H468  1  0.04320000  0.74860000  0.93080000  1
  H  H469  1  0.77740000  0.24860000  0.43080000  1
  H  H470  1  0.13360000  0.38830000  0.56470000  1
  H  H471  1  0.41340000  0.88830000  0.06470000  1
  H  H472  1  0.11030000  0.78730000  0.96190000  1
  H  H473  1  0.64050000  0.28730000  0.46190000  1
  H  H474  1  0.78050000  0.77190000  0.94450000  1
  H  H475  1  0.00310000  0.27190000  0.44450000  1
  H  H476  1  0.65080000  0.82180000  0.98140000  1
  H  H477  1  0.04600000  0.32180000  0.48140000  1
  H  H478  1  0.38680000  0.38210000  0.51250000  1
  H  H479  1  0.21860000  0.88210000  0.01250000  1
  H  H480  1  0.19220000  0.47100000  0.58480000  1
  H  H481  1  0.25200000  0.97100000  0.08480000  1
  H  H482  1  0.89140000  0.88410000  0.99510000  1
  H  H483  1  0.72940000  0.38410000  0.49510000  1
  H  H484  1  0.29590000  0.31920000  0.43000000  1
  H  H485  1  0.45490000  0.81920000  0.93000000  1
  H  H486  1  0.77090000  0.92990000  0.03810000  1
  H  H487  1  0.76110000  0.42990000  0.53810000  1
  H  H488  1  0.60910000  0.02400000  0.05560000  1
  H  H489  1  0.81130000  0.52400000  0.55560000  1
  H  H490  1  0.24550000  0.56660000  0.56740000  1
  H  H491  1  0.12050000  0.06660000  0.06740000  1
  O  O492  1  0.29728000  0.78499000  0.70085000  1
  O  O493  1  0.71688000  0.28499000  0.20085000  1
  O  O494  1  0.85975000  0.29482000  0.20368000  1
  O  O495  1  0.14175000  0.79482000  0.70368000  1
  O  O496  1  0.80442000  0.35988000  0.25548000  1
  O  O497  1  0.08022000  0.85988000  0.75548000  1
  O  O498  1  0.23229000  0.85747000  0.74955000  1
  O  O499  1  0.66069000  0.35747000  0.24955000  1
  O  O500  1  0.23517000  0.11643000  0.75023000  1
  O  O501  1  0.39817000  0.61643000  0.25023000  1
  O  O502  1  0.79933000  0.62425000  0.25529000  1
  O  O503  1  0.82113000  0.12425000  0.75529000  1
  O  O504  1  0.28476000  0.17266000  0.79822000  1
  O  O505  1  0.24436000  0.67266000  0.29822000  1
  O  O506  1  0.85378000  0.68667000  0.29937000  1
  O  O507  1  0.66018000  0.18667000  0.79937000  1
  O  O508  1  0.29701000  0.16854000  0.70084000  1
  O  O509  1  0.33361000  0.66854000  0.20084000  1
  O  O510  1  0.86087000  0.67727000  0.20419000  1
  O  O511  1  0.75767000  0.17727000  0.70419000  1
  O  O512  1  0.34630000  0.22611000  0.74829000  1
  O  O513  1  0.17930000  0.72611000  0.24829000  1
  O  O514  1  0.91418000  0.73652000  0.24852000  1
  O  O515  1  0.60078000  0.23652000  0.74852000  1
  O  O516  1  0.08582000  0.26348000  0.75148000  1
  O  O517  1  0.39922000  0.76348000  0.25148000  1
  O  O518  1  0.65370000  0.77389000  0.25171000  1
  O  O519  1  0.82070000  0.27389000  0.75171000  1
  O  O520  1  0.13913000  0.32273000  0.79581000  1
  O  O521  1  0.24233000  0.82273000  0.29581000  1
  O  O522  1  0.70299000  0.83146000  0.29916000  1
  O  O523  1  0.66639000  0.33146000  0.79916000  1
  O  O524  1  0.14622000  0.31333000  0.70063000  1
  O  O525  1  0.33982000  0.81333000  0.20063000  1
  O  O526  1  0.71524000  0.82734000  0.20178000  1
  O  O527  1  0.75564000  0.32734000  0.70178000  1
  O  O528  1  0.20067000  0.37575000  0.74471000  1
  O  O529  1  0.17887000  0.87575000  0.24471000  1
  O  O530  1  0.76483000  0.88357000  0.24977000  1
  O  O531  1  0.60183000  0.38357000  0.74977000  1
  O  O532  1  0.76771000  0.14253000  0.25045000  1
  O  O533  1  0.33931000  0.64253000  0.75045000  1
  O  O534  1  0.19558000  0.64012000  0.74452000  1
  O  O535  1  0.91978000  0.14012000  0.24452000  1
  O  O536  1  0.14025000  0.70518000  0.79632000  1
  O  O537  1  0.85825000  0.20518000  0.29632000  1
  O  O538  1  0.70272000  0.21501000  0.29915000  1
  O  O539  1  0.28312000  0.71501000  0.79915000  1
