# generated using pymatgen
data_Na6DyH24C40S8N8ClO36
_symmetry_space_group_name_H-M   'P 1'
_cell_length_a   12.21300000
_cell_length_b   12.21300000
_cell_length_c   12.34500000
_cell_angle_alpha   90.00000000
_cell_angle_beta   90.00000000
_cell_angle_gamma   90.00000000
_symmetry_Int_Tables_number   1
_chemical_formula_structural   Na6DyH24C40S8N8ClO36
_chemical_formula_sum   'Na6 Dy1 H24 C40 S8 N8 Cl1 O36'
_cell_volume   1841.34772030
_cell_formula_units_Z   1
loop_
 _symmetry_equiv_pos_site_id
 _symmetry_equiv_pos_as_xyz
  1  'x, y, z'
loop_
 _atom_site_type_symbol
 _atom_site_label
 _atom_site_symmetry_multiplicity
 _atom_site_fract_x
 _atom_site_fract_y
 _atom_site_fract_z
 _atom_site_occupancy
  Na  Na0  1  0.00000000  0.50000000  0.48790000  1
  Na  Na1  1  0.27950000  0.47170000  0.50460000  1
  Na  Na2  1  0.47170000  0.72050000  0.49540000  1
  Na  Na3  1  0.50000000  0.00000000  0.51210000  1
  Na  Na4  1  0.52830000  0.27950000  0.49540000  1
  Na  Na5  1  0.72050000  0.52830000  0.50460000  1
  Dy  Dy6  1  0.00000000  0.00000000  0.00000000  1
  H  H7  1  0.02080000  0.60950000  0.26610000  1
  H  H8  1  0.05820000  0.22390000  0.40120000  1
  H  H9  1  0.10480000  0.72060000  0.87660000  1
  H  H10  1  0.11860000  0.64960000  0.70510000  1
  H  H11  1  0.15520000  0.27480000  0.88050000  1
  H  H12  1  0.22390000  0.94180000  0.59880000  1
  H  H13  1  0.27480000  0.84480000  0.11950000  1
  H  H14  1  0.27940000  0.10480000  0.12340000  1
  H  H15  1  0.32520000  0.66770000  0.16140000  1
  H  H16  1  0.33230000  0.32520000  0.83860000  1
  H  H17  1  0.35040000  0.11860000  0.29490000  1
  H  H18  1  0.39050000  0.02080000  0.73390000  1
  H  H19  1  0.60950000  0.97920000  0.73390000  1
  H  H20  1  0.64960000  0.88140000  0.29490000  1
  H  H21  1  0.66770000  0.67480000  0.83860000  1
  H  H22  1  0.67480000  0.33230000  0.16140000  1
  H  H23  1  0.72060000  0.89520000  0.12340000  1
  H  H24  1  0.72520000  0.15520000  0.11950000  1
  H  H25  1  0.77610000  0.05820000  0.59880000  1
  H  H26  1  0.84480000  0.72520000  0.88050000  1
  H  H27  1  0.88140000  0.35040000  0.70510000  1
  H  H28  1  0.89520000  0.27940000  0.87660000  1
  H  H29  1  0.94180000  0.77610000  0.40120000  1
  H  H30  1  0.97920000  0.39050000  0.26610000  1
  C  C31  1  0.04450000  0.76420000  0.21250000  1
  C  C32  1  0.06510000  0.19420000  0.24010000  1
  C  C33  1  0.07300000  0.65690000  0.23770000  1
  C  C34  1  0.10360000  0.20020000  0.34550000  1
  C  C35  1  0.13040000  0.76440000  0.82040000  1
  C  C36  1  0.13670000  0.72240000  0.71790000  1
  C  C37  1  0.17030000  0.78900000  0.63360000  1
  C  C38  1  0.17890000  0.62060000  0.22070000  1
  C  C39  1  0.19420000  0.93490000  0.75990000  1
  C  C40  1  0.20020000  0.89640000  0.65450000  1
  C  C41  1  0.20260000  0.22400000  0.84970000  1
  C  C42  1  0.21100000  0.17030000  0.36640000  1
  C  C43  1  0.22400000  0.79740000  0.15030000  1
  C  C44  1  0.23560000  0.13040000  0.17960000  1
  C  C45  1  0.23580000  0.04450000  0.78750000  1
  C  C46  1  0.25420000  0.69140000  0.17520000  1
  C  C47  1  0.27760000  0.13670000  0.28210000  1
  C  C48  1  0.30860000  0.25420000  0.82480000  1
  C  C49  1  0.34310000  0.07300000  0.76230000  1
  C  C50  1  0.37940000  0.17890000  0.77930000  1
  C  C51  1  0.62060000  0.82110000  0.77930000  1
  C  C52  1  0.65690000  0.92700000  0.76230000  1
  C  C53  1  0.69140000  0.74580000  0.82480000  1
  C  C54  1  0.72240000  0.86330000  0.28210000  1
  C  C55  1  0.74580000  0.30860000  0.17520000  1
  C  C56  1  0.76420000  0.95550000  0.78750000  1
  C  C57  1  0.76440000  0.86960000  0.17960000  1
  C  C58  1  0.77600000  0.20260000  0.15030000  1
  C  C59  1  0.78900000  0.82970000  0.36640000  1
  C  C60  1  0.79740000  0.77600000  0.84970000  1
  C  C61  1  0.79980000  0.10360000  0.65450000  1
  C  C62  1  0.80580000  0.06510000  0.75990000  1
  C  C63  1  0.82110000  0.37940000  0.22070000  1
  C  C64  1  0.82970000  0.21100000  0.63360000  1
  C  C65  1  0.86330000  0.27760000  0.71790000  1
  C  C66  1  0.86960000  0.23560000  0.82040000  1
  C  C67  1  0.89640000  0.79980000  0.34550000  1
  C  C68  1  0.92700000  0.34310000  0.23770000  1
  C  C69  1  0.93490000  0.80580000  0.24010000  1
  C  C70  1  0.95550000  0.23580000  0.21250000  1
  S  S71  1  0.18292000  0.73480000  0.50002000  1
  S  S72  1  0.21337000  0.48466000  0.25906000  1
  S  S73  1  0.26520000  0.18292000  0.49998000  1
  S  S74  1  0.48466000  0.78663000  0.74094000  1
  S  S75  1  0.51534000  0.21337000  0.74094000  1
  S  S76  1  0.73480000  0.81708000  0.49998000  1
  S  S77  1  0.78663000  0.51534000  0.25906000  1
  S  S78  1  0.81708000  0.26520000  0.50002000  1
  N  N79  1  0.12190000  0.83250000  0.17000000  1
  N  N80  1  0.13260000  0.16040000  0.15910000  1
  N  N81  1  0.16040000  0.86740000  0.84090000  1
  N  N82  1  0.16750000  0.12190000  0.83000000  1
  N  N83  1  0.83250000  0.87810000  0.83000000  1
  N  N84  1  0.83960000  0.13260000  0.84090000  1
  N  N85  1  0.86740000  0.83960000  0.15910000  1
  N  N86  1  0.87810000  0.16750000  0.17000000  1
  Cl  Cl87  1  0.50000000  0.50000000  0.50000000  1
  O  O88  1  0.06450000  0.09630000  0.84740000  1
  O  O89  1  0.08480000  0.66950000  0.48640000  1
  O  O90  1  0.09490000  0.15470000  0.05830000  1
  O  O91  1  0.09630000  0.93550000  0.15260000  1
  O  O92  1  0.11690000  0.41650000  0.61760000  1
  O  O93  1  0.14280000  0.45880000  0.34880000  1
  O  O94  1  0.15470000  0.90510000  0.94170000  1
  O  O95  1  0.17300000  0.19110000  0.57240000  1
  O  O96  1  0.19110000  0.82700000  0.42760000  1
  O  O97  1  0.19350000  0.41740000  0.16580000  1
  O  O98  1  0.28230000  0.66850000  0.50260000  1
  O  O99  1  0.32700000  0.49030000  0.29150000  1
  O  O100  1  0.33050000  0.08480000  0.51360000  1
  O  O101  1  0.33150000  0.28230000  0.49740000  1
  O  O102  1  0.41650000  0.88310000  0.38240000  1
  O  O103  1  0.41740000  0.80650000  0.83420000  1
  O  O104  1  0.45880000  0.85720000  0.65120000  1
  O  O105  1  0.49030000  0.67300000  0.70850000  1
  O  O106  1  0.50970000  0.32700000  0.70850000  1
  O  O107  1  0.54120000  0.14280000  0.65120000  1
  O  O108  1  0.58260000  0.19350000  0.83420000  1
  O  O109  1  0.58350000  0.11690000  0.38240000  1
  O  O110  1  0.66850000  0.71770000  0.49740000  1
  O  O111  1  0.66950000  0.91520000  0.51360000  1
  O  O112  1  0.67300000  0.50970000  0.29150000  1
  O  O113  1  0.71770000  0.33150000  0.50260000  1
  O  O114  1  0.80650000  0.58260000  0.16580000  1
  O  O115  1  0.80890000  0.17300000  0.42760000  1
  O  O116  1  0.82700000  0.80890000  0.57240000  1
  O  O117  1  0.84530000  0.09490000  0.94170000  1
  O  O118  1  0.85720000  0.54120000  0.34880000  1
  O  O119  1  0.88310000  0.58350000  0.61760000  1
  O  O120  1  0.90370000  0.06450000  0.15260000  1
  O  O121  1  0.90510000  0.84530000  0.05830000  1
  O  O122  1  0.91520000  0.33050000  0.48640000  1
  O  O123  1  0.93550000  0.90370000  0.84740000  1
