# generated using pymatgen
data_ZnH8C16(NO2)2
_symmetry_space_group_name_H-M   'P 1'
_cell_length_a   12.78330000
_cell_length_b   25.55990000
_cell_length_c   25.55990000
_cell_angle_alpha   90.00000000
_cell_angle_beta   90.00000000
_cell_angle_gamma   90.00000000
_symmetry_Int_Tables_number   1
_chemical_formula_structural   ZnH8C16(NO2)2
_chemical_formula_sum   'Zn12 H96 C192 N24 O48'
_cell_volume   8351.43839478
_cell_formula_units_Z   12
loop_
 _symmetry_equiv_pos_site_id
 _symmetry_equiv_pos_as_xyz
  1  'x, y, z'
loop_
 _atom_site_type_symbol
 _atom_site_label
 _atom_site_symmetry_multiplicity
 _atom_site_fract_x
 _atom_site_fract_y
 _atom_site_fract_z
 _atom_site_occupancy
  Zn  Zn0  1  0.00000000  0.12514000  0.12514000  1
  Zn  Zn1  1  0.00000000  0.87486000  0.87486000  1
  Zn  Zn2  1  0.16050000  0.20515000  0.04442000  1
  Zn  Zn3  1  0.16050000  0.79485000  0.95558000  1
  Zn  Zn4  1  0.33950000  0.29485000  0.54442000  1
  Zn  Zn5  1  0.33950000  0.70515000  0.45558000  1
  Zn  Zn6  1  0.50000000  0.37486000  0.62514000  1
  Zn  Zn7  1  0.50000000  0.62514000  0.37486000  1
  Zn  Zn8  1  0.66050000  0.45558000  0.70515000  1
  Zn  Zn9  1  0.66050000  0.54442000  0.29485000  1
  Zn  Zn10  1  0.83950000  0.04442000  0.20515000  1
  Zn  Zn11  1  0.83950000  0.95558000  0.79485000  1
  H  H12  1  0.00990000  0.42840000  0.51500000  1
  H  H13  1  0.00990000  0.57160000  0.48500000  1
  H  H14  1  0.08120000  0.07660000  0.80150000  1
  H  H15  1  0.08120000  0.92340000  0.19850000  1
  H  H16  1  0.09500000  0.41310000  0.55190000  1
  H  H17  1  0.09500000  0.58690000  0.44810000  1
  H  H18  1  0.09930000  0.38690000  0.22860000  1
  H  H19  1  0.09930000  0.61310000  0.77140000  1
  H  H20  1  0.12010000  0.18750000  0.24660000  1
  H  H21  1  0.12010000  0.81250000  0.75340000  1
  H  H22  1  0.12410000  0.00100000  0.93900000  1
  H  H23  1  0.12410000  0.99900000  0.06100000  1
  H  H24  1  0.14420000  0.49730000  0.29100000  1
  H  H25  1  0.14420000  0.50270000  0.70900000  1
  H  H26  1  0.14990000  0.32460000  0.16630000  1
  H  H27  1  0.14990000  0.67540000  0.83370000  1
  H  H28  1  0.16680000  0.25250000  0.30520000  1
  H  H29  1  0.16680000  0.74750000  0.69480000  1
  H  H30  1  0.22410000  0.13200000  0.82200000  1
  H  H31  1  0.22410000  0.86800000  0.17800000  1
  H  H32  1  0.23680000  0.44310000  0.46050000  1
  H  H33  1  0.23680000  0.55690000  0.53950000  1
  H  H34  1  0.23960000  0.06250000  0.18330000  1
  H  H35  1  0.23960000  0.93750000  0.81670000  1
  H  H36  1  0.26040000  0.43750000  0.68330000  1
  H  H37  1  0.26040000  0.56250000  0.31670000  1
  H  H38  1  0.26320000  0.05690000  0.96050000  1
  H  H39  1  0.26320000  0.94310000  0.03950000  1
  H  H40  1  0.27590000  0.36800000  0.32200000  1
  H  H41  1  0.27590000  0.63200000  0.67800000  1
  H  H42  1  0.33320000  0.24750000  0.80520000  1
  H  H43  1  0.33320000  0.75250000  0.19480000  1
  H  H44  1  0.35010000  0.17540000  0.66630000  1
  H  H45  1  0.35010000  0.82460000  0.33370000  1
  H  H46  1  0.35580000  0.00270000  0.79100000  1
  H  H47  1  0.35580000  0.99730000  0.20900000  1
  H  H48  1  0.37590000  0.49900000  0.43900000  1
  H  H49  1  0.37590000  0.50100000  0.56100000  1
  H  H50  1  0.37990000  0.31250000  0.74660000  1
  H  H51  1  0.37990000  0.68750000  0.25340000  1
  H  H52  1  0.40070000  0.11310000  0.72860000  1
  H  H53  1  0.40070000  0.88690000  0.27140000  1
  H  H54  1  0.40500000  0.08690000  0.05190000  1
  H  H55  1  0.40500000  0.91310000  0.94810000  1
  H  H56  1  0.41880000  0.42340000  0.30150000  1
  H  H57  1  0.41880000  0.57660000  0.69850000  1
  H  H58  1  0.49010000  0.07160000  0.01500000  1
  H  H59  1  0.49010000  0.92840000  0.98500000  1
  H  H60  1  0.50990000  0.01500000  0.07160000  1
  H  H61  1  0.50990000  0.98500000  0.92840000  1
  H  H62  1  0.58120000  0.30150000  0.42340000  1
  H  H63  1  0.58120000  0.69850000  0.57660000  1
  H  H64  1  0.59500000  0.05190000  0.08690000  1
  H  H65  1  0.59500000  0.94810000  0.91310000  1
  H  H66  1  0.59930000  0.27140000  0.88690000  1
  H  H67  1  0.59930000  0.72860000  0.11310000  1
  H  H68  1  0.62010000  0.25340000  0.68750000  1
  H  H69  1  0.62010000  0.74660000  0.31250000  1
  H  H70  1  0.62410000  0.43900000  0.49900000  1
  H  H71  1  0.62410000  0.56100000  0.50100000  1
  H  H72  1  0.64420000  0.20900000  0.99730000  1
  H  H73  1  0.64420000  0.79100000  0.00270000  1
  H  H74  1  0.64990000  0.33370000  0.82460000  1
  H  H75  1  0.64990000  0.66630000  0.17540000  1
  H  H76  1  0.66680000  0.19480000  0.75250000  1
  H  H77  1  0.66680000  0.80520000  0.24750000  1
  H  H78  1  0.72410000  0.32200000  0.36800000  1
  H  H79  1  0.72410000  0.67800000  0.63200000  1
  H  H80  1  0.73680000  0.03950000  0.94310000  1
  H  H81  1  0.73680000  0.96050000  0.05690000  1
  H  H82  1  0.73960000  0.31670000  0.56250000  1
  H  H83  1  0.73960000  0.68330000  0.43750000  1
  H  H84  1  0.76040000  0.18330000  0.06250000  1
  H  H85  1  0.76040000  0.81670000  0.93750000  1
  H  H86  1  0.76320000  0.46050000  0.44310000  1
  H  H87  1  0.76320000  0.53950000  0.55690000  1
  H  H88  1  0.77590000  0.17800000  0.86800000  1
  H  H89  1  0.77590000  0.82200000  0.13200000  1
  H  H90  1  0.83320000  0.30520000  0.25250000  1
  H  H91  1  0.83320000  0.69480000  0.74750000  1
  H  H92  1  0.85010000  0.16630000  0.32460000  1
  H  H93  1  0.85010000  0.83370000  0.67540000  1
  H  H94  1  0.85580000  0.29100000  0.49730000  1
  H  H95  1  0.85580000  0.70900000  0.50270000  1
  H  H96  1  0.87590000  0.06100000  0.99900000  1
  H  H97  1  0.87590000  0.93900000  0.00100000  1
  H  H98  1  0.87990000  0.24660000  0.18750000  1
  H  H99  1  0.87990000  0.75340000  0.81250000  1
  H  H100  1  0.90070000  0.22860000  0.38690000  1
  H  H101  1  0.90070000  0.77140000  0.61310000  1
  H  H102  1  0.90500000  0.44810000  0.58690000  1
  H  H103  1  0.90500000  0.55190000  0.41310000  1
  H  H104  1  0.91880000  0.19850000  0.92340000  1
  H  H105  1  0.91880000  0.80150000  0.07660000  1
  H  H106  1  0.99010000  0.48500000  0.57160000  1
  H  H107  1  0.99010000  0.51500000  0.42840000  1
  C  C108  1  0.00200000  0.15170000  0.00760000  1
  C  C109  1  0.00200000  0.84830000  0.99240000  1
  C  C110  1  0.01600000  0.28260000  0.16800000  1
  C  C111  1  0.01600000  0.71740000  0.83200000  1
  C  C112  1  0.02000000  0.34700000  0.45720000  1
  C  C113  1  0.02000000  0.65300000  0.54280000  1
  C  C114  1  0.03400000  0.24990000  0.34840000  1
  C  C115  1  0.03400000  0.75010000  0.65160000  1
  C  C116  1  0.04400000  0.47470000  0.59510000  1
  C  C117  1  0.04400000  0.52530000  0.40490000  1
  C  C118  1  0.05500000  0.24660000  0.12660000  1
  C  C119  1  0.05500000  0.75340000  0.87340000  1
  C  C120  1  0.05700000  0.29440000  0.38360000  1
  C  C121  1  0.05700000  0.35720000  0.22200000  1
  C  C122  1  0.05700000  0.64280000  0.77800000  1
  C  C123  1  0.05700000  0.70560000  0.61640000  1
  C  C124  1  0.05900000  0.49800000  0.35810000  1
  C  C125  1  0.05900000  0.50200000  0.64190000  1
  C  C126  1  0.07500000  0.19580000  0.27510000  1
  C  C127  1  0.07500000  0.80420000  0.72490000  1
  C  C128  1  0.08400000  0.32200000  0.18290000  1
  C  C129  1  0.08400000  0.67800000  0.81710000  1
  C  C130  1  0.09200000  0.03380000  0.86900000  1
  C  C131  1  0.09200000  0.96620000  0.13100000  1
  C  C132  1  0.10200000  0.23510000  0.30890000  1
  C  C133  1  0.10200000  0.76490000  0.69110000  1
  C  C134  1  0.10700000  0.43250000  0.58290000  1
  C  C135  1  0.10700000  0.56750000  0.41710000  1
  C  C136  1  0.11800000  0.07270000  0.83350000  1
  C  C137  1  0.11800000  0.92730000  0.16650000  1
  C  C138  1  0.13700000  0.48620000  0.67590000  1
  C  C139  1  0.13700000  0.51380000  0.32410000  1
  C  C140  1  0.14400000  0.02810000  0.91560000  1
  C  C141  1  0.14400000  0.97190000  0.08440000  1
  C  C142  1  0.16700000  0.36460000  0.40420000  1
  C  C143  1  0.16700000  0.63540000  0.59580000  1
  C  C144  1  0.18900000  0.41860000  0.61540000  1
  C  C145  1  0.18900000  0.58140000  0.38460000  1
  C  C146  1  0.20000000  0.10610000  0.84590000  1
  C  C147  1  0.20000000  0.89390000  0.15410000  1
  C  C148  1  0.20300000  0.44620000  0.66120000  1
  C  C149  1  0.20300000  0.55380000  0.33880000  1
  C  C150  1  0.22500000  0.06110000  0.92900000  1
  C  C151  1  0.22500000  0.93890000  0.07100000  1
  C  C152  1  0.24200000  0.12370000  0.09660000  1
  C  C153  1  0.24200000  0.87630000  0.90340000  1
  C  C154  1  0.24600000  0.10000000  0.89400000  1
  C  C155  1  0.24600000  0.90000000  0.10600000  1
  C  C156  1  0.25400000  0.40000000  0.39400000  1
  C  C157  1  0.25400000  0.60000000  0.60600000  1
  C  C158  1  0.25800000  0.37630000  0.59660000  1
  C  C159  1  0.25800000  0.62370000  0.40340000  1
  C  C160  1  0.27500000  0.43890000  0.42900000  1
  C  C161  1  0.27500000  0.56110000  0.57100000  1
  C  C162  1  0.29700000  0.05380000  0.16120000  1
  C  C163  1  0.29700000  0.94620000  0.83880000  1
  C  C164  1  0.30000000  0.39390000  0.34590000  1
  C  C165  1  0.30000000  0.60610000  0.65410000  1
  C  C166  1  0.31100000  0.08140000  0.11540000  1
  C  C167  1  0.31100000  0.91860000  0.88460000  1
  C  C168  1  0.33300000  0.13540000  0.90420000  1
  C  C169  1  0.33300000  0.86460000  0.09580000  1
  C  C170  1  0.35600000  0.47190000  0.41560000  1
  C  C171  1  0.35600000  0.52810000  0.58440000  1
  C  C172  1  0.36300000  0.01380000  0.17590000  1
  C  C173  1  0.36300000  0.98620000  0.82410000  1
  C  C174  1  0.38200000  0.42730000  0.33350000  1
  C  C175  1  0.38200000  0.57270000  0.66650000  1
  C  C176  1  0.39300000  0.06750000  0.08290000  1
  C  C177  1  0.39300000  0.93250000  0.91710000  1
  C  C178  1  0.39800000  0.26490000  0.80890000  1
  C  C179  1  0.39800000  0.73510000  0.19110000  1
  C  C180  1  0.40800000  0.46620000  0.36900000  1
  C  C181  1  0.40800000  0.53380000  0.63100000  1
  C  C182  1  0.41600000  0.17800000  0.68290000  1
  C  C183  1  0.41600000  0.82200000  0.31710000  1
  C  C184  1  0.42500000  0.30420000  0.77510000  1
  C  C185  1  0.42500000  0.69580000  0.22490000  1
  C  C186  1  0.44100000  0.00200000  0.85810000  1
  C  C187  1  0.44100000  0.99800000  0.14190000  1
  C  C188  1  0.44300000  0.14280000  0.72200000  1
  C  C189  1  0.44300000  0.20560000  0.88360000  1
  C  C190  1  0.44300000  0.79440000  0.11640000  1
  C  C191  1  0.44300000  0.85720000  0.27800000  1
  C  C192  1  0.44500000  0.25340000  0.62660000  1
  C  C193  1  0.44500000  0.74660000  0.37340000  1
  C  C194  1  0.45600000  0.02530000  0.09510000  1
  C  C195  1  0.45600000  0.97470000  0.90490000  1
  C  C196  1  0.46600000  0.25010000  0.84840000  1
  C  C197  1  0.46600000  0.74990000  0.15160000  1
  C  C198  1  0.48000000  0.15300000  0.95720000  1
  C  C199  1  0.48000000  0.84700000  0.04280000  1
  C  C200  1  0.48400000  0.21740000  0.66800000  1
  C  C201  1  0.48400000  0.78260000  0.33200000  1
  C  C202  1  0.49800000  0.34830000  0.50760000  1
  C  C203  1  0.49800000  0.65170000  0.49240000  1
  C  C204  1  0.50200000  0.49240000  0.65170000  1
  C  C205  1  0.50200000  0.50760000  0.34830000  1
  C  C206  1  0.51600000  0.33200000  0.78260000  1
  C  C207  1  0.51600000  0.66800000  0.21740000  1
  C  C208  1  0.52000000  0.04280000  0.84700000  1
  C  C209  1  0.52000000  0.95720000  0.15300000  1
  C  C210  1  0.53400000  0.15160000  0.74990000  1
  C  C211  1  0.53400000  0.84840000  0.25010000  1
  C  C212  1  0.54400000  0.09510000  0.02530000  1
  C  C213  1  0.54400000  0.90490000  0.97470000  1
  C  C214  1  0.55500000  0.37340000  0.74660000  1
  C  C215  1  0.55500000  0.62660000  0.25340000  1
  C  C216  1  0.55700000  0.11640000  0.79440000  1
  C  C217  1  0.55700000  0.27800000  0.85720000  1
  C  C218  1  0.55700000  0.72200000  0.14280000  1
  C  C219  1  0.55700000  0.88360000  0.20560000  1
  C  C220  1  0.55900000  0.14190000  0.99800000  1
  C  C221  1  0.55900000  0.85810000  0.00200000  1
  C  C222  1  0.57500000  0.22490000  0.69580000  1
  C  C223  1  0.57500000  0.77510000  0.30420000  1
  C  C224  1  0.58400000  0.31710000  0.82200000  1
  C  C225  1  0.58400000  0.68290000  0.17800000  1
  C  C226  1  0.59200000  0.36900000  0.46620000  1
  C  C227  1  0.59200000  0.63100000  0.53380000  1
  C  C228  1  0.60200000  0.19110000  0.73510000  1
  C  C229  1  0.60200000  0.80890000  0.26490000  1
  C  C230  1  0.60700000  0.08290000  0.06750000  1
  C  C231  1  0.60700000  0.91710000  0.93250000  1
  C  C232  1  0.61800000  0.33350000  0.42730000  1
  C  C233  1  0.61800000  0.66650000  0.57270000  1
  C  C234  1  0.63700000  0.17590000  0.01380000  1
  C  C235  1  0.63700000  0.82410000  0.98620000  1
  C  C236  1  0.64400000  0.41560000  0.47190000  1
  C  C237  1  0.64400000  0.58440000  0.52810000  1
  C  C238  1  0.66700000  0.09580000  0.86460000  1
  C  C239  1  0.66700000  0.90420000  0.13540000  1
  C  C240  1  0.68900000  0.11540000  0.08140000  1
  C  C241  1  0.68900000  0.88460000  0.91860000  1
  C  C242  1  0.70000000  0.34590000  0.39390000  1
  C  C243  1  0.70000000  0.65410000  0.60610000  1
  C  C244  1  0.70300000  0.16120000  0.05380000  1
  C  C245  1  0.70300000  0.83880000  0.94620000  1
  C  C246  1  0.72500000  0.42900000  0.43890000  1
  C  C247  1  0.72500000  0.57100000  0.56110000  1
  C  C248  1  0.74200000  0.40340000  0.62370000  1
  C  C249  1  0.74200000  0.59660000  0.37630000  1
  C  C250  1  0.74600000  0.39400000  0.40000000  1
  C  C251  1  0.74600000  0.60600000  0.60000000  1
  C  C252  1  0.75400000  0.10600000  0.90000000  1
  C  C253  1  0.75400000  0.89400000  0.10000000  1
  C  C254  1  0.75800000  0.09660000  0.12370000  1
  C  C255  1  0.75800000  0.90340000  0.87630000  1
  C  C256  1  0.77500000  0.07100000  0.93890000  1
  C  C257  1  0.77500000  0.92900000  0.06110000  1
  C  C258  1  0.79700000  0.33880000  0.55380000  1
  C  C259  1  0.79700000  0.66120000  0.44620000  1
  C  C260  1  0.80000000  0.15410000  0.89390000  1
  C  C261  1  0.80000000  0.84590000  0.10610000  1
  C  C262  1  0.81100000  0.38460000  0.58140000  1
  C  C263  1  0.81100000  0.61540000  0.41860000  1
  C  C264  1  0.83300000  0.40420000  0.36460000  1
  C  C265  1  0.83300000  0.59580000  0.63540000  1
  C  C266  1  0.85600000  0.08440000  0.97190000  1
  C  C267  1  0.85600000  0.91560000  0.02810000  1
  C  C268  1  0.86300000  0.32410000  0.51380000  1
  C  C269  1  0.86300000  0.67590000  0.48620000  1
  C  C270  1  0.88200000  0.16650000  0.92730000  1
  C  C271  1  0.88200000  0.83350000  0.07270000  1
  C  C272  1  0.89300000  0.41710000  0.56750000  1
  C  C273  1  0.89300000  0.58290000  0.43250000  1
  C  C274  1  0.89800000  0.30890000  0.23510000  1
  C  C275  1  0.89800000  0.69110000  0.76490000  1
  C  C276  1  0.90800000  0.13100000  0.96620000  1
  C  C277  1  0.90800000  0.86900000  0.03380000  1
  C  C278  1  0.91600000  0.18290000  0.32200000  1
  C  C279  1  0.91600000  0.81710000  0.67800000  1
  C  C280  1  0.92500000  0.27510000  0.19580000  1
  C  C281  1  0.92500000  0.72490000  0.80420000  1
  C  C282  1  0.94100000  0.35810000  0.49800000  1
  C  C283  1  0.94100000  0.64190000  0.50200000  1
  C  C284  1  0.94300000  0.22200000  0.35720000  1
  C  C285  1  0.94300000  0.38360000  0.29440000  1
  C  C286  1  0.94300000  0.61640000  0.70560000  1
  C  C287  1  0.94300000  0.77800000  0.64280000  1
  C  C288  1  0.94500000  0.12660000  0.24660000  1
  C  C289  1  0.94500000  0.87340000  0.75340000  1
  C  C290  1  0.95600000  0.40490000  0.52530000  1
  C  C291  1  0.95600000  0.59510000  0.47470000  1
  C  C292  1  0.96600000  0.34840000  0.24990000  1
  C  C293  1  0.96600000  0.65160000  0.75010000  1
  C  C294  1  0.98000000  0.45720000  0.34700000  1
  C  C295  1  0.98000000  0.54280000  0.65300000  1
  C  C296  1  0.98400000  0.16800000  0.28260000  1
  C  C297  1  0.98400000  0.83200000  0.71740000  1
  C  C298  1  0.99800000  0.00760000  0.15170000  1
  C  C299  1  0.99800000  0.99240000  0.84830000  1
  N  N300  1  0.00670000  0.42570000  0.30610000  1
  N  N301  1  0.00670000  0.57430000  0.69390000  1
  N  N302  1  0.10300000  0.37880000  0.44430000  1
  N  N303  1  0.10300000  0.62120000  0.55570000  1
  N  N304  1  0.13800000  0.32650000  0.36930000  1
  N  N305  1  0.13800000  0.67350000  0.63070000  1
  N  N306  1  0.36200000  0.17350000  0.86930000  1
  N  N307  1  0.36200000  0.82650000  0.13070000  1
  N  N308  1  0.39700000  0.12120000  0.94430000  1
  N  N309  1  0.39700000  0.87880000  0.05570000  1
  N  N310  1  0.49330000  0.07430000  0.80610000  1
  N  N311  1  0.49330000  0.92570000  0.19390000  1
  N  N312  1  0.50670000  0.19390000  0.92570000  1
  N  N313  1  0.50670000  0.80610000  0.07430000  1
  N  N314  1  0.60300000  0.05570000  0.87880000  1
  N  N315  1  0.60300000  0.94430000  0.12120000  1
  N  N316  1  0.63800000  0.13070000  0.82650000  1
  N  N317  1  0.63800000  0.86930000  0.17350000  1
  N  N318  1  0.86200000  0.36930000  0.32650000  1
  N  N319  1  0.86200000  0.63070000  0.67350000  1
  N  N320  1  0.89700000  0.44430000  0.37880000  1
  N  N321  1  0.89700000  0.55570000  0.62120000  1
  N  N322  1  0.99330000  0.30610000  0.42570000  1
  N  N323  1  0.99330000  0.69390000  0.57430000  1
  O  O324  1  0.00280000  0.12230000  0.04250000  1
  O  O325  1  0.00280000  0.87770000  0.95750000  1
  O  O326  1  0.00730000  0.12230000  0.20640000  1
  O  O327  1  0.00730000  0.87770000  0.79360000  1
  O  O328  1  0.05460000  0.18760000  0.99500000  1
  O  O329  1  0.05460000  0.81240000  0.00500000  1
  O  O330  1  0.13050000  0.25570000  0.09790000  1
  O  O331  1  0.13050000  0.74430000  0.90210000  1
  O  O332  1  0.16550000  0.12760000  0.12980000  1
  O  O333  1  0.16550000  0.87240000  0.87020000  1
  O  O334  1  0.24140000  0.34780000  0.56190000  1
  O  O335  1  0.24140000  0.65220000  0.43810000  1
  O  O336  1  0.25860000  0.15220000  0.06190000  1
  O  O337  1  0.25860000  0.84780000  0.93810000  1
  O  O338  1  0.33450000  0.37240000  0.62980000  1
  O  O339  1  0.33450000  0.62760000  0.37020000  1
  O  O340  1  0.36950000  0.24430000  0.59790000  1
  O  O341  1  0.36950000  0.75570000  0.40210000  1
  O  O342  1  0.44540000  0.31240000  0.49500000  1
  O  O343  1  0.44540000  0.68760000  0.50500000  1
  O  O344  1  0.49270000  0.37770000  0.70640000  1
  O  O345  1  0.49270000  0.62230000  0.29360000  1
  O  O346  1  0.49720000  0.37770000  0.54250000  1
  O  O347  1  0.49720000  0.62230000  0.45750000  1
  O  O348  1  0.50280000  0.45750000  0.62230000  1
  O  O349  1  0.50280000  0.54250000  0.37770000  1
  O  O350  1  0.50730000  0.29360000  0.62230000  1
  O  O351  1  0.50730000  0.70640000  0.37770000  1
  O  O352  1  0.55460000  0.49500000  0.31240000  1
  O  O353  1  0.55460000  0.50500000  0.68760000  1
  O  O354  1  0.63050000  0.40210000  0.75570000  1
  O  O355  1  0.63050000  0.59790000  0.24430000  1
  O  O356  1  0.66550000  0.37020000  0.62760000  1
  O  O357  1  0.66550000  0.62980000  0.37240000  1
  O  O358  1  0.74140000  0.06190000  0.15220000  1
  O  O359  1  0.74140000  0.93810000  0.84780000  1
  O  O360  1  0.75860000  0.43810000  0.65220000  1
  O  O361  1  0.75860000  0.56190000  0.34780000  1
  O  O362  1  0.83450000  0.12980000  0.12760000  1
  O  O363  1  0.83450000  0.87020000  0.87240000  1
  O  O364  1  0.86950000  0.09790000  0.25570000  1
  O  O365  1  0.86950000  0.90210000  0.74430000  1
  O  O366  1  0.94540000  0.00500000  0.81240000  1
  O  O367  1  0.94540000  0.99500000  0.18760000  1
  O  O368  1  0.99270000  0.20640000  0.12230000  1
  O  O369  1  0.99270000  0.79360000  0.87770000  1
  O  O370  1  0.99720000  0.04250000  0.12230000  1
  O  O371  1  0.99720000  0.95750000  0.87770000  1
