# generated using pymatgen
data_Cd2H25C29N9O4
_symmetry_space_group_name_H-M   'P 1'
_cell_length_a   12.25490000
_cell_length_b   13.56990000
_cell_length_c   38.23200000
_cell_angle_alpha   97.44300000
_cell_angle_beta   90.00000000
_cell_angle_gamma   90.00000000
_symmetry_Int_Tables_number   1
_chemical_formula_structural   Cd2H25C29N9O4
_chemical_formula_sum   'Cd16 H200 C232 N72 O32'
_cell_volume   6304.32603216
_cell_formula_units_Z   8
loop_
 _symmetry_equiv_pos_site_id
 _symmetry_equiv_pos_as_xyz
  1  'x, y, z'
loop_
 _atom_site_type_symbol
 _atom_site_label
 _atom_site_symmetry_multiplicity
 _atom_site_fract_x
 _atom_site_fract_y
 _atom_site_fract_z
 _atom_site_occupancy
  Cd  Cd0  1  0.08027000  0.87271000  0.63643000  1
  Cd  Cd1  1  0.10439000  0.33146000  0.92310000  1
  Cd  Cd2  1  0.17127000  0.51294000  0.44111000  1
  Cd  Cd3  1  0.18221000  0.05141000  0.16389000  1
  Cd  Cd4  1  0.31779000  0.05141000  0.66389000  1
  Cd  Cd5  1  0.32873000  0.51294000  0.94111000  1
  Cd  Cd6  1  0.39561000  0.33146000  0.42310000  1
  Cd  Cd7  1  0.41973000  0.87271000  0.13643000  1
  Cd  Cd8  1  0.58027000  0.12729000  0.86357000  1
  Cd  Cd9  1  0.60439000  0.66854000  0.57690000  1
  Cd  Cd10  1  0.67127000  0.48706000  0.05889000  1
  Cd  Cd11  1  0.68221000  0.94859000  0.33611000  1
  Cd  Cd12  1  0.81779000  0.94859000  0.83611000  1
  Cd  Cd13  1  0.82873000  0.48706000  0.55889000  1
  Cd  Cd14  1  0.89561000  0.66854000  0.07690000  1
  Cd  Cd15  1  0.91973000  0.12729000  0.36356000  1
  H  H16  1  0.00160000  0.83780000  0.48130000  1
  H  H17  1  0.00680000  0.29930000  0.11380000  1
  H  H18  1  0.00920000  0.90550000  0.33070000  1
  H  H19  1  0.02020000  0.78430000  0.37940000  1
  H  H20  1  0.02160000  0.52830000  0.19230000  1
  H  H21  1  0.02920000  0.06120000  0.53200000  1
  H  H22  1  0.03450000  0.15190000  0.28970000  1
  H  H23  1  0.03730000  0.49710000  0.35770000  1
  H  H24  1  0.05300000  0.40370000  0.10800000  1
  H  H25  1  0.05510000  0.64060000  0.79400000  1
  H  H26  1  0.05510000  0.97600000  0.82220000  1
  H  H27  1  0.05620000  0.66590000  0.95110000  1
  H  H28  1  0.06310000  0.27210000  0.83800000  1
  H  H29  1  0.07370000  0.88040000  0.39950000  1
  H  H30  1  0.08420000  0.88940000  0.45810000  1
  H  H31  1  0.08650000  0.46580000  0.68330000  1
  H  H32  1  0.09320000  0.52460000  0.15820000  1
  H  H33  1  0.09650000  0.82150000  0.28260000  1
  H  H34  1  0.09800000  0.79150000  0.55240000  1
  H  H35  1  0.10740000  0.77550000  0.40890000  1
  H  H36  1  0.10770000  0.46230000  0.81440000  1
  H  H37  1  0.11760000  0.78770000  0.84890000  1
  H  H38  1  0.11970000  0.33490000  0.13010000  1
  H  H39  1  0.12060000  0.07420000  0.24110000  1
  H  H40  1  0.12360000  0.45820000  0.18740000  1
  H  H41  1  0.12450000  0.35160000  0.61290000  1
  H  H42  1  0.13950000  0.32370000  0.52040000  1
  H  H43  1  0.13980000  0.98170000  0.76940000  1
  H  H44  1  0.14930000  0.58090000  0.08970000  1
  H  H45  1  0.15220000  0.26970000  0.78560000  1
  H  H46  1  0.15820000  0.04490000  0.97830000  1
  H  H47  1  0.16470000  0.66540000  0.51260000  1
  H  H48  1  0.17220000  0.89090000  0.01970000  1
  H  H49  1  0.17500000  0.79930000  0.96350000  1
  H  H50  1  0.18270000  0.20870000  0.62990000  1
  H  H51  1  0.18530000  0.10130000  0.56030000  1
  H  H52  1  0.18680000  0.74460000  0.81580000  1
  H  H53  1  0.18860000  0.22140000  0.52740000  1
  H  H54  1  0.19960000  0.68620000  0.88000000  1
  H  H55  1  0.20220000  0.03280000  0.36680000  1
  H  H56  1  0.20380000  0.58480000  0.71020000  1
  H  H57  1  0.20410000  0.53650000  0.81110000  1
  H  H58  1  0.20460000  0.90060000  0.88630000  1
  H  H59  1  0.21420000  0.45570000  0.83670000  1
  H  H60  1  0.22090000  0.20410000  0.10260000  1
  H  H61  1  0.22190000  0.70970000  0.12690000  1
  H  H62  1  0.22350000  0.31930000  0.55110000  1
  H  H63  1  0.22370000  0.34880000  0.58630000  1
  H  H64  1  0.23300000  0.64130000  0.34660000  1
  H  H65  1  0.24330000  0.17930000  0.96280000  1
  H  H66  1  0.25670000  0.17930000  0.46280000  1
  H  H67  1  0.26700000  0.64130000  0.84660000  1
  H  H68  1  0.27630000  0.34880000  0.08630000  1
  H  H69  1  0.27650000  0.31930000  0.05110000  1
  H  H70  1  0.27810000  0.70970000  0.62690000  1
  H  H71  1  0.27910000  0.20410000  0.60260000  1
  H  H72  1  0.28580000  0.45570000  0.33670000  1
  H  H73  1  0.29540000  0.90060000  0.38630000  1
  H  H74  1  0.29590000  0.53650000  0.31110000  1
  H  H75  1  0.29620000  0.58480000  0.21020000  1
  H  H76  1  0.29780000  0.03280000  0.86680000  1
  H  H77  1  0.30040000  0.68620000  0.38000000  1
  H  H78  1  0.31140000  0.22140000  0.02740000  1
  H  H79  1  0.31320000  0.74460000  0.31580000  1
  H  H80  1  0.31470000  0.10130000  0.06030000  1
  H  H81  1  0.31730000  0.20870000  0.12990000  1
  H  H82  1  0.32500000  0.79930000  0.46350000  1
  H  H83  1  0.32780000  0.89090000  0.51970000  1
  H  H84  1  0.33530000  0.66540000  0.01260000  1
  H  H85  1  0.34180000  0.04490000  0.47830000  1
  H  H86  1  0.34780000  0.26970000  0.28560000  1
  H  H87  1  0.35070000  0.58090000  0.58970000  1
  H  H88  1  0.36020000  0.98170000  0.26940000  1
  H  H89  1  0.36050000  0.32370000  0.02040000  1
  H  H90  1  0.37550000  0.35160000  0.11290000  1
  H  H91  1  0.37640000  0.45820000  0.68740000  1
  H  H92  1  0.37940000  0.07420000  0.74110000  1
  H  H93  1  0.38030000  0.33490000  0.63010000  1
  H  H94  1  0.38240000  0.78770000  0.34890000  1
  H  H95  1  0.39230000  0.46230000  0.31440000  1
  H  H96  1  0.39260000  0.77550000  0.90890000  1
  H  H97  1  0.40200000  0.79150000  0.05240000  1
  H  H98  1  0.40350000  0.82150000  0.78260000  1
  H  H99  1  0.40680000  0.52460000  0.65820000  1
  H  H100  1  0.41350000  0.46580000  0.18330000  1
  H  H101  1  0.41580000  0.88940000  0.95810000  1
  H  H102  1  0.42630000  0.88040000  0.89950000  1
  H  H103  1  0.43690000  0.27210000  0.33800000  1
  H  H104  1  0.44380000  0.66590000  0.45110000  1
  H  H105  1  0.44490000  0.64060000  0.29400000  1
  H  H106  1  0.44490000  0.97600000  0.32220000  1
  H  H107  1  0.44700000  0.40370000  0.60800000  1
  H  H108  1  0.46270000  0.49710000  0.85770000  1
  H  H109  1  0.46550000  0.15190000  0.78970000  1
  H  H110  1  0.47080000  0.06120000  0.03200000  1
  H  H111  1  0.47840000  0.52830000  0.69230000  1
  H  H112  1  0.47980000  0.78430000  0.87940000  1
  H  H113  1  0.49080000  0.90550000  0.83070000  1
  H  H114  1  0.49320000  0.29930000  0.61380000  1
  H  H115  1  0.49840000  0.83780000  0.98130000  1
  H  H116  1  0.50160000  0.16220000  0.01870000  1
  H  H117  1  0.50680000  0.70070000  0.38620000  1
  H  H118  1  0.50920000  0.09450000  0.16930000  1
  H  H119  1  0.52020000  0.21570000  0.12060000  1
  H  H120  1  0.52160000  0.47170000  0.30770000  1
  H  H121  1  0.52920000  0.93880000  0.96800000  1
  H  H122  1  0.53450000  0.84810000  0.21030000  1
  H  H123  1  0.53730000  0.50290000  0.14230000  1
  H  H124  1  0.55300000  0.59630000  0.39200000  1
  H  H125  1  0.55510000  0.02400000  0.67780000  1
  H  H126  1  0.55510000  0.35940000  0.70600000  1
  H  H127  1  0.55620000  0.33410000  0.54890000  1
  H  H128  1  0.56310000  0.72790000  0.66200000  1
  H  H129  1  0.57370000  0.11960000  0.10050000  1
  H  H130  1  0.58420000  0.11060000  0.04190000  1
  H  H131  1  0.58650000  0.53420000  0.81670000  1
  H  H132  1  0.59320000  0.47540000  0.34180000  1
  H  H133  1  0.59650000  0.17850000  0.21740000  1
  H  H134  1  0.59800000  0.20850000  0.94760000  1
  H  H135  1  0.60740000  0.22450000  0.09110000  1
  H  H136  1  0.60770000  0.53770000  0.68560000  1
  H  H137  1  0.61760000  0.21230000  0.65110000  1
  H  H138  1  0.61970000  0.66510000  0.36990000  1
  H  H139  1  0.62060000  0.92580000  0.25890000  1
  H  H140  1  0.62360000  0.54180000  0.31260000  1
  H  H141  1  0.62450000  0.64840000  0.88710000  1
  H  H142  1  0.63950000  0.67630000  0.97960000  1
  H  H143  1  0.63980000  0.01830000  0.73060000  1
  H  H144  1  0.64930000  0.41910000  0.41030000  1
  H  H145  1  0.65220000  0.73030000  0.71440000  1
  H  H146  1  0.65820000  0.95510000  0.52170000  1
  H  H147  1  0.66470000  0.33460000  0.98740000  1
  H  H148  1  0.67220000  0.10910000  0.48030000  1
  H  H149  1  0.67500000  0.20070000  0.53650000  1
  H  H150  1  0.68270000  0.79130000  0.87010000  1
  H  H151  1  0.68530000  0.89870000  0.93970000  1
  H  H152  1  0.68680000  0.25540000  0.68420000  1
  H  H153  1  0.68860000  0.77860000  0.97260000  1
  H  H154  1  0.69960000  0.31380000  0.62000000  1
  H  H155  1  0.70220000  0.96720000  0.13320000  1
  H  H156  1  0.70380000  0.41520000  0.78980000  1
  H  H157  1  0.70410000  0.46350000  0.68890000  1
  H  H158  1  0.70460000  0.09940000  0.61370000  1
  H  H159  1  0.71420000  0.54430000  0.66330000  1
  H  H160  1  0.72090000  0.79590000  0.39740000  1
  H  H161  1  0.72190000  0.29030000  0.37310000  1
  H  H162  1  0.72350000  0.68070000  0.94890000  1
  H  H163  1  0.72370000  0.65120000  0.91370000  1
  H  H164  1  0.73300000  0.35870000  0.15340000  1
  H  H165  1  0.74330000  0.82070000  0.53720000  1
  H  H166  1  0.75670000  0.82070000  0.03720000  1
  H  H167  1  0.76700000  0.35870000  0.65340000  1
  H  H168  1  0.77630000  0.65120000  0.41370000  1
  H  H169  1  0.77650000  0.68070000  0.44890000  1
  H  H170  1  0.77810000  0.29030000  0.87310000  1
  H  H171  1  0.77910000  0.79590000  0.89740000  1
  H  H172  1  0.78580000  0.54430000  0.16330000  1
  H  H173  1  0.79540000  0.09940000  0.11370000  1
  H  H174  1  0.79590000  0.46350000  0.18890000  1
  H  H175  1  0.79620000  0.41520000  0.28980000  1
  H  H176  1  0.79780000  0.96720000  0.63320000  1
  H  H177  1  0.80040000  0.31380000  0.12000000  1
  H  H178  1  0.81140000  0.77860000  0.47260000  1
  H  H179  1  0.81320000  0.25540000  0.18420000  1
  H  H180  1  0.81470000  0.89870000  0.43970000  1
  H  H181  1  0.81730000  0.79130000  0.37010000  1
  H  H182  1  0.82500000  0.20070000  0.03650000  1
  H  H183  1  0.82780000  0.10910000  0.98030000  1
  H  H184  1  0.83530000  0.33460000  0.48740000  1
  H  H185  1  0.84180000  0.95510000  0.02170000  1
  H  H186  1  0.84780000  0.73030000  0.21440000  1
  H  H187  1  0.85070000  0.41910000  0.91030000  1
  H  H188  1  0.86020000  0.01830000  0.23060000  1
  H  H189  1  0.86050000  0.67630000  0.47960000  1
  H  H190  1  0.87550000  0.64840000  0.38710000  1
  H  H191  1  0.87640000  0.54180000  0.81260000  1
  H  H192  1  0.87940000  0.92580000  0.75890000  1
  H  H193  1  0.88030000  0.66510000  0.86990000  1
  H  H194  1  0.88240000  0.21230000  0.15110000  1
  H  H195  1  0.89230000  0.53770000  0.18560000  1
  H  H196  1  0.89260000  0.22450000  0.59110000  1
  H  H197  1  0.90200000  0.20850000  0.44760000  1
  H  H198  1  0.90350000  0.17850000  0.71740000  1
  H  H199  1  0.90680000  0.47540000  0.84180000  1
  H  H200  1  0.91350000  0.53420000  0.31670000  1
  H  H201  1  0.91580000  0.11060000  0.54190000  1
  H  H202  1  0.92630000  0.11960000  0.60050000  1
  H  H203  1  0.93690000  0.72790000  0.16200000  1
  H  H204  1  0.94380000  0.33410000  0.04890000  1
  H  H205  1  0.94490000  0.02400000  0.17780000  1
  H  H206  1  0.94490000  0.35940000  0.20600000  1
  H  H207  1  0.94700000  0.59630000  0.89200000  1
  H  H208  1  0.96270000  0.50290000  0.64230000  1
  H  H209  1  0.96550000  0.84810000  0.71030000  1
  H  H210  1  0.97080000  0.93880000  0.46800000  1
  H  H211  1  0.97840000  0.47170000  0.80770000  1
  H  H212  1  0.97980000  0.21570000  0.62060000  1
  H  H213  1  0.99080000  0.09450000  0.66930000  1
  H  H214  1  0.99320000  0.70070000  0.88620000  1
  H  H215  1  0.99840000  0.16220000  0.51870000  1
  C  C216  1  0.00160000  0.64710000  0.64630000  1
  C  C217  1  0.00630000  0.32410000  0.00010000  1
  C  C218  1  0.00670000  0.87820000  0.12930000  1
  C  C219  1  0.00810000  0.55190000  0.65350000  1
  C  C220  1  0.00810000  0.59860000  0.84300000  1
  C  C221  1  0.00850000  0.87680000  0.46210000  1
  C  C222  1  0.00990000  0.64830000  0.44080000  1
  C  C223  1  0.03230000  0.94020000  0.31260000  1
  C  C224  1  0.03640000  0.67590000  0.81720000  1
  C  C225  1  0.04100000  0.17960000  0.57100000  1
  C  C226  1  0.04740000  0.08400000  0.28840000  1
  C  C227  1  0.04780000  0.35580000  0.12430000  1
  C  C228  1  0.04810000  0.81460000  0.40170000  1
  C  C229  1  0.05060000  0.12430000  0.83630000  1
  C  C230  1  0.05670000  0.85090000  0.07670000  1
  C  C231  1  0.05880000  0.70160000  0.97350000  1
  C  C232  1  0.05950000  0.25450000  0.18650000  1
  C  C233  1  0.06190000  0.80470000  0.04000000  1
  C  C234  1  0.06450000  0.48620000  0.17550000  1
  C  C235  1  0.07370000  0.03680000  0.81510000  1
  C  C236  1  0.07790000  0.31520000  0.37780000  1
  C  C237  1  0.07910000  0.21180000  0.82460000  1
  C  C238  1  0.08010000  0.27330000  0.56100000  1
  C  C239  1  0.08290000  0.53030000  0.67760000  1
  C  C240  1  0.08590000  0.88970000  0.28360000  1
  C  C241  1  0.08750000  0.40590000  0.00420000  1
  C  C242  1  0.10020000  0.03820000  0.25910000  1
  C  C243  1  0.12070000  0.03510000  0.60130000  1
  C  C244  1  0.12310000  0.56180000  0.85240000  1
  C  C245  1  0.12310000  0.93600000  0.25690000  1
  C  C246  1  0.12460000  0.04110000  0.78350000  1
  C  C247  1  0.12610000  0.50530000  0.88380000  1
  C  C248  1  0.12810000  0.83520000  0.01460000  1
  C  C249  1  0.12840000  0.78150000  0.98080000  1
  C  C250  1  0.13130000  0.20960000  0.79280000  1
  C  C251  1  0.13790000  0.72720000  0.83400000  1
  C  C252  1  0.14110000  0.12250000  0.58130000  1
  C  C253  1  0.14370000  0.69510000  0.68440000  1
  C  C254  1  0.14930000  0.74870000  0.56010000  1
  C  C255  1  0.15270000  0.60020000  0.69370000  1
  C  C256  1  0.16270000  0.31140000  0.59400000  1
  C  C257  1  0.16420000  0.28530000  0.53830000  1
  C  C258  1  0.16500000  0.50000000  0.82700000  1
  C  C259  1  0.17130000  0.21260000  0.40200000  1
  C  C260  1  0.18410000  0.04260000  0.95530000  1
  C  C261  1  0.18530000  0.88560000  0.22710000  1
  C  C262  1  0.18860000  0.52420000  0.02250000  1
  C  C263  1  0.18890000  0.67230000  0.53590000  1
  C  C264  1  0.19410000  0.65680000  0.85560000  1
  C  C265  1  0.20060000  0.21090000  0.60530000  1
  C  C266  1  0.20110000  0.62240000  0.08150000  1
  C  C267  1  0.21180000  0.95900000  0.90170000  1
  C  C268  1  0.21480000  0.78170000  0.69770000  1
  C  C269  1  0.22000000  0.12140000  0.41310000  1
  C  C270  1  0.23080000  0.03770000  0.38950000  1
  C  C271  1  0.23640000  0.12270000  0.94640000  1
  C  C272  1  0.23640000  0.60700000  0.04630000  1
  C  C273  1  0.24520000  0.70040000  0.10350000  1
  C  C274  1  0.25480000  0.70040000  0.60350000  1
  C  C275  1  0.26360000  0.12270000  0.44640000  1
  C  C276  1  0.26360000  0.60700000  0.54630000  1
  C  C277  1  0.26920000  0.03770000  0.88950000  1
  C  C278  1  0.28000000  0.12140000  0.91310000  1
  C  C279  1  0.28520000  0.78170000  0.19770000  1
  C  C280  1  0.28820000  0.95900000  0.40170000  1
  C  C281  1  0.29890000  0.62240000  0.58150000  1
  C  C282  1  0.29940000  0.21090000  0.10530000  1
  C  C283  1  0.30590000  0.65680000  0.35560000  1
  C  C284  1  0.31110000  0.67230000  0.03590000  1
  C  C285  1  0.31140000  0.52420000  0.52250000  1
  C  C286  1  0.31470000  0.88560000  0.72710000  1
  C  C287  1  0.31590000  0.04260000  0.45530000  1
  C  C288  1  0.32870000  0.21260000  0.90200000  1
  C  C289  1  0.33500000  0.50000000  0.32700000  1
  C  C290  1  0.33580000  0.28530000  0.03830000  1
  C  C291  1  0.33730000  0.31140000  0.09400000  1
  C  C292  1  0.34730000  0.60020000  0.19370000  1
  C  C293  1  0.35070000  0.74870000  0.06010000  1
  C  C294  1  0.35630000  0.69510000  0.18440000  1
  C  C295  1  0.35890000  0.12250000  0.08130000  1
  C  C296  1  0.36210000  0.72720000  0.33400000  1
  C  C297  1  0.36870000  0.20960000  0.29280000  1
  C  C298  1  0.37160000  0.78150000  0.48080000  1
  C  C299  1  0.37190000  0.83520000  0.51460000  1
  C  C300  1  0.37390000  0.50530000  0.38380000  1
  C  C301  1  0.37540000  0.04110000  0.28350000  1
  C  C302  1  0.37690000  0.56180000  0.35240000  1
  C  C303  1  0.37690000  0.93600000  0.75690000  1
  C  C304  1  0.37930000  0.03510000  0.10130000  1
  C  C305  1  0.39980000  0.03820000  0.75910000  1
  C  C306  1  0.41250000  0.40590000  0.50420000  1
  C  C307  1  0.41410000  0.88970000  0.78360000  1
  C  C308  1  0.41710000  0.53030000  0.17760000  1
  C  C309  1  0.41990000  0.27330000  0.06100000  1
  C  C310  1  0.42090000  0.21180000  0.32460000  1
  C  C311  1  0.42210000  0.31520000  0.87780000  1
  C  C312  1  0.42630000  0.03680000  0.31510000  1
  C  C313  1  0.43550000  0.48620000  0.67550000  1
  C  C314  1  0.43810000  0.80470000  0.54000000  1
  C  C315  1  0.44050000  0.25450000  0.68650000  1
  C  C316  1  0.44120000  0.70160000  0.47350000  1
  C  C317  1  0.44330000  0.85090000  0.57670000  1
  C  C318  1  0.44940000  0.12430000  0.33630000  1
  C  C319  1  0.45190000  0.81460000  0.90170000  1
  C  C320  1  0.45220000  0.35580000  0.62430000  1
  C  C321  1  0.45260000  0.08400000  0.78840000  1
  C  C322  1  0.45900000  0.17960000  0.07100000  1
  C  C323  1  0.46360000  0.67590000  0.31720000  1
  C  C324  1  0.46770000  0.94020000  0.81260000  1
  C  C325  1  0.49010000  0.64830000  0.94080000  1
  C  C326  1  0.49150000  0.87680000  0.96210000  1
  C  C327  1  0.49190000  0.55190000  0.15350000  1
  C  C328  1  0.49190000  0.59860000  0.34300000  1
  C  C329  1  0.49330000  0.87820000  0.62930000  1
  C  C330  1  0.49370000  0.32410000  0.50010000  1
  C  C331  1  0.49840000  0.64710000  0.14630000  1
  C  C332  1  0.50160000  0.35290000  0.85370000  1
  C  C333  1  0.50630000  0.67590000  0.49990000  1
  C  C334  1  0.50670000  0.12180000  0.37070000  1
  C  C335  1  0.50810000  0.40140000  0.65700000  1
  C  C336  1  0.50810000  0.44810000  0.84650000  1
  C  C337  1  0.50850000  0.12320000  0.03790000  1
  C  C338  1  0.50990000  0.35170000  0.05920000  1
  C  C339  1  0.53230000  0.05980000  0.18740000  1
  C  C340  1  0.53640000  0.32410000  0.68280000  1
  C  C341  1  0.54100000  0.82040000  0.92900000  1
  C  C342  1  0.54740000  0.91600000  0.21160000  1
  C  C343  1  0.54780000  0.64420000  0.37570000  1
  C  C344  1  0.54810000  0.18540000  0.09830000  1
  C  C345  1  0.55060000  0.87570000  0.66370000  1
  C  C346  1  0.55670000  0.14910000  0.42330000  1
  C  C347  1  0.55880000  0.29840000  0.52650000  1
  C  C348  1  0.55950000  0.74550000  0.31350000  1
  C  C349  1  0.56190000  0.19530000  0.46000000  1
  C  C350  1  0.56450000  0.51380000  0.32450000  1
  C  C351  1  0.57370000  0.96320000  0.68490000  1
  C  C352  1  0.57790000  0.68480000  0.12220000  1
  C  C353  1  0.57910000  0.78820000  0.67540000  1
  C  C354  1  0.58010000  0.72670000  0.93900000  1
  C  C355  1  0.58290000  0.46970000  0.82240000  1
  C  C356  1  0.58590000  0.11030000  0.21640000  1
  C  C357  1  0.58750000  0.59410000  0.49580000  1
  C  C358  1  0.60020000  0.96180000  0.24090000  1
  C  C359  1  0.62070000  0.96490000  0.89870000  1
  C  C360  1  0.62310000  0.06400000  0.24310000  1
  C  C361  1  0.62310000  0.43820000  0.64760000  1
  C  C362  1  0.62460000  0.95890000  0.71650000  1
  C  C363  1  0.62610000  0.49470000  0.61620000  1
  C  C364  1  0.62810000  0.16480000  0.48540000  1
  C  C365  1  0.62840000  0.21850000  0.51920000  1
  C  C366  1  0.63130000  0.79040000  0.70720000  1
  C  C367  1  0.63790000  0.27280000  0.66600000  1
  C  C368  1  0.64110000  0.87750000  0.91870000  1
  C  C369  1  0.64370000  0.30490000  0.81560000  1
  C  C370  1  0.64930000  0.25130000  0.93990000  1
  C  C371  1  0.65270000  0.39980000  0.80630000  1
  C  C372  1  0.66270000  0.68860000  0.90600000  1
  C  C373  1  0.66420000  0.71470000  0.96170000  1
  C  C374  1  0.66500000  0.50000000  0.67300000  1
  C  C375  1  0.67130000  0.78740000  0.09800000  1
  C  C376  1  0.68410000  0.95740000  0.54470000  1
  C  C377  1  0.68530000  0.11440000  0.27290000  1
  C  C378  1  0.68860000  0.47580000  0.47750000  1
  C  C379  1  0.68890000  0.32770000  0.96410000  1
  C  C380  1  0.69410000  0.34320000  0.64440000  1
  C  C381  1  0.70060000  0.78910000  0.89470000  1
  C  C382  1  0.70110000  0.37760000  0.41850000  1
  C  C383  1  0.71180000  0.04100000  0.59830000  1
  C  C384  1  0.71480000  0.21830000  0.80230000  1
  C  C385  1  0.72000000  0.87860000  0.08690000  1
  C  C386  1  0.73080000  0.96230000  0.11050000  1
  C  C387  1  0.73640000  0.39300000  0.45370000  1
  C  C388  1  0.73640000  0.87730000  0.55360000  1
  C  C389  1  0.74520000  0.29960000  0.39650000  1
  C  C390  1  0.75480000  0.29960000  0.89650000  1
  C  C391  1  0.76360000  0.39300000  0.95370000  1
  C  C392  1  0.76360000  0.87730000  0.05360000  1
  C  C393  1  0.76920000  0.96230000  0.61050000  1
  C  C394  1  0.78000000  0.87860000  0.58690000  1
  C  C395  1  0.78520000  0.21830000  0.30230000  1
  C  C396  1  0.78820000  0.04100000  0.09830000  1
  C  C397  1  0.79890000  0.37760000  0.91850000  1
  C  C398  1  0.79940000  0.78910000  0.39470000  1
  C  C399  1  0.80590000  0.34320000  0.14440000  1
  C  C400  1  0.81110000  0.32770000  0.46410000  1
  C  C401  1  0.81140000  0.47580000  0.97750000  1
  C  C402  1  0.81470000  0.11440000  0.77290000  1
  C  C403  1  0.81590000  0.95740000  0.04470000  1
  C  C404  1  0.82870000  0.78740000  0.59800000  1
  C  C405  1  0.83500000  0.50000000  0.17300000  1
  C  C406  1  0.83580000  0.71470000  0.46170000  1
  C  C407  1  0.83730000  0.68860000  0.40600000  1
  C  C408  1  0.84730000  0.39980000  0.30630000  1
  C  C409  1  0.85070000  0.25130000  0.43990000  1
  C  C410  1  0.85630000  0.30490000  0.31560000  1
  C  C411  1  0.85890000  0.87750000  0.41870000  1
  C  C412  1  0.86210000  0.27280000  0.16600000  1
  C  C413  1  0.86870000  0.79040000  0.20720000  1
  C  C414  1  0.87160000  0.21850000  0.01920000  1
  C  C415  1  0.87190000  0.16480000  0.98540000  1
  C  C416  1  0.87390000  0.49470000  0.11620000  1
  C  C417  1  0.87540000  0.95890000  0.21650000  1
  C  C418  1  0.87690000  0.06400000  0.74310000  1
  C  C419  1  0.87690000  0.43820000  0.14760000  1
  C  C420  1  0.87930000  0.96490000  0.39870000  1
  C  C421  1  0.89980000  0.96180000  0.74090000  1
  C  C422  1  0.91250000  0.59410000  0.99580000  1
  C  C423  1  0.91410000  0.11030000  0.71640000  1
  C  C424  1  0.91710000  0.46970000  0.32240000  1
  C  C425  1  0.91990000  0.72670000  0.43900000  1
  C  C426  1  0.92090000  0.78820000  0.17540000  1
  C  C427  1  0.92210000  0.68480000  0.62220000  1
  C  C428  1  0.92630000  0.96320000  0.18490000  1
  C  C429  1  0.93550000  0.51380000  0.82450000  1
  C  C430  1  0.93810000  0.19530000  0.96000000  1
  C  C431  1  0.94050000  0.74550000  0.81350000  1
  C  C432  1  0.94120000  0.29840000  0.02650000  1
  C  C433  1  0.94330000  0.14910000  0.92330000  1
  C  C434  1  0.94940000  0.87570000  0.16370000  1
  C  C435  1  0.95190000  0.18540000  0.59830000  1
  C  C436  1  0.95220000  0.64420000  0.87570000  1
  C  C437  1  0.95260000  0.91600000  0.71160000  1
  C  C438  1  0.95900000  0.82040000  0.42900000  1
  C  C439  1  0.96360000  0.32410000  0.18280000  1
  C  C440  1  0.96770000  0.05980000  0.68740000  1
  C  C441  1  0.99010000  0.35170000  0.55920000  1
  C  C442  1  0.99150000  0.12320000  0.53790000  1
  C  C443  1  0.99190000  0.40140000  0.15700000  1
  C  C444  1  0.99190000  0.44810000  0.34650000  1
  C  C445  1  0.99330000  0.12180000  0.87070000  1
  C  C446  1  0.99370000  0.67590000  0.99990000  1
  C  C447  1  0.99840000  0.35290000  0.35370000  1
  N  N448  1  0.00440000  0.27530000  0.96746000  1
  N  N449  1  0.01030000  0.18550000  0.89972000  1
  N  N450  1  0.01360000  0.03760000  0.31480000  1
  N  N451  1  0.06920000  0.71760000  0.66123000  1
  N  N452  1  0.08060000  0.94790000  0.12420000  1
  N  N453  1  0.08480000  0.21610000  0.38120000  1
  N  N454  1  0.10800000  0.46760000  0.03380000  1
  N  N455  1  0.11250000  0.93110000  0.08980000  1
  N  N456  1  0.14780000  0.42160000  0.97681000  1
  N  N457  1  0.15380000  0.12620000  0.77170000  1
  N  N458  1  0.15520000  0.36840000  0.39650000  1
  N  N459  1  0.16730000  0.96090000  0.93330000  1
  N  N460  1  0.18050000  0.76440000  0.59360000  1
  N  N461  1  0.21490000  0.92580000  0.19844000  1
  N  N462  1  0.21530000  0.50070000  0.98838000  1
  N  N463  1  0.21670000  0.29940000  0.41170000  1
  N  N464  1  0.22090000  0.85820000  0.67915000  1
  N  N465  1  0.22730000  0.79330000  0.22752000  1
  N  N466  1  0.27270000  0.79330000  0.72752000  1
  N  N467  1  0.27910000  0.85820000  0.17915000  1
  N  N468  1  0.28330000  0.29940000  0.91170000  1
  N  N469  1  0.28470000  0.50070000  0.48838000  1
  N  N470  1  0.28510000  0.92580000  0.69844000  1
  N  N471  1  0.31950000  0.76440000  0.09360000  1
  N  N472  1  0.33270000  0.96090000  0.43330000  1
  N  N473  1  0.34480000  0.36840000  0.89650000  1
  N  N474  1  0.34620000  0.12620000  0.27170000  1
  N  N475  1  0.35220000  0.42160000  0.47681000  1
  N  N476  1  0.38750000  0.93110000  0.58980000  1
  N  N477  1  0.39200000  0.46760000  0.53380000  1
  N  N478  1  0.41520000  0.21610000  0.88120000  1
  N  N479  1  0.41940000  0.94790000  0.62420000  1
  N  N480  1  0.43080000  0.71760000  0.16123000  1
  N  N481  1  0.48640000  0.03760000  0.81480000  1
  N  N482  1  0.48970000  0.18550000  0.39972000  1
  N  N483  1  0.49560000  0.27530000  0.46746000  1
  N  N484  1  0.50440000  0.72470000  0.53254000  1
  N  N485  1  0.51030000  0.81450000  0.60028000  1
  N  N486  1  0.51360000  0.96240000  0.18520000  1
  N  N487  1  0.56920000  0.28240000  0.83877000  1
  N  N488  1  0.58060000  0.05210000  0.37580000  1
  N  N489  1  0.58480000  0.78390000  0.11880000  1
  N  N490  1  0.60800000  0.53240000  0.46620000  1
  N  N491  1  0.61250000  0.06890000  0.41020000  1
  N  N492  1  0.64780000  0.57840000  0.52319000  1
  N  N493  1  0.65380000  0.87380000  0.72830000  1
  N  N494  1  0.65520000  0.63160000  0.10350000  1
  N  N495  1  0.66730000  0.03910000  0.56670000  1
  N  N496  1  0.68050000  0.23560000  0.90640000  1
  N  N497  1  0.71490000  0.07420000  0.30156000  1
  N  N498  1  0.71530000  0.49930000  0.51162000  1
  N  N499  1  0.71670000  0.70060000  0.08830000  1
  N  N500  1  0.72090000  0.14180000  0.82085000  1
  N  N501  1  0.72730000  0.20670000  0.27248000  1
  N  N502  1  0.77270000  0.20670000  0.77248000  1
  N  N503  1  0.77910000  0.14180000  0.32085000  1
  N  N504  1  0.78330000  0.70060000  0.58830000  1
  N  N505  1  0.78470000  0.49930000  0.01162000  1
  N  N506  1  0.78510000  0.07420000  0.80156000  1
  N  N507  1  0.81950000  0.23560000  0.40640000  1
  N  N508  1  0.83270000  0.03910000  0.06670000  1
  N  N509  1  0.84480000  0.63160000  0.60350000  1
  N  N510  1  0.84620000  0.87380000  0.22830000  1
  N  N511  1  0.85220000  0.57840000  0.02319000  1
  N  N512  1  0.88750000  0.06890000  0.91020000  1
  N  N513  1  0.89200000  0.53240000  0.96620000  1
  N  N514  1  0.91520000  0.78390000  0.61880000  1
  N  N515  1  0.91940000  0.05210000  0.87580000  1
  N  N516  1  0.93080000  0.28240000  0.33877000  1
  N  N517  1  0.98640000  0.96240000  0.68520000  1
  N  N518  1  0.98970000  0.81450000  0.10028000  1
  N  N519  1  0.99560000  0.72470000  0.03254000  1
  O  O520  1  0.03890000  0.59380000  0.41560000  1
  O  O521  1  0.04790000  0.63760000  0.46830000  1
  O  O522  1  0.05340000  0.96910000  0.59060000  1
  O  O523  1  0.05730000  0.16920000  0.16940000  1
  O  O524  1  0.07210000  0.42350000  0.88195000  1
  O  O525  1  0.13250000  0.28430000  0.20700000  1
  O  O526  1  0.16860000  0.03000000  0.63029000  1
  O  O527  1  0.17860000  0.54020000  0.91025000  1
  O  O528  1  0.32140000  0.54020000  0.41025000  1
  O  O529  1  0.33140000  0.03000000  0.13029000  1
  O  O530  1  0.36750000  0.28430000  0.70700000  1
  O  O531  1  0.42790000  0.42350000  0.38195000  1
  O  O532  1  0.44270000  0.16920000  0.66940000  1
  O  O533  1  0.44660000  0.96910000  0.09060000  1
  O  O534  1  0.45210000  0.63760000  0.96830000  1
  O  O535  1  0.46110000  0.59380000  0.91560000  1
  O  O536  1  0.53890000  0.40620000  0.08440000  1
  O  O537  1  0.54790000  0.36240000  0.03170000  1
  O  O538  1  0.55340000  0.03090000  0.90940000  1
  O  O539  1  0.55730000  0.83080000  0.33060000  1
  O  O540  1  0.57210000  0.57650000  0.61805000  1
  O  O541  1  0.63250000  0.71570000  0.29300000  1
  O  O542  1  0.66860000  0.97000000  0.86971000  1
  O  O543  1  0.67860000  0.45980000  0.58975000  1
  O  O544  1  0.82140000  0.45980000  0.08975000  1
  O  O545  1  0.83140000  0.97000000  0.36971000  1
  O  O546  1  0.86750000  0.71570000  0.79300000  1
  O  O547  1  0.92790000  0.57650000  0.11805000  1
  O  O548  1  0.94270000  0.83080000  0.83060000  1
  O  O549  1  0.94660000  0.03090000  0.40940000  1
  O  O550  1  0.95210000  0.36240000  0.53170000  1
  O  O551  1  0.96110000  0.40620000  0.58440000  1
