# generated using pymatgen
data_Cd3H28C46(NO4)3
_symmetry_space_group_name_H-M   'P 1'
_cell_length_a   11.78650000
_cell_length_b   16.71600000
_cell_length_c   52.89200000
_cell_angle_alpha   90.00000000
_cell_angle_beta   90.00000000
_cell_angle_gamma   90.00000000
_symmetry_Int_Tables_number   1
_chemical_formula_structural   Cd3H28C46(NO4)3
_chemical_formula_sum   'Cd24 H224 C368 N24 O96'
_cell_volume   10420.94760353
_cell_formula_units_Z   8
loop_
 _symmetry_equiv_pos_site_id
 _symmetry_equiv_pos_as_xyz
  1  'x, y, z'
loop_
 _atom_site_type_symbol
 _atom_site_label
 _atom_site_symmetry_multiplicity
 _atom_site_fract_x
 _atom_site_fract_y
 _atom_site_fract_z
 _atom_site_occupancy
  Cd  Cd0  1  0.02490000  0.32415000  0.88513000  1
  Cd  Cd1  1  0.02490000  0.67585000  0.38513000  1
  Cd  Cd2  1  0.06716000  0.30678000  0.54942000  1
  Cd  Cd3  1  0.06716000  0.69322000  0.04942000  1
  Cd  Cd4  1  0.08465000  0.33579000  0.67779000  1
  Cd  Cd5  1  0.08465000  0.66421000  0.17779000  1
  Cd  Cd6  1  0.41535000  0.16421000  0.17779000  1
  Cd  Cd7  1  0.41535000  0.83579000  0.67779000  1
  Cd  Cd8  1  0.43284000  0.19322000  0.04942000  1
  Cd  Cd9  1  0.43284000  0.80678000  0.54942000  1
  Cd  Cd10  1  0.47510000  0.17585000  0.38513000  1
  Cd  Cd11  1  0.47510000  0.82415000  0.88513000  1
  Cd  Cd12  1  0.52490000  0.17585000  0.11487000  1
  Cd  Cd13  1  0.52490000  0.82415000  0.61487000  1
  Cd  Cd14  1  0.56716000  0.19322000  0.45058000  1
  Cd  Cd15  1  0.56716000  0.80678000  0.95058000  1
  Cd  Cd16  1  0.58465000  0.16421000  0.32221000  1
  Cd  Cd17  1  0.58465000  0.83579000  0.82221000  1
  Cd  Cd18  1  0.91535000  0.33579000  0.82221000  1
  Cd  Cd19  1  0.91535000  0.66421000  0.32221000  1
  Cd  Cd20  1  0.93284000  0.30678000  0.95058000  1
  Cd  Cd21  1  0.93284000  0.69322000  0.45058000  1
  Cd  Cd22  1  0.97510000  0.32415000  0.61487000  1
  Cd  Cd23  1  0.97510000  0.67585000  0.11487000  1
  H  H24  1  0.04930000  0.04860000  0.27720000  1
  H  H25  1  0.04930000  0.95140000  0.77720000  1
  H  H26  1  0.04940000  0.04300000  0.18570000  1
  H  H27  1  0.04940000  0.95700000  0.68570000  1
  H  H28  1  0.07030000  0.45570000  0.40390000  1
  H  H29  1  0.07030000  0.54430000  0.90390000  1
  H  H30  1  0.07730000  0.27330000  0.73370000  1
  H  H31  1  0.07730000  0.72670000  0.23370000  1
  H  H32  1  0.09930000  0.25250000  0.99210000  1
  H  H33  1  0.09930000  0.74750000  0.49210000  1
  H  H34  1  0.09950000  0.11470000  0.86920000  1
  H  H35  1  0.09950000  0.88530000  0.36920000  1
  H  H36  1  0.10920000  0.15920000  0.62840000  1
  H  H37  1  0.10920000  0.84080000  0.12840000  1
  H  H38  1  0.12260000  0.20210000  0.03170000  1
  H  H39  1  0.12260000  0.79790000  0.53170000  1
  H  H40  1  0.13520000  0.47620000  0.59560000  1
  H  H41  1  0.13520000  0.52380000  0.09560000  1
  H  H42  1  0.13670000  0.09540000  0.95850000  1
  H  H43  1  0.13670000  0.90460000  0.45850000  1
  H  H44  1  0.14480000  0.18980000  0.07030000  1
  H  H45  1  0.14480000  0.81020000  0.57030000  1
  H  H46  1  0.16390000  0.27960000  0.77250000  1
  H  H47  1  0.16390000  0.72040000  0.27250000  1
  H  H48  1  0.16400000  0.03420000  0.24740000  1
  H  H49  1  0.16400000  0.96580000  0.74740000  1
  H  H50  1  0.16560000  0.20050000  0.34510000  1
  H  H51  1  0.16560000  0.79950000  0.84510000  1
  H  H52  1  0.16600000  0.15460000  0.11130000  1
  H  H53  1  0.16600000  0.84540000  0.61130000  1
  H  H54  1  0.16920000  0.05330000  0.65260000  1
  H  H55  1  0.16920000  0.94670000  0.15260000  1
  H  H56  1  0.17030000  0.13530000  0.38090000  1
  H  H57  1  0.17030000  0.86470000  0.88090000  1
  H  H58  1  0.17410000  0.46790000  0.30300000  1
  H  H59  1  0.17410000  0.53210000  0.80300000  1
  H  H60  1  0.18300000  0.34620000  0.39800000  1
  H  H61  1  0.18300000  0.65380000  0.89800000  1
  H  H62  1  0.18900000  0.41300000  0.07220000  1
  H  H63  1  0.18900000  0.58700000  0.57220000  1
  H  H64  1  0.19160000  0.17080000  0.42200000  1
  H  H65  1  0.19160000  0.82920000  0.92200000  1
  H  H66  1  0.19960000  0.13510000  0.79720000  1
  H  H67  1  0.19960000  0.86490000  0.29720000  1
  H  H68  1  0.20630000  0.22140000  0.45920000  1
  H  H69  1  0.20630000  0.77860000  0.95920000  1
  H  H70  1  0.21450000  0.27580000  0.49840000  1
  H  H71  1  0.21450000  0.72420000  0.99840000  1
  H  H72  1  0.22110000  0.00860000  0.87420000  1
  H  H73  1  0.22110000  0.99140000  0.37420000  1
  H  H74  1  0.23660000  0.29590000  0.80770000  1
  H  H75  1  0.23660000  0.70410000  0.30770000  1
  H  H76  1  0.23960000  0.45380000  0.71040000  1
  H  H77  1  0.23960000  0.54620000  0.21040000  1
  H  H78  1  0.24540000  0.48710000  0.96560000  1
  H  H79  1  0.24540000  0.51290000  0.46560000  1
  H  H80  1  0.25460000  0.01290000  0.46560000  1
  H  H81  1  0.25460000  0.98710000  0.96560000  1
  H  H82  1  0.26040000  0.04620000  0.21040000  1
  H  H83  1  0.26040000  0.95380000  0.71040000  1
  H  H84  1  0.26340000  0.20410000  0.30770000  1
  H  H85  1  0.26340000  0.79590000  0.80770000  1
  H  H86  1  0.27890000  0.49140000  0.37420000  1
  H  H87  1  0.27890000  0.50860000  0.87420000  1
  H  H88  1  0.28550000  0.22420000  0.99840000  1
  H  H89  1  0.28550000  0.77580000  0.49840000  1
  H  H90  1  0.29370000  0.27860000  0.95920000  1
  H  H91  1  0.29370000  0.72140000  0.45920000  1
  H  H92  1  0.30040000  0.36490000  0.29720000  1
  H  H93  1  0.30040000  0.63510000  0.79720000  1
  H  H94  1  0.30840000  0.32920000  0.92200000  1
  H  H95  1  0.30840000  0.67080000  0.42200000  1
  H  H96  1  0.31100000  0.08700000  0.57220000  1
  H  H97  1  0.31100000  0.91300000  0.07220000  1
  H  H98  1  0.31700000  0.15380000  0.89800000  1
  H  H99  1  0.31700000  0.84620000  0.39800000  1
  H  H100  1  0.32590000  0.03210000  0.80300000  1
  H  H101  1  0.32590000  0.96790000  0.30300000  1
  H  H102  1  0.32970000  0.36470000  0.88090000  1
  H  H103  1  0.32970000  0.63530000  0.38090000  1
  H  H104  1  0.33080000  0.44670000  0.15260000  1
  H  H105  1  0.33080000  0.55330000  0.65260000  1
  H  H106  1  0.33400000  0.34540000  0.61130000  1
  H  H107  1  0.33400000  0.65460000  0.11130000  1
  H  H108  1  0.33440000  0.29950000  0.84510000  1
  H  H109  1  0.33440000  0.70050000  0.34510000  1
  H  H110  1  0.33600000  0.46580000  0.74740000  1
  H  H111  1  0.33600000  0.53420000  0.24740000  1
  H  H112  1  0.33610000  0.22040000  0.27250000  1
  H  H113  1  0.33610000  0.77960000  0.77250000  1
  H  H114  1  0.35520000  0.31020000  0.57030000  1
  H  H115  1  0.35520000  0.68980000  0.07030000  1
  H  H116  1  0.36330000  0.40460000  0.45850000  1
  H  H117  1  0.36330000  0.59540000  0.95850000  1
  H  H118  1  0.36480000  0.02380000  0.09560000  1
  H  H119  1  0.36480000  0.97620000  0.59560000  1
  H  H120  1  0.37740000  0.29790000  0.53170000  1
  H  H121  1  0.37740000  0.70210000  0.03170000  1
  H  H122  1  0.39080000  0.34080000  0.12840000  1
  H  H123  1  0.39080000  0.65920000  0.62840000  1
  H  H124  1  0.40050000  0.38530000  0.36920000  1
  H  H125  1  0.40050000  0.61470000  0.86920000  1
  H  H126  1  0.40070000  0.24750000  0.49210000  1
  H  H127  1  0.40070000  0.75250000  0.99210000  1
  H  H128  1  0.42270000  0.22670000  0.23370000  1
  H  H129  1  0.42270000  0.77330000  0.73370000  1
  H  H130  1  0.42970000  0.04430000  0.90390000  1
  H  H131  1  0.42970000  0.95570000  0.40390000  1
  H  H132  1  0.45060000  0.45700000  0.68570000  1
  H  H133  1  0.45060000  0.54300000  0.18570000  1
  H  H134  1  0.45070000  0.45140000  0.77720000  1
  H  H135  1  0.45070000  0.54860000  0.27720000  1
  H  H136  1  0.54930000  0.45140000  0.72280000  1
  H  H137  1  0.54930000  0.54860000  0.22280000  1
  H  H138  1  0.54940000  0.45700000  0.81430000  1
  H  H139  1  0.54940000  0.54300000  0.31430000  1
  H  H140  1  0.57030000  0.04430000  0.59610000  1
  H  H141  1  0.57030000  0.95570000  0.09610000  1
  H  H142  1  0.57730000  0.22670000  0.26630000  1
  H  H143  1  0.57730000  0.77330000  0.76630000  1
  H  H144  1  0.59930000  0.24750000  0.00790000  1
  H  H145  1  0.59930000  0.75250000  0.50790000  1
  H  H146  1  0.59950000  0.38530000  0.13080000  1
  H  H147  1  0.59950000  0.61470000  0.63080000  1
  H  H148  1  0.60920000  0.34080000  0.37160000  1
  H  H149  1  0.60920000  0.65920000  0.87160000  1
  H  H150  1  0.62260000  0.29790000  0.96830000  1
  H  H151  1  0.62260000  0.70210000  0.46830000  1
  H  H152  1  0.63520000  0.02380000  0.40440000  1
  H  H153  1  0.63520000  0.97620000  0.90440000  1
  H  H154  1  0.63670000  0.40460000  0.04150000  1
  H  H155  1  0.63670000  0.59540000  0.54150000  1
  H  H156  1  0.64480000  0.31020000  0.92970000  1
  H  H157  1  0.64480000  0.68980000  0.42970000  1
  H  H158  1  0.66390000  0.22040000  0.22750000  1
  H  H159  1  0.66390000  0.77960000  0.72750000  1
  H  H160  1  0.66400000  0.46580000  0.75260000  1
  H  H161  1  0.66400000  0.53420000  0.25260000  1
  H  H162  1  0.66560000  0.29950000  0.65490000  1
  H  H163  1  0.66560000  0.70050000  0.15490000  1
  H  H164  1  0.66600000  0.34540000  0.88870000  1
  H  H165  1  0.66600000  0.65460000  0.38870000  1
  H  H166  1  0.66920000  0.44670000  0.34740000  1
  H  H167  1  0.66920000  0.55330000  0.84740000  1
  H  H168  1  0.67030000  0.36470000  0.61910000  1
  H  H169  1  0.67030000  0.63530000  0.11910000  1
  H  H170  1  0.67410000  0.03210000  0.69700000  1
  H  H171  1  0.67410000  0.96790000  0.19700000  1
  H  H172  1  0.68300000  0.15380000  0.60200000  1
  H  H173  1  0.68300000  0.84620000  0.10200000  1
  H  H174  1  0.68900000  0.08700000  0.92780000  1
  H  H175  1  0.68900000  0.91300000  0.42780000  1
  H  H176  1  0.69160000  0.32920000  0.57800000  1
  H  H177  1  0.69160000  0.67080000  0.07800000  1
  H  H178  1  0.69960000  0.36490000  0.20280000  1
  H  H179  1  0.69960000  0.63510000  0.70280000  1
  H  H180  1  0.70630000  0.27860000  0.54080000  1
  H  H181  1  0.70630000  0.72140000  0.04080000  1
  H  H182  1  0.71450000  0.22420000  0.50160000  1
  H  H183  1  0.71450000  0.77580000  0.00160000  1
  H  H184  1  0.72110000  0.49140000  0.12580000  1
  H  H185  1  0.72110000  0.50860000  0.62580000  1
  H  H186  1  0.73660000  0.20410000  0.19230000  1
  H  H187  1  0.73660000  0.79590000  0.69230000  1
  H  H188  1  0.73960000  0.04620000  0.28960000  1
  H  H189  1  0.73960000  0.95380000  0.78960000  1
  H  H190  1  0.74540000  0.01290000  0.03440000  1
  H  H191  1  0.74540000  0.98710000  0.53440000  1
  H  H192  1  0.75460000  0.48710000  0.53440000  1
  H  H193  1  0.75460000  0.51290000  0.03440000  1
  H  H194  1  0.76040000  0.45380000  0.78960000  1
  H  H195  1  0.76040000  0.54620000  0.28960000  1
  H  H196  1  0.76340000  0.29590000  0.69230000  1
  H  H197  1  0.76340000  0.70410000  0.19230000  1
  H  H198  1  0.77890000  0.00860000  0.62580000  1
  H  H199  1  0.77890000  0.99140000  0.12580000  1
  H  H200  1  0.78550000  0.27580000  0.00160000  1
  H  H201  1  0.78550000  0.72420000  0.50160000  1
  H  H202  1  0.79370000  0.22140000  0.04080000  1
  H  H203  1  0.79370000  0.77860000  0.54080000  1
  H  H204  1  0.80040000  0.13510000  0.70280000  1
  H  H205  1  0.80040000  0.86490000  0.20280000  1
  H  H206  1  0.80840000  0.17080000  0.07800000  1
  H  H207  1  0.80840000  0.82920000  0.57800000  1
  H  H208  1  0.81100000  0.41300000  0.42780000  1
  H  H209  1  0.81100000  0.58700000  0.92780000  1
  H  H210  1  0.81700000  0.34620000  0.10200000  1
  H  H211  1  0.81700000  0.65380000  0.60200000  1
  H  H212  1  0.82590000  0.46790000  0.19700000  1
  H  H213  1  0.82590000  0.53210000  0.69700000  1
  H  H214  1  0.82970000  0.13530000  0.11910000  1
  H  H215  1  0.82970000  0.86470000  0.61910000  1
  H  H216  1  0.83080000  0.05330000  0.84740000  1
  H  H217  1  0.83080000  0.94670000  0.34740000  1
  H  H218  1  0.83400000  0.15460000  0.38870000  1
  H  H219  1  0.83400000  0.84540000  0.88870000  1
  H  H220  1  0.83440000  0.20050000  0.15490000  1
  H  H221  1  0.83440000  0.79950000  0.65490000  1
  H  H222  1  0.83600000  0.03420000  0.25260000  1
  H  H223  1  0.83600000  0.96580000  0.75260000  1
  H  H224  1  0.83610000  0.27960000  0.72750000  1
  H  H225  1  0.83610000  0.72040000  0.22750000  1
  H  H226  1  0.85520000  0.18980000  0.42970000  1
  H  H227  1  0.85520000  0.81020000  0.92970000  1
  H  H228  1  0.86330000  0.09540000  0.54150000  1
  H  H229  1  0.86330000  0.90460000  0.04150000  1
  H  H230  1  0.86480000  0.47620000  0.90440000  1
  H  H231  1  0.86480000  0.52380000  0.40440000  1
  H  H232  1  0.87740000  0.20210000  0.46830000  1
  H  H233  1  0.87740000  0.79790000  0.96830000  1
  H  H234  1  0.89080000  0.15920000  0.87160000  1
  H  H235  1  0.89080000  0.84080000  0.37160000  1
  H  H236  1  0.90050000  0.11470000  0.63080000  1
  H  H237  1  0.90050000  0.88530000  0.13080000  1
  H  H238  1  0.90070000  0.25250000  0.50790000  1
  H  H239  1  0.90070000  0.74750000  0.00790000  1
  H  H240  1  0.92270000  0.27330000  0.76630000  1
  H  H241  1  0.92270000  0.72670000  0.26630000  1
  H  H242  1  0.92970000  0.45570000  0.09610000  1
  H  H243  1  0.92970000  0.54430000  0.59610000  1
  H  H244  1  0.95060000  0.04300000  0.31430000  1
  H  H245  1  0.95060000  0.95700000  0.81430000  1
  H  H246  1  0.95070000  0.04860000  0.22280000  1
  H  H247  1  0.95070000  0.95140000  0.72280000  1
  C  C248  1  0.00000000  0.13980000  0.11961000  1
  C  C249  1  0.00000000  0.13980000  0.38039000  1
  C  C250  1  0.00000000  0.86020000  0.61961000  1
  C  C251  1  0.00000000  0.86020000  0.88039000  1
  C  C252  1  0.01360000  0.07630000  0.31310000  1
  C  C253  1  0.01360000  0.92370000  0.81310000  1
  C  C254  1  0.02710000  0.18650000  0.43103000  1
  C  C255  1  0.02710000  0.81350000  0.93103000  1
  C  C256  1  0.03520000  0.24700000  0.00224000  1
  C  C257  1  0.03520000  0.75300000  0.50224000  1
  C  C258  1  0.04050000  0.21390000  0.45737000  1
  C  C259  1  0.04050000  0.78610000  0.95737000  1
  C  C260  1  0.04560000  0.12240000  0.33392000  1
  C  C261  1  0.04560000  0.87760000  0.83392000  1
  C  C262  1  0.05100000  0.21840000  0.02638000  1
  C  C263  1  0.05100000  0.78160000  0.52638000  1
  C  C264  1  0.05970000  0.20750000  0.82965000  1
  C  C265  1  0.05970000  0.79250000  0.32965000  1
  C  C266  1  0.07360000  0.07930000  0.29083000  1
  C  C267  1  0.07360000  0.92070000  0.79083000  1
  C  C268  1  0.07390000  0.43270000  0.93931000  1
  C  C269  1  0.07390000  0.56730000  0.43931000  1
  C  C270  1  0.08080000  0.17940000  0.08000000  1
  C  C271  1  0.08080000  0.82060000  0.58000000  1
  C  C272  1  0.09350000  0.15770000  0.10447000  1
  C  C273  1  0.09350000  0.84230000  0.60447000  1
  C  C274  1  0.10660000  0.14600000  0.39072000  1
  C  C275  1  0.10660000  0.85400000  0.89072000  1
  C  C276  1  0.11880000  0.16800000  0.41532000  1
  C  C277  1  0.11880000  0.83200000  0.91532000  1
  C  C278  1  0.12720000  0.44140000  0.84315000  1
  C  C279  1  0.12720000  0.55860000  0.34315000  1
  C  C280  1  0.12950000  0.44580000  0.41509000  1
  C  C281  1  0.12950000  0.55420000  0.91509000  1
  C  C282  1  0.13060000  0.31350000  0.73629000  1
  C  C283  1  0.13060000  0.68650000  0.23629000  1
  C  C284  1  0.13850000  0.20660000  0.92366000  1
  C  C285  1  0.13850000  0.79340000  0.42366000  1
  C  C286  1  0.13940000  0.23000000  0.46807000  1
  C  C287  1  0.13940000  0.77000000  0.96807000  1
  C  C288  1  0.13980000  0.13850000  0.83320000  1
  C  C289  1  0.13980000  0.86150000  0.33320000  1
  C  C290  1  0.14100000  0.16970000  0.33153000  1
  C  C291  1  0.14100000  0.83030000  0.83153000  1
  C  C292  1  0.14360000  0.25970000  0.49264000  1
  C  C293  1  0.14360000  0.74030000  0.99264000  1
  C  C294  1  0.14540000  0.09890000  0.85579000  1
  C  C295  1  0.14540000  0.90110000  0.35579000  1
  C  C296  1  0.14730000  0.49680000  0.43473000  1
  C  C297  1  0.14730000  0.50320000  0.93473000  1
  C  C298  1  0.16220000  0.12330000  0.62199000  1
  C  C299  1  0.16220000  0.87670000  0.12199000  1
  C  C300  1  0.16770000  0.12610000  0.28815000  1
  C  C301  1  0.16770000  0.87390000  0.78815000  1
  C  C302  1  0.17070000  0.20430000  0.58250000  1
  C  C303  1  0.17070000  0.79570000  0.08250000  1
  C  C304  1  0.18430000  0.31570000  0.75988000  1
  C  C305  1  0.18430000  0.68430000  0.25988000  1
  C  C306  1  0.18520000  0.48650000  0.10235000  1
  C  C307  1  0.18520000  0.51350000  0.60235000  1
  C  C308  1  0.18770000  0.43670000  0.64278000  1
  C  C309  1  0.18770000  0.56330000  0.14278000  1
  C  C310  1  0.19660000  0.08530000  0.94748000  1
  C  C311  1  0.19660000  0.91470000  0.44748000  1
  C  C312  1  0.19670000  0.05940000  0.63624000  1
  C  C313  1  0.19670000  0.94060000  0.13624000  1
  C  C314  1  0.19730000  0.38040000  0.41151000  1
  C  C315  1  0.19730000  0.61960000  0.91151000  1
  C  C316  1  0.19980000  0.17140000  0.30897000  1
  C  C317  1  0.19980000  0.82860000  0.80897000  1
  C  C318  1  0.20610000  0.11110000  0.81303000  1
  C  C319  1  0.20610000  0.88890000  0.31303000  1
  C  C320  1  0.20690000  0.13420000  0.59792000  1
  C  C321  1  0.20690000  0.86580000  0.09792000  1
  C  C322  1  0.21040000  0.48940000  0.33957000  1
  C  C323  1  0.21040000  0.51060000  0.83957000  1
  C  C324  1  0.21510000  0.13530000  0.92735000  1
  C  C325  1  0.21510000  0.86470000  0.42735000  1
  C  C326  1  0.21590000  0.07570000  0.24533000  1
  C  C327  1  0.21590000  0.92430000  0.74533000  1
  C  C328  1  0.21830000  0.42040000  0.08838000  1
  C  C329  1  0.21830000  0.57960000  0.58838000  1
  C  C330  1  0.21910000  0.03540000  0.85875000  1
  C  C331  1  0.21910000  0.96460000  0.35875000  1
  C  C332  1  0.21920000  0.45120000  0.31639000  1
  C  C333  1  0.21920000  0.54880000  0.81639000  1
  C  C334  1  0.22420000  0.41650000  0.72303000  1
  C  C335  1  0.22420000  0.58350000  0.22303000  1
  C  C336  1  0.22800000  0.49610000  0.12655000  1
  C  C337  1  0.22800000  0.50390000  0.62655000  1
  C  C338  1  0.23360000  0.12920000  0.26430000  1
  C  C339  1  0.23360000  0.87080000  0.76430000  1
  C  C340  1  0.23390000  0.48020000  0.45158000  1
  C  C341  1  0.23390000  0.51980000  0.95158000  1
  C  C342  1  0.26610000  0.01980000  0.95158000  1
  C  C343  1  0.26610000  0.98020000  0.45158000  1
  C  C344  1  0.26640000  0.37080000  0.76430000  1
  C  C345  1  0.26640000  0.62920000  0.26430000  1
  C  C346  1  0.27200000  0.00390000  0.62655000  1
  C  C347  1  0.27200000  0.99610000  0.12655000  1
  C  C348  1  0.27580000  0.08350000  0.22303000  1
  C  C349  1  0.27580000  0.91650000  0.72303000  1
  C  C350  1  0.28080000  0.04880000  0.81639000  1
  C  C351  1  0.28080000  0.95120000  0.31639000  1
  C  C352  1  0.28090000  0.46460000  0.35875000  1
  C  C353  1  0.28090000  0.53540000  0.85875000  1
  C  C354  1  0.28170000  0.07960000  0.58838000  1
  C  C355  1  0.28170000  0.92040000  0.08838000  1
  C  C356  1  0.28410000  0.42430000  0.74533000  1
  C  C357  1  0.28410000  0.57570000  0.24533000  1
  C  C358  1  0.28490000  0.36470000  0.42735000  1
  C  C359  1  0.28490000  0.63530000  0.92735000  1
  C  C360  1  0.28960000  0.01060000  0.83957000  1
  C  C361  1  0.28960000  0.98940000  0.33957000  1
  C  C362  1  0.29310000  0.36580000  0.09792000  1
  C  C363  1  0.29310000  0.63420000  0.59792000  1
  C  C364  1  0.29390000  0.38890000  0.31303000  1
  C  C365  1  0.29390000  0.61110000  0.81303000  1
  C  C366  1  0.30020000  0.32860000  0.80897000  1
  C  C367  1  0.30020000  0.67140000  0.30897000  1
  C  C368  1  0.30270000  0.11960000  0.91151000  1
  C  C369  1  0.30270000  0.88040000  0.41151000  1
  C  C370  1  0.30330000  0.44060000  0.13624000  1
  C  C371  1  0.30330000  0.55940000  0.63624000  1
  C  C372  1  0.30340000  0.41470000  0.44748000  1
  C  C373  1  0.30340000  0.58530000  0.94748000  1
  C  C374  1  0.31230000  0.06330000  0.14278000  1
  C  C375  1  0.31230000  0.93670000  0.64278000  1
  C  C376  1  0.31480000  0.01350000  0.60235000  1
  C  C377  1  0.31480000  0.98650000  0.10235000  1
  C  C378  1  0.31570000  0.18430000  0.25988000  1
  C  C379  1  0.31570000  0.81570000  0.75988000  1
  C  C380  1  0.32930000  0.29570000  0.08250000  1
  C  C381  1  0.32930000  0.70430000  0.58250000  1
  C  C382  1  0.33230000  0.37390000  0.78815000  1
  C  C383  1  0.33230000  0.62610000  0.28815000  1
  C  C384  1  0.33780000  0.37670000  0.12199000  1
  C  C385  1  0.33780000  0.62330000  0.62199000  1
  C  C386  1  0.35270000  0.00320000  0.93473000  1
  C  C387  1  0.35270000  0.99680000  0.43473000  1
  C  C388  1  0.35460000  0.40110000  0.35579000  1
  C  C389  1  0.35460000  0.59890000  0.85579000  1
  C  C390  1  0.35640000  0.24030000  0.99264000  1
  C  C391  1  0.35640000  0.75970000  0.49264000  1
  C  C392  1  0.35900000  0.33030000  0.83153000  1
  C  C393  1  0.35900000  0.66970000  0.33153000  1
  C  C394  1  0.36020000  0.36150000  0.33320000  1
  C  C395  1  0.36020000  0.63850000  0.83320000  1
  C  C396  1  0.36060000  0.27000000  0.96807000  1
  C  C397  1  0.36060000  0.73000000  0.46807000  1
  C  C398  1  0.36150000  0.29340000  0.42366000  1
  C  C399  1  0.36150000  0.70660000  0.92366000  1
  C  C400  1  0.36940000  0.18650000  0.23629000  1
  C  C401  1  0.36940000  0.81350000  0.73629000  1
  C  C402  1  0.37050000  0.05420000  0.91509000  1
  C  C403  1  0.37050000  0.94580000  0.41509000  1
  C  C404  1  0.37280000  0.05860000  0.34315000  1
  C  C405  1  0.37280000  0.94140000  0.84315000  1
  C  C406  1  0.38120000  0.33200000  0.91532000  1
  C  C407  1  0.38120000  0.66800000  0.41532000  1
  C  C408  1  0.39340000  0.35400000  0.89072000  1
  C  C409  1  0.39340000  0.64600000  0.39072000  1
  C  C410  1  0.40650000  0.34230000  0.60447000  1
  C  C411  1  0.40650000  0.65770000  0.10447000  1
  C  C412  1  0.41920000  0.32060000  0.58000000  1
  C  C413  1  0.41920000  0.67940000  0.08000000  1
  C  C414  1  0.42610000  0.06730000  0.43931000  1
  C  C415  1  0.42610000  0.93270000  0.93931000  1
  C  C416  1  0.42640000  0.42070000  0.79083000  1
  C  C417  1  0.42640000  0.57930000  0.29083000  1
  C  C418  1  0.44030000  0.29250000  0.32965000  1
  C  C419  1  0.44030000  0.70750000  0.82965000  1
  C  C420  1  0.44900000  0.28160000  0.52638000  1
  C  C421  1  0.44900000  0.71840000  0.02638000  1
  C  C422  1  0.45440000  0.37760000  0.83392000  1
  C  C423  1  0.45440000  0.62240000  0.33392000  1
  C  C424  1  0.45950000  0.28610000  0.95737000  1
  C  C425  1  0.45950000  0.71390000  0.45737000  1
  C  C426  1  0.46480000  0.25300000  0.50224000  1
  C  C427  1  0.46480000  0.74700000  0.00224000  1
  C  C428  1  0.47290000  0.31350000  0.93103000  1
  C  C429  1  0.47290000  0.68650000  0.43103000  1
  C  C430  1  0.48640000  0.42370000  0.81310000  1
  C  C431  1  0.48640000  0.57630000  0.31310000  1
  C  C432  1  0.50000000  0.36020000  0.61961000  1
  C  C433  1  0.50000000  0.36020000  0.88039000  1
  C  C434  1  0.50000000  0.63980000  0.11961000  1
  C  C435  1  0.50000000  0.63980000  0.38039000  1
  C  C436  1  0.51360000  0.42370000  0.68690000  1
  C  C437  1  0.51360000  0.57630000  0.18690000  1
  C  C438  1  0.52710000  0.31350000  0.56897000  1
  C  C439  1  0.52710000  0.68650000  0.06897000  1
  C  C440  1  0.53520000  0.25300000  0.99776000  1
  C  C441  1  0.53520000  0.74700000  0.49776000  1
  C  C442  1  0.54050000  0.28610000  0.54263000  1
  C  C443  1  0.54050000  0.71390000  0.04263000  1
  C  C444  1  0.54560000  0.37760000  0.66608000  1
  C  C445  1  0.54560000  0.62240000  0.16608000  1
  C  C446  1  0.55100000  0.28160000  0.97362000  1
  C  C447  1  0.55100000  0.71840000  0.47362000  1
  C  C448  1  0.55970000  0.29250000  0.17035000  1
  C  C449  1  0.55970000  0.70750000  0.67035000  1
  C  C450  1  0.57360000  0.42070000  0.70917000  1
  C  C451  1  0.57360000  0.57930000  0.20917000  1
  C  C452  1  0.57390000  0.06730000  0.06069000  1
  C  C453  1  0.57390000  0.93270000  0.56069000  1
  C  C454  1  0.58080000  0.32060000  0.92000000  1
  C  C455  1  0.58080000  0.67940000  0.42000000  1
  C  C456  1  0.59350000  0.34230000  0.89553000  1
  C  C457  1  0.59350000  0.65770000  0.39553000  1
  C  C458  1  0.60660000  0.35400000  0.60928000  1
  C  C459  1  0.60660000  0.64600000  0.10928000  1
  C  C460  1  0.61880000  0.33200000  0.58468000  1
  C  C461  1  0.61880000  0.66800000  0.08468000  1
  C  C462  1  0.62720000  0.05860000  0.15685000  1
  C  C463  1  0.62720000  0.94140000  0.65685000  1
  C  C464  1  0.62950000  0.05420000  0.58491000  1
  C  C465  1  0.62950000  0.94580000  0.08491000  1
  C  C466  1  0.63060000  0.18650000  0.26371000  1
  C  C467  1  0.63060000  0.81350000  0.76371000  1
  C  C468  1  0.63850000  0.29340000  0.07634000  1
  C  C469  1  0.63850000  0.70660000  0.57634000  1
  C  C470  1  0.63940000  0.27000000  0.53193000  1
  C  C471  1  0.63940000  0.73000000  0.03193000  1
  C  C472  1  0.63980000  0.36150000  0.16680000  1
  C  C473  1  0.63980000  0.63850000  0.66680000  1
  C  C474  1  0.64100000  0.33030000  0.66847000  1
  C  C475  1  0.64100000  0.66970000  0.16847000  1
  C  C476  1  0.64360000  0.24030000  0.50736000  1
  C  C477  1  0.64360000  0.75970000  0.00736000  1
  C  C478  1  0.64540000  0.40110000  0.14421000  1
  C  C479  1  0.64540000  0.59890000  0.64421000  1
  C  C480  1  0.64730000  0.00320000  0.56527000  1
  C  C481  1  0.64730000  0.99680000  0.06527000  1
  C  C482  1  0.66220000  0.37670000  0.37801000  1
  C  C483  1  0.66220000  0.62330000  0.87801000  1
  C  C484  1  0.66770000  0.37390000  0.71185000  1
  C  C485  1  0.66770000  0.62610000  0.21185000  1
  C  C486  1  0.67070000  0.29570000  0.41750000  1
  C  C487  1  0.67070000  0.70430000  0.91750000  1
  C  C488  1  0.68430000  0.18430000  0.24012000  1
  C  C489  1  0.68430000  0.81570000  0.74012000  1
  C  C490  1  0.68520000  0.01350000  0.89765000  1
  C  C491  1  0.68520000  0.98650000  0.39765000  1
  C  C492  1  0.68770000  0.06330000  0.35722000  1
  C  C493  1  0.68770000  0.93670000  0.85722000  1
  C  C494  1  0.69660000  0.41470000  0.05252000  1
  C  C495  1  0.69660000  0.58530000  0.55252000  1
  C  C496  1  0.69670000  0.44060000  0.36376000  1
  C  C497  1  0.69670000  0.55940000  0.86376000  1
  C  C498  1  0.69730000  0.11960000  0.58849000  1
  C  C499  1  0.69730000  0.88040000  0.08849000  1
  C  C500  1  0.69980000  0.32860000  0.69103000  1
  C  C501  1  0.69980000  0.67140000  0.19103000  1
  C  C502  1  0.70610000  0.38890000  0.18697000  1
  C  C503  1  0.70610000  0.61110000  0.68697000  1
  C  C504  1  0.70690000  0.36580000  0.40208000  1
  C  C505  1  0.70690000  0.63420000  0.90208000  1
  C  C506  1  0.71040000  0.01060000  0.66043000  1
  C  C507  1  0.71040000  0.98940000  0.16043000  1
  C  C508  1  0.71510000  0.36470000  0.07265000  1
  C  C509  1  0.71510000  0.63530000  0.57265000  1
  C  C510  1  0.71590000  0.42430000  0.75467000  1
  C  C511  1  0.71590000  0.57570000  0.25467000  1
  C  C512  1  0.71830000  0.07960000  0.91162000  1
  C  C513  1  0.71830000  0.92040000  0.41162000  1
  C  C514  1  0.71910000  0.46460000  0.14125000  1
  C  C515  1  0.71910000  0.53540000  0.64125000  1
  C  C516  1  0.71920000  0.04880000  0.68361000  1
  C  C517  1  0.71920000  0.95120000  0.18361000  1
  C  C518  1  0.72420000  0.08350000  0.27697000  1
  C  C519  1  0.72420000  0.91650000  0.77697000  1
  C  C520  1  0.72800000  0.00390000  0.87345000  1
  C  C521  1  0.72800000  0.99610000  0.37345000  1
  C  C522  1  0.73360000  0.37080000  0.73570000  1
  C  C523  1  0.73360000  0.62920000  0.23570000  1
  C  C524  1  0.73390000  0.01980000  0.54842000  1
  C  C525  1  0.73390000  0.98020000  0.04842000  1
  C  C526  1  0.76610000  0.48020000  0.04842000  1
  C  C527  1  0.76610000  0.51980000  0.54842000  1
  C  C528  1  0.76640000  0.12920000  0.23570000  1
  C  C529  1  0.76640000  0.87080000  0.73570000  1
  C  C530  1  0.77200000  0.49610000  0.37345000  1
  C  C531  1  0.77200000  0.50390000  0.87345000  1
  C  C532  1  0.77580000  0.41650000  0.77697000  1
  C  C533  1  0.77580000  0.58350000  0.27697000  1
  C  C534  1  0.78080000  0.45120000  0.18361000  1
  C  C535  1  0.78080000  0.54880000  0.68361000  1
  C  C536  1  0.78090000  0.03540000  0.64125000  1
  C  C537  1  0.78090000  0.96460000  0.14125000  1
  C  C538  1  0.78170000  0.42040000  0.41162000  1
  C  C539  1  0.78170000  0.57960000  0.91162000  1
  C  C540  1  0.78410000  0.07570000  0.25467000  1
  C  C541  1  0.78410000  0.92430000  0.75467000  1
  C  C542  1  0.78490000  0.13530000  0.57265000  1
  C  C543  1  0.78490000  0.86470000  0.07265000  1
  C  C544  1  0.78960000  0.48940000  0.16043000  1
  C  C545  1  0.78960000  0.51060000  0.66043000  1
  C  C546  1  0.79310000  0.13420000  0.90208000  1
  C  C547  1  0.79310000  0.86580000  0.40208000  1
  C  C548  1  0.79390000  0.11110000  0.68697000  1
  C  C549  1  0.79390000  0.88890000  0.18697000  1
  C  C550  1  0.80020000  0.17140000  0.19103000  1
  C  C551  1  0.80020000  0.82860000  0.69103000  1
  C  C552  1  0.80270000  0.38040000  0.08849000  1
  C  C553  1  0.80270000  0.61960000  0.58849000  1
  C  C554  1  0.80330000  0.05940000  0.86376000  1
  C  C555  1  0.80330000  0.94060000  0.36376000  1
  C  C556  1  0.80340000  0.08530000  0.55252000  1
  C  C557  1  0.80340000  0.91470000  0.05252000  1
  C  C558  1  0.81230000  0.43670000  0.85722000  1
  C  C559  1  0.81230000  0.56330000  0.35722000  1
  C  C560  1  0.81480000  0.48650000  0.39765000  1
  C  C561  1  0.81480000  0.51350000  0.89765000  1
  C  C562  1  0.81570000  0.31570000  0.74012000  1
  C  C563  1  0.81570000  0.68430000  0.24012000  1
  C  C564  1  0.82930000  0.20430000  0.91750000  1
  C  C565  1  0.82930000  0.79570000  0.41750000  1
  C  C566  1  0.83230000  0.12610000  0.21185000  1
  C  C567  1  0.83230000  0.87390000  0.71185000  1
  C  C568  1  0.83780000  0.12330000  0.87801000  1
  C  C569  1  0.83780000  0.87670000  0.37801000  1
  C  C570  1  0.85270000  0.49680000  0.06527000  1
  C  C571  1  0.85270000  0.50320000  0.56527000  1
  C  C572  1  0.85460000  0.09890000  0.64421000  1
  C  C573  1  0.85460000  0.90110000  0.14421000  1
  C  C574  1  0.85640000  0.25970000  0.00736000  1
  C  C575  1  0.85640000  0.74030000  0.50736000  1
  C  C576  1  0.85900000  0.16970000  0.16847000  1
  C  C577  1  0.85900000  0.83030000  0.66847000  1
  C  C578  1  0.86020000  0.13850000  0.66680000  1
  C  C579  1  0.86020000  0.86150000  0.16680000  1
  C  C580  1  0.86060000  0.23000000  0.03193000  1
  C  C581  1  0.86060000  0.77000000  0.53193000  1
  C  C582  1  0.86150000  0.20660000  0.57634000  1
  C  C583  1  0.86150000  0.79340000  0.07634000  1
  C  C584  1  0.86940000  0.31350000  0.76371000  1
  C  C585  1  0.86940000  0.68650000  0.26371000  1
  C  C586  1  0.87050000  0.44580000  0.08491000  1
  C  C587  1  0.87050000  0.55420000  0.58491000  1
  C  C588  1  0.87280000  0.44140000  0.65685000  1
  C  C589  1  0.87280000  0.55860000  0.15685000  1
  C  C590  1  0.88120000  0.16800000  0.08468000  1
  C  C591  1  0.88120000  0.83200000  0.58468000  1
  C  C592  1  0.89340000  0.14600000  0.10928000  1
  C  C593  1  0.89340000  0.85400000  0.60928000  1
  C  C594  1  0.90650000  0.15770000  0.39553000  1
  C  C595  1  0.90650000  0.84230000  0.89553000  1
  C  C596  1  0.91920000  0.17940000  0.42000000  1
  C  C597  1  0.91920000  0.82060000  0.92000000  1
  C  C598  1  0.92610000  0.43270000  0.56069000  1
  C  C599  1  0.92610000  0.56730000  0.06069000  1
  C  C600  1  0.92640000  0.07930000  0.20917000  1
  C  C601  1  0.92640000  0.92070000  0.70917000  1
  C  C602  1  0.94030000  0.20750000  0.67035000  1
  C  C603  1  0.94030000  0.79250000  0.17035000  1
  C  C604  1  0.94900000  0.21840000  0.47362000  1
  C  C605  1  0.94900000  0.78160000  0.97362000  1
  C  C606  1  0.95440000  0.12240000  0.16608000  1
  C  C607  1  0.95440000  0.87760000  0.66608000  1
  C  C608  1  0.95950000  0.21390000  0.04263000  1
  C  C609  1  0.95950000  0.78610000  0.54263000  1
  C  C610  1  0.96480000  0.24700000  0.49776000  1
  C  C611  1  0.96480000  0.75300000  0.99776000  1
  C  C612  1  0.97290000  0.18650000  0.06897000  1
  C  C613  1  0.97290000  0.81350000  0.56897000  1
  C  C614  1  0.98640000  0.07630000  0.18690000  1
  C  C615  1  0.98640000  0.92370000  0.68690000  1
  N  N616  1  0.02340000  0.11640000  0.14448000  1
  N  N617  1  0.02340000  0.88360000  0.64448000  1
  N  N618  1  0.06310000  0.26740000  0.50780000  1
  N  N619  1  0.06310000  0.73260000  0.00780000  1
  N  N620  1  0.14830000  0.36220000  0.71779000  1
  N  N621  1  0.14830000  0.63780000  0.21779000  1
  N  N622  1  0.35170000  0.13780000  0.21779000  1
  N  N623  1  0.35170000  0.86220000  0.71779000  1
  N  N624  1  0.43690000  0.23260000  0.00780000  1
  N  N625  1  0.43690000  0.76740000  0.50780000  1
  N  N626  1  0.47660000  0.38360000  0.64448000  1
  N  N627  1  0.47660000  0.61640000  0.14448000  1
  N  N628  1  0.52340000  0.38360000  0.85552000  1
  N  N629  1  0.52340000  0.61640000  0.35552000  1
  N  N630  1  0.56310000  0.23260000  0.49220000  1
  N  N631  1  0.56310000  0.76740000  0.99220000  1
  N  N632  1  0.64830000  0.13780000  0.28221000  1
  N  N633  1  0.64830000  0.86220000  0.78221000  1
  N  N634  1  0.85170000  0.36220000  0.78221000  1
  N  N635  1  0.85170000  0.63780000  0.28221000  1
  N  N636  1  0.93690000  0.26740000  0.99220000  1
  N  N637  1  0.93690000  0.73260000  0.49220000  1
  N  N638  1  0.97660000  0.11640000  0.35552000  1
  N  N639  1  0.97660000  0.88360000  0.85552000  1
  O  O640  1  0.01520000  0.40376000  0.92158000  1
  O  O641  1  0.01520000  0.59624000  0.42158000  1
  O  O642  1  0.01740000  0.24122000  0.84882000  1
  O  O643  1  0.01740000  0.75878000  0.34882000  1
  O  O644  1  0.03520000  0.23020000  0.80783000  1
  O  O645  1  0.03520000  0.76980000  0.30783000  1
  O  O646  1  0.05960000  0.42676000  0.82610000  1
  O  O647  1  0.05960000  0.57324000  0.32610000  1
  O  O648  1  0.06980000  0.40330000  0.96091000  1
  O  O649  1  0.06980000  0.59670000  0.46091000  1
  O  O650  1  0.07790000  0.22400000  0.94215000  1
  O  O651  1  0.07790000  0.77600000  0.44215000  1
  O  O652  1  0.12210000  0.26141000  0.59307000  1
  O  O653  1  0.12210000  0.73859000  0.09307000  1
  O  O654  1  0.12460000  0.38260000  0.63392000  1
  O  O655  1  0.12460000  0.61740000  0.13392000  1
  O  O656  1  0.13380000  0.40806000  0.86437000  1
  O  O657  1  0.13380000  0.59194000  0.36437000  1
  O  O658  1  0.14240000  0.24051000  0.90306000  1
  O  O659  1  0.14240000  0.75949000  0.40306000  1
  O  O660  1  0.19060000  0.20462000  0.55930000  1
  O  O661  1  0.19060000  0.79538000  0.05930000  1
  O  O662  1  0.21950000  0.43370000  0.66524000  1
  O  O663  1  0.21950000  0.56630000  0.16524000  1
  O  O664  1  0.28050000  0.06630000  0.16524000  1
  O  O665  1  0.28050000  0.93370000  0.66524000  1
  O  O666  1  0.30940000  0.29538000  0.05930000  1
  O  O667  1  0.30940000  0.70462000  0.55930000  1
  O  O668  1  0.35760000  0.25949000  0.40306000  1
  O  O669  1  0.35760000  0.74051000  0.90306000  1
  O  O670  1  0.36620000  0.09194000  0.36437000  1
  O  O671  1  0.36620000  0.90806000  0.86437000  1
  O  O672  1  0.37540000  0.11740000  0.13392000  1
  O  O673  1  0.37540000  0.88260000  0.63392000  1
  O  O674  1  0.37790000  0.23859000  0.09307000  1
  O  O675  1  0.37790000  0.76141000  0.59307000  1
  O  O676  1  0.42210000  0.27600000  0.44215000  1
  O  O677  1  0.42210000  0.72400000  0.94215000  1
  O  O678  1  0.43020000  0.09670000  0.46091000  1
  O  O679  1  0.43020000  0.90330000  0.96091000  1
  O  O680  1  0.44040000  0.07324000  0.32610000  1
  O  O681  1  0.44040000  0.92676000  0.82610000  1
  O  O682  1  0.46480000  0.26980000  0.30783000  1
  O  O683  1  0.46480000  0.73020000  0.80783000  1
  O  O684  1  0.48260000  0.25878000  0.34882000  1
  O  O685  1  0.48260000  0.74122000  0.84882000  1
  O  O686  1  0.48480000  0.09624000  0.42158000  1
  O  O687  1  0.48480000  0.90376000  0.92158000  1
  O  O688  1  0.51520000  0.09624000  0.07842000  1
  O  O689  1  0.51520000  0.90376000  0.57842000  1
  O  O690  1  0.51740000  0.25878000  0.15118000  1
  O  O691  1  0.51740000  0.74122000  0.65118000  1
  O  O692  1  0.53520000  0.26980000  0.19217000  1
  O  O693  1  0.53520000  0.73020000  0.69217000  1
  O  O694  1  0.55960000  0.07324000  0.17390000  1
  O  O695  1  0.55960000  0.92676000  0.67390000  1
  O  O696  1  0.56980000  0.09670000  0.03909000  1
  O  O697  1  0.56980000  0.90330000  0.53909000  1
  O  O698  1  0.57790000  0.27600000  0.05785000  1
  O  O699  1  0.57790000  0.72400000  0.55785000  1
  O  O700  1  0.62210000  0.23859000  0.40693000  1
  O  O701  1  0.62210000  0.76141000  0.90693000  1
  O  O702  1  0.62460000  0.11740000  0.36608000  1
  O  O703  1  0.62460000  0.88260000  0.86608000  1
  O  O704  1  0.63380000  0.09194000  0.13563000  1
  O  O705  1  0.63380000  0.90806000  0.63563000  1
  O  O706  1  0.64240000  0.25949000  0.09694000  1
  O  O707  1  0.64240000  0.74051000  0.59694000  1
  O  O708  1  0.69060000  0.29538000  0.44070000  1
  O  O709  1  0.69060000  0.70462000  0.94070000  1
  O  O710  1  0.71950000  0.06630000  0.33476000  1
  O  O711  1  0.71950000  0.93370000  0.83476000  1
  O  O712  1  0.78050000  0.43370000  0.83476000  1
  O  O713  1  0.78050000  0.56630000  0.33476000  1
  O  O714  1  0.80940000  0.20462000  0.94070000  1
  O  O715  1  0.80940000  0.79538000  0.44070000  1
  O  O716  1  0.85760000  0.24051000  0.59694000  1
  O  O717  1  0.85760000  0.75949000  0.09694000  1
  O  O718  1  0.86620000  0.40806000  0.63563000  1
  O  O719  1  0.86620000  0.59194000  0.13563000  1
  O  O720  1  0.87540000  0.38260000  0.86608000  1
  O  O721  1  0.87540000  0.61740000  0.36608000  1
  O  O722  1  0.87790000  0.26141000  0.90693000  1
  O  O723  1  0.87790000  0.73859000  0.40693000  1
  O  O724  1  0.92210000  0.22400000  0.55785000  1
  O  O725  1  0.92210000  0.77600000  0.05785000  1
  O  O726  1  0.93020000  0.40330000  0.53909000  1
  O  O727  1  0.93020000  0.59670000  0.03909000  1
  O  O728  1  0.94040000  0.42676000  0.67390000  1
  O  O729  1  0.94040000  0.57324000  0.17390000  1
  O  O730  1  0.96480000  0.23020000  0.69217000  1
  O  O731  1  0.96480000  0.76980000  0.19217000  1
  O  O732  1  0.98260000  0.24122000  0.65118000  1
  O  O733  1  0.98260000  0.75878000  0.15118000  1
  O  O734  1  0.98480000  0.40376000  0.57842000  1
  O  O735  1  0.98480000  0.59624000  0.07842000  1
