# generated using pymatgen
data_Cd3H12(C11O5)2
_symmetry_space_group_name_H-M   'P 1'
_cell_length_a   6.68200000
_cell_length_b   11.04830000
_cell_length_c   17.63800000
_cell_angle_alpha   107.83300000
_cell_angle_beta   90.00000000
_cell_angle_gamma   90.00000000
_symmetry_Int_Tables_number   1
_chemical_formula_structural   Cd3H12(C11O5)2
_chemical_formula_sum   'Cd6 H24 C44 O20'
_cell_volume   1239.55799526
_cell_formula_units_Z   2
loop_
 _symmetry_equiv_pos_site_id
 _symmetry_equiv_pos_as_xyz
  1  'x, y, z'
loop_
 _atom_site_type_symbol
 _atom_site_label
 _atom_site_symmetry_multiplicity
 _atom_site_fract_x
 _atom_site_fract_y
 _atom_site_fract_z
 _atom_site_occupancy
  Cd  Cd0  1  0.00000000  0.50000000  0.00000000  1
  Cd  Cd1  1  0.00353000  0.46532000  0.59027000  1
  Cd  Cd2  1  0.49647000  0.46532000  0.09027000  1
  Cd  Cd3  1  0.50000000  0.50000000  0.50000000  1
  Cd  Cd4  1  0.50353000  0.53468000  0.90973000  1
  Cd  Cd5  1  0.99647000  0.53468000  0.40973000  1
  H  H6  1  0.00980000  0.06160000  0.42220000  1
  H  H7  1  0.11610000  0.85020000  0.05670000  1
  H  H8  1  0.12810000  0.21070000  0.19680000  1
  H  H9  1  0.15510000  0.83020000  0.20520000  1
  H  H10  1  0.19300000  0.64200000  0.54800000  1
  H  H11  1  0.23380000  0.99730000  0.31660000  1
  H  H12  1  0.26620000  0.99730000  0.81660000  1
  H  H13  1  0.30700000  0.64200000  0.04800000  1
  H  H14  1  0.34490000  0.83020000  0.70520000  1
  H  H15  1  0.37190000  0.21070000  0.69680000  1
  H  H16  1  0.38390000  0.85020000  0.55670000  1
  H  H17  1  0.49020000  0.06160000  0.92220000  1
  H  H18  1  0.50980000  0.93840000  0.07780000  1
  H  H19  1  0.61610000  0.14980000  0.44330000  1
  H  H20  1  0.62810000  0.78930000  0.30320000  1
  H  H21  1  0.65510000  0.16980000  0.29480000  1
  H  H22  1  0.69300000  0.35800000  0.95200000  1
  H  H23  1  0.73380000  0.00270000  0.18340000  1
  H  H24  1  0.76620000  0.00270000  0.68340000  1
  H  H25  1  0.80700000  0.35800000  0.45200000  1
  H  H26  1  0.84490000  0.16980000  0.79480000  1
  H  H27  1  0.87190000  0.78930000  0.80320000  1
  H  H28  1  0.88390000  0.14980000  0.94330000  1
  H  H29  1  0.99020000  0.93840000  0.57780000  1
  C  C30  1  0.02190000  0.00620000  0.62240000  1
  C  C31  1  0.06490000  0.85550000  0.24720000  1
  C  C32  1  0.06910000  0.91090000  0.03430000  1
  C  C33  1  0.08110000  0.12250000  0.02370000  1
  C  C34  1  0.11210000  0.95540000  0.31400000  1
  C  C35  1  0.11770000  0.20750000  0.75730000  1
  C  C36  1  0.14960000  0.03310000  0.05930000  1
  C  C37  1  0.16760000  0.25520000  0.04420000  1
  C  C38  1  0.17450000  0.31530000  0.83010000  1
  C  C39  1  0.20300000  0.07000000  0.62610000  1
  C  C40  1  0.24970000  0.16920000  0.69390000  1
  C  C41  1  0.25030000  0.16920000  0.19390000  1
  C  C42  1  0.29700000  0.07000000  0.12610000  1
  C  C43  1  0.32550000  0.31530000  0.33010000  1
  C  C44  1  0.33240000  0.25520000  0.54420000  1
  C  C45  1  0.35040000  0.03310000  0.55930000  1
  C  C46  1  0.38230000  0.20750000  0.25730000  1
  C  C47  1  0.38790000  0.95540000  0.81400000  1
  C  C48  1  0.41890000  0.12250000  0.52370000  1
  C  C49  1  0.43090000  0.91090000  0.53430000  1
  C  C50  1  0.43510000  0.85550000  0.74720000  1
  C  C51  1  0.47810000  0.00620000  0.12240000  1
  C  C52  1  0.52190000  0.99380000  0.87760000  1
  C  C53  1  0.56490000  0.14450000  0.25280000  1
  C  C54  1  0.56910000  0.08910000  0.46570000  1
  C  C55  1  0.58110000  0.87750000  0.47630000  1
  C  C56  1  0.61210000  0.04460000  0.18600000  1
  C  C57  1  0.61770000  0.79250000  0.74270000  1
  C  C58  1  0.64960000  0.96690000  0.44070000  1
  C  C59  1  0.66760000  0.74480000  0.45580000  1
  C  C60  1  0.67450000  0.68470000  0.66990000  1
  C  C61  1  0.70300000  0.93000000  0.87390000  1
  C  C62  1  0.74970000  0.83080000  0.80610000  1
  C  C63  1  0.75030000  0.83080000  0.30610000  1
  C  C64  1  0.79700000  0.93000000  0.37390000  1
  C  C65  1  0.82550000  0.68470000  0.16990000  1
  C  C66  1  0.83240000  0.74480000  0.95580000  1
  C  C67  1  0.85040000  0.96690000  0.94070000  1
  C  C68  1  0.88230000  0.79250000  0.24270000  1
  C  C69  1  0.88790000  0.04460000  0.68600000  1
  C  C70  1  0.91890000  0.87750000  0.97630000  1
  C  C71  1  0.93090000  0.08910000  0.96570000  1
  C  C72  1  0.93510000  0.14450000  0.75280000  1
  C  C73  1  0.97810000  0.99380000  0.37760000  1
  O  O74  1  0.04370000  0.34510000  0.06530000  1
  O  O75  1  0.05520000  0.34150000  0.88720000  1
  O  O76  1  0.14870000  0.26730000  0.53856000  1
  O  O77  1  0.16370000  0.36730000  0.32970000  1
  O  O78  1  0.18590000  0.56840000  0.52177000  1
  O  O79  1  0.31410000  0.56840000  0.02177000  1
  O  O80  1  0.33630000  0.36730000  0.82970000  1
  O  O81  1  0.35130000  0.26730000  0.03856000  1
  O  O82  1  0.44480000  0.34150000  0.38720000  1
  O  O83  1  0.45630000  0.34510000  0.56530000  1
  O  O84  1  0.54370000  0.65490000  0.43470000  1
  O  O85  1  0.55520000  0.65850000  0.61280000  1
  O  O86  1  0.64870000  0.73270000  0.96144000  1
  O  O87  1  0.66370000  0.63270000  0.17030000  1
  O  O88  1  0.68590000  0.43160000  0.97823000  1
  O  O89  1  0.81410000  0.43160000  0.47823000  1
  O  O90  1  0.83630000  0.63270000  0.67030000  1
  O  O91  1  0.85130000  0.73270000  0.46144000  1
  O  O92  1  0.94480000  0.65850000  0.11280000  1
  O  O93  1  0.95630000  0.65490000  0.93470000  1
