# generated using pymatgen
data_Co3P2H24(C3O)14
_symmetry_space_group_name_H-M   'P 1'
_cell_length_a   19.53600000
_cell_length_b   24.87500000
_cell_length_c   24.96270000
_cell_angle_alpha   90.00000000
_cell_angle_beta   90.00000000
_cell_angle_gamma   90.00000000
_symmetry_Int_Tables_number   1
_chemical_formula_structural   Co3P2H24(C3O)14
_chemical_formula_sum   'Co24 P16 H192 C336 O112'
_cell_volume   12130.82376660
_cell_formula_units_Z   8
loop_
 _symmetry_equiv_pos_site_id
 _symmetry_equiv_pos_as_xyz
  1  'x, y, z'
loop_
 _atom_site_type_symbol
 _atom_site_label
 _atom_site_symmetry_multiplicity
 _atom_site_fract_x
 _atom_site_fract_y
 _atom_site_fract_z
 _atom_site_occupancy
  Co  Co0  1  0.08054000  0.02719000  0.58235000  1
  Co  Co1  1  0.08054000  0.52719000  0.91765000  1
  Co  Co2  1  0.08280000  0.09344000  0.07798000  1
  Co  Co3  1  0.08280000  0.59344000  0.42202000  1
  Co  Co4  1  0.24948000  0.05961000  0.12444000  1
  Co  Co5  1  0.24948000  0.55961000  0.37556000  1
  Co  Co6  1  0.25052000  0.05961000  0.62444000  1
  Co  Co7  1  0.25052000  0.55961000  0.87556000  1
  Co  Co8  1  0.41720000  0.09344000  0.57798000  1
  Co  Co9  1  0.41720000  0.59344000  0.92202000  1
  Co  Co10  1  0.41946000  0.02719000  0.08235000  1
  Co  Co11  1  0.41946000  0.52719000  0.41765000  1
  Co  Co12  1  0.58054000  0.47281000  0.58235000  1
  Co  Co13  1  0.58054000  0.97281000  0.91765000  1
  Co  Co14  1  0.58280000  0.40656000  0.07798000  1
  Co  Co15  1  0.58280000  0.90656000  0.42202000  1
  Co  Co16  1  0.74948000  0.44039000  0.12444000  1
  Co  Co17  1  0.74948000  0.94039000  0.37556000  1
  Co  Co18  1  0.75052000  0.44039000  0.62444000  1
  Co  Co19  1  0.75052000  0.94039000  0.87556000  1
  Co  Co20  1  0.91720000  0.40656000  0.57798000  1
  Co  Co21  1  0.91720000  0.90656000  0.92202000  1
  Co  Co22  1  0.91946000  0.47281000  0.08235000  1
  Co  Co23  1  0.91946000  0.97281000  0.41765000  1
  P  P24  1  0.08323000  0.23733000  0.40296000  1
  P  P25  1  0.08323000  0.73733000  0.09704000  1
  P  P26  1  0.08934000  0.38186000  0.59590000  1
  P  P27  1  0.08934000  0.88186000  0.90410000  1
  P  P28  1  0.41066000  0.38186000  0.09590000  1
  P  P29  1  0.41066000  0.88186000  0.40410000  1
  P  P30  1  0.41677000  0.23733000  0.90296000  1
  P  P31  1  0.41677000  0.73733000  0.59704000  1
  P  P32  1  0.58323000  0.26267000  0.40296000  1
  P  P33  1  0.58323000  0.76267000  0.09704000  1
  P  P34  1  0.58934000  0.11814000  0.59590000  1
  P  P35  1  0.58934000  0.61814000  0.90410000  1
  P  P36  1  0.91066000  0.11814000  0.09590000  1
  P  P37  1  0.91066000  0.61814000  0.40410000  1
  P  P38  1  0.91677000  0.26267000  0.90296000  1
  P  P39  1  0.91677000  0.76267000  0.59704000  1
  H  H40  1  0.00440000  0.21090000  0.31100000  1
  H  H41  1  0.00440000  0.71090000  0.18900000  1
  H  H42  1  0.00660000  0.42460000  0.67930000  1
  H  H43  1  0.00660000  0.92460000  0.82070000  1
  H  H44  1  0.01590000  0.29090000  0.55600000  1
  H  H45  1  0.01590000  0.79090000  0.94400000  1
  H  H46  1  0.02160000  0.32700000  0.45320000  1
  H  H47  1  0.02160000  0.82700000  0.04680000  1
  H  H48  1  0.02450000  0.16920000  0.22770000  1
  H  H49  1  0.02450000  0.66920000  0.27230000  1
  H  H50  1  0.02610000  0.46870000  0.76090000  1
  H  H51  1  0.02610000  0.96870000  0.73910000  1
  H  H52  1  0.02690000  0.19730000  0.56280000  1
  H  H53  1  0.02690000  0.69730000  0.93720000  1
  H  H54  1  0.03720000  0.42100000  0.45280000  1
  H  H55  1  0.03720000  0.92100000  0.04720000  1
  H  H56  1  0.10750000  0.14060000  0.45770000  1
  H  H57  1  0.10750000  0.64060000  0.04230000  1
  H  H58  1  0.12250000  0.48230000  0.55140000  1
  H  H59  1  0.12250000  0.98230000  0.94860000  1
  H  H60  1  0.16760000  0.31080000  0.33950000  1
  H  H61  1  0.16760000  0.81080000  0.16050000  1
  H  H62  1  0.18100000  0.30960000  0.65410000  1
  H  H63  1  0.18100000  0.80960000  0.84590000  1
  H  H64  1  0.18410000  0.40400000  0.33840000  1
  H  H65  1  0.18410000  0.90400000  0.16160000  1
  H  H66  1  0.19500000  0.21660000  0.65700000  1
  H  H67  1  0.19500000  0.71660000  0.84300000  1
  H  H68  1  0.19710000  0.10210000  0.50800000  1
  H  H69  1  0.19710000  0.60210000  0.99200000  1
  H  H70  1  0.19810000  0.24290000  0.99750000  1
  H  H71  1  0.19810000  0.74290000  0.50250000  1
  H  H72  1  0.20120000  0.37260000  0.98990000  1
  H  H73  1  0.20120000  0.87260000  0.51010000  1
  H  H74  1  0.20480000  0.19920000  0.34610000  1
  H  H75  1  0.20480000  0.69920000  0.15390000  1
  H  H76  1  0.20970000  0.01860000  0.00080000  1
  H  H77  1  0.20970000  0.51860000  0.49920000  1
  H  H78  1  0.21080000  0.40970000  0.65680000  1
  H  H79  1  0.21080000  0.90970000  0.84320000  1
  H  H80  1  0.21110000  0.33520000  0.54130000  1
  H  H81  1  0.21110000  0.83520000  0.95870000  1
  H  H82  1  0.21580000  0.27970000  0.44560000  1
  H  H83  1  0.21580000  0.77970000  0.05440000  1
  H  H84  1  0.22510000  0.15500000  0.26450000  1
  H  H85  1  0.22510000  0.65500000  0.23550000  1
  H  H86  1  0.23030000  0.45340000  0.73890000  1
  H  H87  1  0.23030000  0.95340000  0.76110000  1
  H  H88  1  0.26970000  0.45340000  0.23890000  1
  H  H89  1  0.26970000  0.95340000  0.26110000  1
  H  H90  1  0.27490000  0.15500000  0.76450000  1
  H  H91  1  0.27490000  0.65500000  0.73550000  1
  H  H92  1  0.28420000  0.27970000  0.94560000  1
  H  H93  1  0.28420000  0.77970000  0.55440000  1
  H  H94  1  0.28890000  0.33520000  0.04130000  1
  H  H95  1  0.28890000  0.83520000  0.45870000  1
  H  H96  1  0.28920000  0.40970000  0.15680000  1
  H  H97  1  0.28920000  0.90970000  0.34320000  1
  H  H98  1  0.29030000  0.01860000  0.50080000  1
  H  H99  1  0.29030000  0.51860000  0.99920000  1
  H  H100  1  0.29520000  0.19920000  0.84610000  1
  H  H101  1  0.29520000  0.69920000  0.65390000  1
  H  H102  1  0.29880000  0.37260000  0.48990000  1
  H  H103  1  0.29880000  0.87260000  0.01010000  1
  H  H104  1  0.30190000  0.24290000  0.49750000  1
  H  H105  1  0.30190000  0.74290000  0.00250000  1
  H  H106  1  0.30290000  0.10210000  0.00800000  1
  H  H107  1  0.30290000  0.60210000  0.49200000  1
  H  H108  1  0.30500000  0.21660000  0.15700000  1
  H  H109  1  0.30500000  0.71660000  0.34300000  1
  H  H110  1  0.31590000  0.40400000  0.83840000  1
  H  H111  1  0.31590000  0.90400000  0.66160000  1
  H  H112  1  0.31900000  0.30960000  0.15410000  1
  H  H113  1  0.31900000  0.80960000  0.34590000  1
  H  H114  1  0.33240000  0.31080000  0.83950000  1
  H  H115  1  0.33240000  0.81080000  0.66050000  1
  H  H116  1  0.37750000  0.48230000  0.05140000  1
  H  H117  1  0.37750000  0.98230000  0.44860000  1
  H  H118  1  0.39250000  0.14060000  0.95770000  1
  H  H119  1  0.39250000  0.64060000  0.54230000  1
  H  H120  1  0.46280000  0.42100000  0.95280000  1
  H  H121  1  0.46280000  0.92100000  0.54720000  1
  H  H122  1  0.47310000  0.19730000  0.06280000  1
  H  H123  1  0.47310000  0.69730000  0.43720000  1
  H  H124  1  0.47390000  0.46870000  0.26090000  1
  H  H125  1  0.47390000  0.96870000  0.23910000  1
  H  H126  1  0.47550000  0.16920000  0.72770000  1
  H  H127  1  0.47550000  0.66920000  0.77230000  1
  H  H128  1  0.47840000  0.32700000  0.95320000  1
  H  H129  1  0.47840000  0.82700000  0.54680000  1
  H  H130  1  0.48410000  0.29090000  0.05600000  1
  H  H131  1  0.48410000  0.79090000  0.44400000  1
  H  H132  1  0.49340000  0.42460000  0.17930000  1
  H  H133  1  0.49340000  0.92460000  0.32070000  1
  H  H134  1  0.49560000  0.21090000  0.81100000  1
  H  H135  1  0.49560000  0.71090000  0.68900000  1
  H  H136  1  0.50440000  0.28910000  0.31100000  1
  H  H137  1  0.50440000  0.78910000  0.18900000  1
  H  H138  1  0.50660000  0.07540000  0.67930000  1
  H  H139  1  0.50660000  0.57540000  0.82070000  1
  H  H140  1  0.51590000  0.20910000  0.55600000  1
  H  H141  1  0.51590000  0.70910000  0.94400000  1
  H  H142  1  0.52160000  0.17300000  0.45320000  1
  H  H143  1  0.52160000  0.67300000  0.04680000  1
  H  H144  1  0.52450000  0.33080000  0.22770000  1
  H  H145  1  0.52450000  0.83080000  0.27230000  1
  H  H146  1  0.52610000  0.03130000  0.76090000  1
  H  H147  1  0.52610000  0.53130000  0.73910000  1
  H  H148  1  0.52690000  0.30270000  0.56280000  1
  H  H149  1  0.52690000  0.80270000  0.93720000  1
  H  H150  1  0.53720000  0.07900000  0.45280000  1
  H  H151  1  0.53720000  0.57900000  0.04720000  1
  H  H152  1  0.60750000  0.35940000  0.45770000  1
  H  H153  1  0.60750000  0.85940000  0.04230000  1
  H  H154  1  0.62250000  0.01770000  0.55140000  1
  H  H155  1  0.62250000  0.51770000  0.94860000  1
  H  H156  1  0.66760000  0.18920000  0.33950000  1
  H  H157  1  0.66760000  0.68920000  0.16050000  1
  H  H158  1  0.68100000  0.19040000  0.65410000  1
  H  H159  1  0.68100000  0.69040000  0.84590000  1
  H  H160  1  0.68410000  0.09600000  0.33840000  1
  H  H161  1  0.68410000  0.59600000  0.16160000  1
  H  H162  1  0.69500000  0.28340000  0.65700000  1
  H  H163  1  0.69500000  0.78340000  0.84300000  1
  H  H164  1  0.69710000  0.39790000  0.50800000  1
  H  H165  1  0.69710000  0.89790000  0.99200000  1
  H  H166  1  0.69810000  0.25710000  0.99750000  1
  H  H167  1  0.69810000  0.75710000  0.50250000  1
  H  H168  1  0.70120000  0.12740000  0.98990000  1
  H  H169  1  0.70120000  0.62740000  0.51010000  1
  H  H170  1  0.70480000  0.30080000  0.34610000  1
  H  H171  1  0.70480000  0.80080000  0.15390000  1
  H  H172  1  0.70970000  0.48140000  0.00080000  1
  H  H173  1  0.70970000  0.98140000  0.49920000  1
  H  H174  1  0.71080000  0.09030000  0.65680000  1
  H  H175  1  0.71080000  0.59030000  0.84320000  1
  H  H176  1  0.71110000  0.16480000  0.54130000  1
  H  H177  1  0.71110000  0.66480000  0.95870000  1
  H  H178  1  0.71580000  0.22030000  0.44560000  1
  H  H179  1  0.71580000  0.72030000  0.05440000  1
  H  H180  1  0.72510000  0.34500000  0.26450000  1
  H  H181  1  0.72510000  0.84500000  0.23550000  1
  H  H182  1  0.73030000  0.04660000  0.73890000  1
  H  H183  1  0.73030000  0.54660000  0.76110000  1
  H  H184  1  0.76970000  0.04660000  0.23890000  1
  H  H185  1  0.76970000  0.54660000  0.26110000  1
  H  H186  1  0.77490000  0.34500000  0.76450000  1
  H  H187  1  0.77490000  0.84500000  0.73550000  1
  H  H188  1  0.78420000  0.22030000  0.94560000  1
  H  H189  1  0.78420000  0.72030000  0.55440000  1
  H  H190  1  0.78890000  0.16480000  0.04130000  1
  H  H191  1  0.78890000  0.66480000  0.45870000  1
  H  H192  1  0.78920000  0.09030000  0.15680000  1
  H  H193  1  0.78920000  0.59030000  0.34320000  1
  H  H194  1  0.79030000  0.48140000  0.50080000  1
  H  H195  1  0.79030000  0.98140000  0.99920000  1
  H  H196  1  0.79520000  0.30080000  0.84610000  1
  H  H197  1  0.79520000  0.80080000  0.65390000  1
  H  H198  1  0.79880000  0.12740000  0.48990000  1
  H  H199  1  0.79880000  0.62740000  0.01010000  1
  H  H200  1  0.80190000  0.25710000  0.49750000  1
  H  H201  1  0.80190000  0.75710000  0.00250000  1
  H  H202  1  0.80290000  0.39790000  0.00800000  1
  H  H203  1  0.80290000  0.89790000  0.49200000  1
  H  H204  1  0.80500000  0.28340000  0.15700000  1
  H  H205  1  0.80500000  0.78340000  0.34300000  1
  H  H206  1  0.81590000  0.09600000  0.83840000  1
  H  H207  1  0.81590000  0.59600000  0.66160000  1
  H  H208  1  0.81900000  0.19040000  0.15410000  1
  H  H209  1  0.81900000  0.69040000  0.34590000  1
  H  H210  1  0.83240000  0.18920000  0.83950000  1
  H  H211  1  0.83240000  0.68920000  0.66050000  1
  H  H212  1  0.87750000  0.01770000  0.05140000  1
  H  H213  1  0.87750000  0.51770000  0.44860000  1
  H  H214  1  0.89250000  0.35940000  0.95770000  1
  H  H215  1  0.89250000  0.85940000  0.54230000  1
  H  H216  1  0.96280000  0.07900000  0.95280000  1
  H  H217  1  0.96280000  0.57900000  0.54720000  1
  H  H218  1  0.97310000  0.30270000  0.06280000  1
  H  H219  1  0.97310000  0.80270000  0.43720000  1
  H  H220  1  0.97390000  0.03130000  0.26090000  1
  H  H221  1  0.97390000  0.53130000  0.23910000  1
  H  H222  1  0.97550000  0.33080000  0.72770000  1
  H  H223  1  0.97550000  0.83080000  0.77230000  1
  H  H224  1  0.97840000  0.17300000  0.95320000  1
  H  H225  1  0.97840000  0.67300000  0.54680000  1
  H  H226  1  0.98410000  0.20910000  0.05600000  1
  H  H227  1  0.98410000  0.70910000  0.44400000  1
  H  H228  1  0.99340000  0.07540000  0.17930000  1
  H  H229  1  0.99340000  0.57540000  0.32070000  1
  H  H230  1  0.99560000  0.28910000  0.81100000  1
  H  H231  1  0.99560000  0.78910000  0.68900000  1
  C  C232  1  0.04930000  0.19950000  0.30190000  1
  C  C233  1  0.04930000  0.69950000  0.19810000  1
  C  C234  1  0.05170000  0.27591000  0.57690000  1
  C  C235  1  0.05170000  0.77591000  0.92310000  1
  C  C236  1  0.05230000  0.43080000  0.69090000  1
  C  C237  1  0.05230000  0.93080000  0.80910000  1
  C  C238  1  0.05480000  0.34250000  0.43000000  1
  C  C239  1  0.05480000  0.84250000  0.07000000  1
  C  C240  1  0.05890000  0.22007000  0.58040000  1
  C  C241  1  0.05890000  0.72007000  0.91960000  1
  C  C242  1  0.06130000  0.17400000  0.25210000  1
  C  C243  1  0.06130000  0.67400000  0.24790000  1
  C  C244  1  0.06370000  0.39890000  0.42960000  1
  C  C245  1  0.06370000  0.89890000  0.07040000  1
  C  C246  1  0.06380000  0.45700000  0.73990000  1
  C  C247  1  0.06380000  0.95700000  0.76010000  1
  C  C248  1  0.09310000  0.30968000  0.39750000  1
  C  C249  1  0.09310000  0.80968000  0.10250000  1
  C  C250  1  0.09780000  0.31018000  0.60448000  1
  C  C251  1  0.09780000  0.81018000  0.89552000  1
  C  C252  1  0.10220000  0.20760000  0.33720000  1
  C  C253  1  0.10220000  0.70760000  0.16280000  1
  C  C254  1  0.10620000  0.41401000  0.65921000  1
  C  C255  1  0.10620000  0.91401000  0.84079000  1
  C  C256  1  0.11180000  0.42218000  0.39490000  1
  C  C257  1  0.11180000  0.92218000  0.10510000  1
  C  C258  1  0.11220000  0.19767000  0.60930000  1
  C  C259  1  0.11220000  0.69767000  0.89070000  1
  C  C260  1  0.12260000  0.13730000  0.61090000  1
  C  C261  1  0.12260000  0.63730000  0.88910000  1
  C  C262  1  0.12450000  0.48190000  0.39490000  1
  C  C263  1  0.12450000  0.98190000  0.10510000  1
  C  C264  1  0.12610000  0.15624000  0.23860000  1
  C  C265  1  0.12610000  0.65624000  0.26140000  1
  C  C266  1  0.13030000  0.46580000  0.75780000  1
  C  C267  1  0.13030000  0.96580000  0.74220000  1
  C  C268  1  0.13900000  0.12600000  0.18700000  1
  C  C269  1  0.13900000  0.62600000  0.31300000  1
  C  C270  1  0.14130000  0.33310000  0.36260000  1
  C  C271  1  0.14130000  0.83310000  0.13740000  1
  C  C272  1  0.14360000  0.49570000  0.80980000  1
  C  C273  1  0.14360000  0.99570000  0.69020000  1
  C  C274  1  0.14730000  0.16120000  0.46530000  1
  C  C275  1  0.14730000  0.66120000  0.03470000  1
  C  C276  1  0.15040000  0.28712000  0.63480000  1
  C  C277  1  0.15040000  0.78712000  0.86520000  1
  C  C278  1  0.15090000  0.38870000  0.36170000  1
  C  C279  1  0.15090000  0.88870000  0.13830000  1
  C  C280  1  0.15230000  0.21420000  0.44590000  1
  C  C281  1  0.15230000  0.71420000  0.05410000  1
  C  C282  1  0.15760000  0.40477000  0.55292000  1
  C  C283  1  0.15760000  0.90477000  0.94708000  1
  C  C284  1  0.15830000  0.45960000  0.53900000  1
  C  C285  1  0.15830000  0.95960000  0.96100000  1
  C  C286  1  0.15850000  0.23170000  0.63700000  1
  C  C287  1  0.15850000  0.73170000  0.86300000  1
  C  C288  1  0.16760000  0.19210000  0.32260000  1
  C  C289  1  0.16760000  0.69210000  0.17740000  1
  C  C290  1  0.17310000  0.42190000  0.67760000  1
  C  C291  1  0.17310000  0.92190000  0.82240000  1
  C  C292  1  0.18000000  0.16600000  0.27370000  1
  C  C293  1  0.18000000  0.66600000  0.22630000  1
  C  C294  1  0.18010000  0.47354000  0.95778000  1
  C  C295  1  0.18010000  0.97354000  0.54222000  1
  C  C296  1  0.18330000  0.14370000  0.03710000  1
  C  C297  1  0.18330000  0.64370000  0.46290000  1
  C  C298  1  0.18470000  0.44800000  0.72680000  1
  C  C299  1  0.18470000  0.94800000  0.77320000  1
  C  C300  1  0.20050000  0.13815000  0.49570000  1
  C  C301  1  0.20050000  0.63815000  0.00430000  1
  C  C302  1  0.21020000  0.48140000  0.50770000  1
  C  C303  1  0.21020000  0.98140000  0.99230000  1
  C  C304  1  0.21050000  0.37260000  0.53340000  1
  C  C305  1  0.21050000  0.87260000  0.96660000  1
  C  C306  1  0.21140000  0.24390000  0.45850000  1
  C  C307  1  0.21140000  0.74390000  0.04150000  1
  C  C308  1  0.23720000  0.22190000  0.98900000  1
  C  C309  1  0.23720000  0.72190000  0.51100000  1
  C  C310  1  0.23740000  0.39490000  0.00220000  1
  C  C311  1  0.23740000  0.89490000  0.49780000  1
  C  C312  1  0.23750000  0.44908000  0.98885000  1
  C  C313  1  0.23750000  0.94908000  0.51115000  1
  C  C314  1  0.24150000  0.16900000  0.00770000  1
  C  C315  1  0.24150000  0.66900000  0.49230000  1
  C  C316  1  0.25850000  0.16900000  0.50770000  1
  C  C317  1  0.25850000  0.66900000  0.99230000  1
  C  C318  1  0.26250000  0.44908000  0.48885000  1
  C  C319  1  0.26250000  0.94908000  0.01115000  1
  C  C320  1  0.26260000  0.39490000  0.50220000  1
  C  C321  1  0.26260000  0.89490000  0.99780000  1
  C  C322  1  0.26280000  0.22190000  0.48900000  1
  C  C323  1  0.26280000  0.72190000  0.01100000  1
  C  C324  1  0.28860000  0.24390000  0.95850000  1
  C  C325  1  0.28860000  0.74390000  0.54150000  1
  C  C326  1  0.28950000  0.37260000  0.03340000  1
  C  C327  1  0.28950000  0.87260000  0.46660000  1
  C  C328  1  0.28980000  0.48140000  0.00770000  1
  C  C329  1  0.28980000  0.98140000  0.49230000  1
  C  C330  1  0.29950000  0.13815000  0.99570000  1
  C  C331  1  0.29950000  0.63815000  0.50430000  1
  C  C332  1  0.31530000  0.44800000  0.22680000  1
  C  C333  1  0.31530000  0.94800000  0.27320000  1
  C  C334  1  0.31670000  0.14370000  0.53710000  1
  C  C335  1  0.31670000  0.64370000  0.96290000  1
  C  C336  1  0.31990000  0.47354000  0.45778000  1
  C  C337  1  0.31990000  0.97354000  0.04222000  1
  C  C338  1  0.32000000  0.16600000  0.77370000  1
  C  C339  1  0.32000000  0.66600000  0.72630000  1
  C  C340  1  0.32690000  0.42190000  0.17760000  1
  C  C341  1  0.32690000  0.92190000  0.32240000  1
  C  C342  1  0.33240000  0.19210000  0.82260000  1
  C  C343  1  0.33240000  0.69210000  0.67740000  1
  C  C344  1  0.34150000  0.23170000  0.13700000  1
  C  C345  1  0.34150000  0.73170000  0.36300000  1
  C  C346  1  0.34170000  0.45960000  0.03900000  1
  C  C347  1  0.34170000  0.95960000  0.46100000  1
  C  C348  1  0.34240000  0.40477000  0.05292000  1
  C  C349  1  0.34240000  0.90477000  0.44708000  1
  C  C350  1  0.34770000  0.21420000  0.94590000  1
  C  C351  1  0.34770000  0.71420000  0.55410000  1
  C  C352  1  0.34910000  0.38870000  0.86170000  1
  C  C353  1  0.34910000  0.88870000  0.63830000  1
  C  C354  1  0.34960000  0.28712000  0.13480000  1
  C  C355  1  0.34960000  0.78712000  0.36520000  1
  C  C356  1  0.35270000  0.16120000  0.96530000  1
  C  C357  1  0.35270000  0.66120000  0.53470000  1
  C  C358  1  0.35640000  0.49570000  0.30980000  1
  C  C359  1  0.35640000  0.99570000  0.19020000  1
  C  C360  1  0.35870000  0.33310000  0.86260000  1
  C  C361  1  0.35870000  0.83310000  0.63740000  1
  C  C362  1  0.36100000  0.12600000  0.68700000  1
  C  C363  1  0.36100000  0.62600000  0.81300000  1
  C  C364  1  0.36970000  0.46580000  0.25780000  1
  C  C365  1  0.36970000  0.96580000  0.24220000  1
  C  C366  1  0.37390000  0.15624000  0.73860000  1
  C  C367  1  0.37390000  0.65624000  0.76140000  1
  C  C368  1  0.37550000  0.48190000  0.89490000  1
  C  C369  1  0.37550000  0.98190000  0.60510000  1
  C  C370  1  0.37740000  0.13730000  0.11090000  1
  C  C371  1  0.37740000  0.63730000  0.38910000  1
  C  C372  1  0.38780000  0.19767000  0.10930000  1
  C  C373  1  0.38780000  0.69767000  0.39070000  1
  C  C374  1  0.38820000  0.42218000  0.89490000  1
  C  C375  1  0.38820000  0.92218000  0.60510000  1
  C  C376  1  0.39380000  0.41401000  0.15921000  1
  C  C377  1  0.39380000  0.91401000  0.34079000  1
  C  C378  1  0.39780000  0.20760000  0.83720000  1
  C  C379  1  0.39780000  0.70760000  0.66280000  1
  C  C380  1  0.40220000  0.31018000  0.10448000  1
  C  C381  1  0.40220000  0.81018000  0.39552000  1
  C  C382  1  0.40690000  0.30968000  0.89750000  1
  C  C383  1  0.40690000  0.80968000  0.60250000  1
  C  C384  1  0.43620000  0.45700000  0.23990000  1
  C  C385  1  0.43620000  0.95700000  0.26010000  1
  C  C386  1  0.43630000  0.39890000  0.92960000  1
  C  C387  1  0.43630000  0.89890000  0.57040000  1
  C  C388  1  0.43870000  0.17400000  0.75210000  1
  C  C389  1  0.43870000  0.67400000  0.74790000  1
  C  C390  1  0.44110000  0.22007000  0.08040000  1
  C  C391  1  0.44110000  0.72007000  0.41960000  1
  C  C392  1  0.44520000  0.34250000  0.93000000  1
  C  C393  1  0.44520000  0.84250000  0.57000000  1
  C  C394  1  0.44770000  0.43080000  0.19090000  1
  C  C395  1  0.44770000  0.93080000  0.30910000  1
  C  C396  1  0.44830000  0.27591000  0.07690000  1
  C  C397  1  0.44830000  0.77591000  0.42310000  1
  C  C398  1  0.45070000  0.19950000  0.80190000  1
  C  C399  1  0.45070000  0.69950000  0.69810000  1
  C  C400  1  0.54930000  0.30050000  0.30190000  1
  C  C401  1  0.54930000  0.80050000  0.19810000  1
  C  C402  1  0.55170000  0.22409000  0.57690000  1
  C  C403  1  0.55170000  0.72409000  0.92310000  1
  C  C404  1  0.55230000  0.06920000  0.69090000  1
  C  C405  1  0.55230000  0.56920000  0.80910000  1
  C  C406  1  0.55480000  0.15750000  0.43000000  1
  C  C407  1  0.55480000  0.65750000  0.07000000  1
  C  C408  1  0.55890000  0.27993000  0.58040000  1
  C  C409  1  0.55890000  0.77993000  0.91960000  1
  C  C410  1  0.56130000  0.32600000  0.25210000  1
  C  C411  1  0.56130000  0.82600000  0.24790000  1
  C  C412  1  0.56370000  0.10110000  0.42960000  1
  C  C413  1  0.56370000  0.60110000  0.07040000  1
  C  C414  1  0.56380000  0.04300000  0.73990000  1
  C  C415  1  0.56380000  0.54300000  0.76010000  1
  C  C416  1  0.59310000  0.19032000  0.39750000  1
  C  C417  1  0.59310000  0.69032000  0.10250000  1
  C  C418  1  0.59780000  0.18982000  0.60448000  1
  C  C419  1  0.59780000  0.68982000  0.89552000  1
  C  C420  1  0.60220000  0.29240000  0.33720000  1
  C  C421  1  0.60220000  0.79240000  0.16280000  1
  C  C422  1  0.60620000  0.08599000  0.65921000  1
  C  C423  1  0.60620000  0.58599000  0.84079000  1
  C  C424  1  0.61180000  0.07782000  0.39490000  1
  C  C425  1  0.61180000  0.57782000  0.10510000  1
  C  C426  1  0.61220000  0.30233000  0.60930000  1
  C  C427  1  0.61220000  0.80233000  0.89070000  1
  C  C428  1  0.62260000  0.36270000  0.61090000  1
  C  C429  1  0.62260000  0.86270000  0.88910000  1
  C  C430  1  0.62450000  0.01810000  0.39490000  1
  C  C431  1  0.62450000  0.51810000  0.10510000  1
  C  C432  1  0.62610000  0.34376000  0.23860000  1
  C  C433  1  0.62610000  0.84376000  0.26140000  1
  C  C434  1  0.63030000  0.03420000  0.75780000  1
  C  C435  1  0.63030000  0.53420000  0.74220000  1
  C  C436  1  0.63900000  0.37400000  0.18700000  1
  C  C437  1  0.63900000  0.87400000  0.31300000  1
  C  C438  1  0.64130000  0.16690000  0.36260000  1
  C  C439  1  0.64130000  0.66690000  0.13740000  1
  C  C440  1  0.64360000  0.00430000  0.80980000  1
  C  C441  1  0.64360000  0.50430000  0.69020000  1
  C  C442  1  0.64730000  0.33880000  0.46530000  1
  C  C443  1  0.64730000  0.83880000  0.03470000  1
  C  C444  1  0.65040000  0.21288000  0.63480000  1
  C  C445  1  0.65040000  0.71288000  0.86520000  1
  C  C446  1  0.65090000  0.11130000  0.36170000  1
  C  C447  1  0.65090000  0.61130000  0.13830000  1
  C  C448  1  0.65230000  0.28580000  0.44590000  1
  C  C449  1  0.65230000  0.78580000  0.05410000  1
  C  C450  1  0.65760000  0.09523000  0.55292000  1
  C  C451  1  0.65760000  0.59523000  0.94708000  1
  C  C452  1  0.65830000  0.04040000  0.53900000  1
  C  C453  1  0.65830000  0.54040000  0.96100000  1
  C  C454  1  0.65850000  0.26830000  0.63700000  1
  C  C455  1  0.65850000  0.76830000  0.86300000  1
  C  C456  1  0.66760000  0.30790000  0.32260000  1
  C  C457  1  0.66760000  0.80790000  0.17740000  1
  C  C458  1  0.67310000  0.07810000  0.67760000  1
  C  C459  1  0.67310000  0.57810000  0.82240000  1
  C  C460  1  0.68000000  0.33400000  0.27370000  1
  C  C461  1  0.68000000  0.83400000  0.22630000  1
  C  C462  1  0.68010000  0.02646000  0.95778000  1
  C  C463  1  0.68010000  0.52646000  0.54222000  1
  C  C464  1  0.68330000  0.35630000  0.03710000  1
  C  C465  1  0.68330000  0.85630000  0.46290000  1
  C  C466  1  0.68470000  0.05200000  0.72680000  1
  C  C467  1  0.68470000  0.55200000  0.77320000  1
  C  C468  1  0.70050000  0.36185000  0.49570000  1
  C  C469  1  0.70050000  0.86185000  0.00430000  1
  C  C470  1  0.71020000  0.01860000  0.50770000  1
  C  C471  1  0.71020000  0.51860000  0.99230000  1
  C  C472  1  0.71050000  0.12740000  0.53340000  1
  C  C473  1  0.71050000  0.62740000  0.96660000  1
  C  C474  1  0.71140000  0.25610000  0.45850000  1
  C  C475  1  0.71140000  0.75610000  0.04150000  1
  C  C476  1  0.73720000  0.27810000  0.98900000  1
  C  C477  1  0.73720000  0.77810000  0.51100000  1
  C  C478  1  0.73740000  0.10510000  0.00220000  1
  C  C479  1  0.73740000  0.60510000  0.49780000  1
  C  C480  1  0.73750000  0.05092000  0.98885000  1
  C  C481  1  0.73750000  0.55092000  0.51115000  1
  C  C482  1  0.74150000  0.33100000  0.00770000  1
  C  C483  1  0.74150000  0.83100000  0.49230000  1
  C  C484  1  0.75850000  0.33100000  0.50770000  1
  C  C485  1  0.75850000  0.83100000  0.99230000  1
  C  C486  1  0.76250000  0.05092000  0.48885000  1
  C  C487  1  0.76250000  0.55092000  0.01115000  1
  C  C488  1  0.76260000  0.10510000  0.50220000  1
  C  C489  1  0.76260000  0.60510000  0.99780000  1
  C  C490  1  0.76280000  0.27810000  0.48900000  1
  C  C491  1  0.76280000  0.77810000  0.01100000  1
  C  C492  1  0.78860000  0.25610000  0.95850000  1
  C  C493  1  0.78860000  0.75610000  0.54150000  1
  C  C494  1  0.78950000  0.12740000  0.03340000  1
  C  C495  1  0.78950000  0.62740000  0.46660000  1
  C  C496  1  0.78980000  0.01860000  0.00770000  1
  C  C497  1  0.78980000  0.51860000  0.49230000  1
  C  C498  1  0.79950000  0.36185000  0.99570000  1
  C  C499  1  0.79950000  0.86185000  0.50430000  1
  C  C500  1  0.81530000  0.05200000  0.22680000  1
  C  C501  1  0.81530000  0.55200000  0.27320000  1
  C  C502  1  0.81670000  0.35630000  0.53710000  1
  C  C503  1  0.81670000  0.85630000  0.96290000  1
  C  C504  1  0.81990000  0.02646000  0.45778000  1
  C  C505  1  0.81990000  0.52646000  0.04222000  1
  C  C506  1  0.82000000  0.33400000  0.77370000  1
  C  C507  1  0.82000000  0.83400000  0.72630000  1
  C  C508  1  0.82690000  0.07810000  0.17760000  1
  C  C509  1  0.82690000  0.57810000  0.32240000  1
  C  C510  1  0.83240000  0.30790000  0.82260000  1
  C  C511  1  0.83240000  0.80790000  0.67740000  1
  C  C512  1  0.84150000  0.26830000  0.13700000  1
  C  C513  1  0.84150000  0.76830000  0.36300000  1
  C  C514  1  0.84170000  0.04040000  0.03900000  1
  C  C515  1  0.84170000  0.54040000  0.46100000  1
  C  C516  1  0.84240000  0.09523000  0.05292000  1
  C  C517  1  0.84240000  0.59523000  0.44708000  1
  C  C518  1  0.84770000  0.28580000  0.94590000  1
  C  C519  1  0.84770000  0.78580000  0.55410000  1
  C  C520  1  0.84910000  0.11130000  0.86170000  1
  C  C521  1  0.84910000  0.61130000  0.63830000  1
  C  C522  1  0.84960000  0.21288000  0.13480000  1
  C  C523  1  0.84960000  0.71288000  0.36520000  1
  C  C524  1  0.85270000  0.33880000  0.96530000  1
  C  C525  1  0.85270000  0.83880000  0.53470000  1
  C  C526  1  0.85640000  0.00430000  0.30980000  1
  C  C527  1  0.85640000  0.50430000  0.19020000  1
  C  C528  1  0.85870000  0.16690000  0.86260000  1
  C  C529  1  0.85870000  0.66690000  0.63740000  1
  C  C530  1  0.86100000  0.37400000  0.68700000  1
  C  C531  1  0.86100000  0.87400000  0.81300000  1
  C  C532  1  0.86970000  0.03420000  0.25780000  1
  C  C533  1  0.86970000  0.53420000  0.24220000  1
  C  C534  1  0.87390000  0.34376000  0.73860000  1
  C  C535  1  0.87390000  0.84376000  0.76140000  1
  C  C536  1  0.87550000  0.01810000  0.89490000  1
  C  C537  1  0.87550000  0.51810000  0.60510000  1
  C  C538  1  0.87740000  0.36270000  0.11090000  1
  C  C539  1  0.87740000  0.86270000  0.38910000  1
  C  C540  1  0.88780000  0.30233000  0.10930000  1
  C  C541  1  0.88780000  0.80233000  0.39070000  1
  C  C542  1  0.88820000  0.07782000  0.89490000  1
  C  C543  1  0.88820000  0.57782000  0.60510000  1
  C  C544  1  0.89380000  0.08599000  0.15921000  1
  C  C545  1  0.89380000  0.58599000  0.34079000  1
  C  C546  1  0.89780000  0.29240000  0.83720000  1
  C  C547  1  0.89780000  0.79240000  0.66280000  1
  C  C548  1  0.90220000  0.18982000  0.10448000  1
  C  C549  1  0.90220000  0.68982000  0.39552000  1
  C  C550  1  0.90690000  0.19032000  0.89750000  1
  C  C551  1  0.90690000  0.69032000  0.60250000  1
  C  C552  1  0.93620000  0.04300000  0.23990000  1
  C  C553  1  0.93620000  0.54300000  0.26010000  1
  C  C554  1  0.93630000  0.10110000  0.92960000  1
  C  C555  1  0.93630000  0.60110000  0.57040000  1
  C  C556  1  0.93870000  0.32600000  0.75210000  1
  C  C557  1  0.93870000  0.82600000  0.74790000  1
  C  C558  1  0.94110000  0.27993000  0.08040000  1
  C  C559  1  0.94110000  0.77993000  0.41960000  1
  C  C560  1  0.94520000  0.15750000  0.93000000  1
  C  C561  1  0.94520000  0.65750000  0.57000000  1
  C  C562  1  0.94770000  0.06920000  0.19090000  1
  C  C563  1  0.94770000  0.56920000  0.30910000  1
  C  C564  1  0.94830000  0.22409000  0.07690000  1
  C  C565  1  0.94830000  0.72409000  0.42310000  1
  C  C566  1  0.95070000  0.30050000  0.80190000  1
  C  C567  1  0.95070000  0.80050000  0.69810000  1
  O  O568  1  0.01388000  0.22116000  0.42294000  1
  O  O569  1  0.01388000  0.72116000  0.07706000  1
  O  O570  1  0.02067000  0.39688000  0.57364000  1
  O  O571  1  0.02067000  0.89688000  0.92636000  1
  O  O572  1  0.07330000  0.10754000  0.59797000  1
  O  O573  1  0.07330000  0.60754000  0.90203000  1
  O  O574  1  0.07731000  0.01206000  0.08620000  1
  O  O575  1  0.07731000  0.51206000  0.41380000  1
  O  O576  1  0.09067000  0.12510000  0.15302000  1
  O  O577  1  0.09067000  0.62510000  0.34698000  1
  O  O578  1  0.09314000  0.49987000  0.84178000  1
  O  O579  1  0.09314000  0.99987000  0.65822000  1
  O  O580  1  0.12256000  0.45019000  0.95393000  1
  O  O581  1  0.12256000  0.95019000  0.54607000  1
  O  O582  1  0.12420000  0.16440000  0.03770000  1
  O  O583  1  0.12420000  0.66440000  0.46230000  1
  O  O584  1  0.18148000  0.49695000  0.37693000  1
  O  O585  1  0.18148000  0.99695000  0.12307000  1
  O  O586  1  0.18195000  0.12197000  0.62588000  1
  O  O587  1  0.18195000  0.62197000  0.87412000  1
  O  O588  1  0.18732000  0.02125000  0.56263000  1
  O  O589  1  0.18732000  0.52125000  0.93737000  1
  O  O590  1  0.19207000  0.09842000  0.06156000  1
  O  O591  1  0.19207000  0.59842000  0.43844000  1
  O  O592  1  0.19620000  0.10307000  0.18250000  1
  O  O593  1  0.19620000  0.60307000  0.31750000  1
  O  O594  1  0.20304000  0.01503000  0.68428000  1
  O  O595  1  0.20304000  0.51503000  0.81572000  1
  O  O596  1  0.29696000  0.01503000  0.18428000  1
  O  O597  1  0.29696000  0.51503000  0.31572000  1
  O  O598  1  0.30380000  0.10307000  0.68250000  1
  O  O599  1  0.30380000  0.60307000  0.81750000  1
  O  O600  1  0.30793000  0.09842000  0.56156000  1
  O  O601  1  0.30793000  0.59842000  0.93844000  1
  O  O602  1  0.31268000  0.02125000  0.06263000  1
  O  O603  1  0.31268000  0.52125000  0.43737000  1
  O  O604  1  0.31805000  0.12197000  0.12588000  1
  O  O605  1  0.31805000  0.62197000  0.37412000  1
  O  O606  1  0.31852000  0.49695000  0.87693000  1
  O  O607  1  0.31852000  0.99695000  0.62307000  1
  O  O608  1  0.37580000  0.16440000  0.53770000  1
  O  O609  1  0.37580000  0.66440000  0.96230000  1
  O  O610  1  0.37744000  0.45019000  0.45393000  1
  O  O611  1  0.37744000  0.95019000  0.04607000  1
  O  O612  1  0.40686000  0.49987000  0.34178000  1
  O  O613  1  0.40686000  0.99987000  0.15822000  1
  O  O614  1  0.40933000  0.12510000  0.65302000  1
  O  O615  1  0.40933000  0.62510000  0.84698000  1
  O  O616  1  0.42269000  0.01206000  0.58620000  1
  O  O617  1  0.42269000  0.51206000  0.91380000  1
  O  O618  1  0.42670000  0.10754000  0.09797000  1
  O  O619  1  0.42670000  0.60754000  0.40203000  1
  O  O620  1  0.47933000  0.39688000  0.07364000  1
  O  O621  1  0.47933000  0.89688000  0.42636000  1
  O  O622  1  0.48612000  0.22116000  0.92294000  1
  O  O623  1  0.48612000  0.72116000  0.57706000  1
  O  O624  1  0.51388000  0.27884000  0.42294000  1
  O  O625  1  0.51388000  0.77884000  0.07706000  1
  O  O626  1  0.52067000  0.10312000  0.57364000  1
  O  O627  1  0.52067000  0.60312000  0.92636000  1
  O  O628  1  0.57330000  0.39246000  0.59797000  1
  O  O629  1  0.57330000  0.89246000  0.90203000  1
  O  O630  1  0.57731000  0.48794000  0.08620000  1
  O  O631  1  0.57731000  0.98794000  0.41380000  1
  O  O632  1  0.59067000  0.37490000  0.15302000  1
  O  O633  1  0.59067000  0.87490000  0.34698000  1
  O  O634  1  0.59314000  0.00013000  0.84178000  1
  O  O635  1  0.59314000  0.50013000  0.65822000  1
  O  O636  1  0.62256000  0.04981000  0.95393000  1
  O  O637  1  0.62256000  0.54981000  0.54607000  1
  O  O638  1  0.62420000  0.33560000  0.03770000  1
  O  O639  1  0.62420000  0.83560000  0.46230000  1
  O  O640  1  0.68148000  0.00305000  0.37693000  1
  O  O641  1  0.68148000  0.50305000  0.12307000  1
  O  O642  1  0.68195000  0.37803000  0.62588000  1
  O  O643  1  0.68195000  0.87803000  0.87412000  1
  O  O644  1  0.68732000  0.47875000  0.56263000  1
  O  O645  1  0.68732000  0.97875000  0.93737000  1
  O  O646  1  0.69207000  0.40158000  0.06156000  1
  O  O647  1  0.69207000  0.90158000  0.43844000  1
  O  O648  1  0.69620000  0.39693000  0.18250000  1
  O  O649  1  0.69620000  0.89693000  0.31750000  1
  O  O650  1  0.70304000  0.48497000  0.68428000  1
  O  O651  1  0.70304000  0.98497000  0.81572000  1
  O  O652  1  0.79696000  0.48497000  0.18428000  1
  O  O653  1  0.79696000  0.98497000  0.31572000  1
  O  O654  1  0.80380000  0.39693000  0.68250000  1
  O  O655  1  0.80380000  0.89693000  0.81750000  1
  O  O656  1  0.80793000  0.40158000  0.56156000  1
  O  O657  1  0.80793000  0.90158000  0.93844000  1
  O  O658  1  0.81268000  0.47875000  0.06263000  1
  O  O659  1  0.81268000  0.97875000  0.43737000  1
  O  O660  1  0.81805000  0.37803000  0.12588000  1
  O  O661  1  0.81805000  0.87803000  0.37412000  1
  O  O662  1  0.81852000  0.00305000  0.87693000  1
  O  O663  1  0.81852000  0.50305000  0.62307000  1
  O  O664  1  0.87580000  0.33560000  0.53770000  1
  O  O665  1  0.87580000  0.83560000  0.96230000  1
  O  O666  1  0.87744000  0.04981000  0.45393000  1
  O  O667  1  0.87744000  0.54981000  0.04607000  1
  O  O668  1  0.90686000  0.00013000  0.34178000  1
  O  O669  1  0.90686000  0.50013000  0.15822000  1
  O  O670  1  0.90933000  0.37490000  0.65302000  1
  O  O671  1  0.90933000  0.87490000  0.84698000  1
  O  O672  1  0.92269000  0.48794000  0.58620000  1
  O  O673  1  0.92269000  0.98794000  0.91380000  1
  O  O674  1  0.92670000  0.39246000  0.09797000  1
  O  O675  1  0.92670000  0.89246000  0.40203000  1
  O  O676  1  0.97933000  0.10312000  0.07364000  1
  O  O677  1  0.97933000  0.60312000  0.42636000  1
  O  O678  1  0.98612000  0.27884000  0.92294000  1
  O  O679  1  0.98612000  0.77884000  0.57706000  1
