# generated using pymatgen
data_Ni6H53C83N7O27
_symmetry_space_group_name_H-M   'P 1'
_cell_length_a   10.94950000
_cell_length_b   22.08560000
_cell_length_c   28.33140000
_cell_angle_alpha   100.49600000
_cell_angle_beta   99.54200000
_cell_angle_gamma   101.67400000
_symmetry_Int_Tables_number   1
_chemical_formula_structural   Ni6H53C83N7O27
_chemical_formula_sum   'Ni12 H106 C166 N14 O54'
_cell_volume   6449.56681135
_cell_formula_units_Z   2
loop_
 _symmetry_equiv_pos_site_id
 _symmetry_equiv_pos_as_xyz
  1  'x, y, z'
loop_
 _atom_site_type_symbol
 _atom_site_label
 _atom_site_symmetry_multiplicity
 _atom_site_fract_x
 _atom_site_fract_y
 _atom_site_fract_z
 _atom_site_occupancy
  Ni  Ni0  1  0.21197000  0.65038000  0.83489000  1
  Ni  Ni1  1  0.26586000  0.33915000  0.49764000  1
  Ni  Ni2  1  0.28698000  0.50900000  0.85453000  1
  Ni  Ni3  1  0.31182000  0.02689000  0.16141000  1
  Ni  Ni4  1  0.34370000  0.20096000  0.52202000  1
  Ni  Ni5  1  0.39904000  0.89303000  0.19219000  1
  Ni  Ni6  1  0.60096000  0.10697000  0.80781000  1
  Ni  Ni7  1  0.65630000  0.79904000  0.47798000  1
  Ni  Ni8  1  0.68818000  0.97311000  0.83859000  1
  Ni  Ni9  1  0.71302000  0.49100000  0.14547000  1
  Ni  Ni10  1  0.73414000  0.66085000  0.50236000  1
  Ni  Ni11  1  0.78803000  0.34962000  0.16511000  1
  H  H12  1  0.01390000  0.88650000  0.48750000  1
  H  H13  1  0.02250000  0.38190000  0.50480000  1
  H  H14  1  0.02940000  0.72920000  0.69000000  1
  H  H15  1  0.03010000  0.30480000  0.15960000  1
  H  H16  1  0.04400000  0.28670000  0.76460000  1
  H  H17  1  0.04660000  0.80470000  0.19010000  1
  H  H18  1  0.05620000  0.97870000  0.09050000  1
  H  H19  1  0.06770000  0.03270000  0.80020000  1
  H  H20  1  0.07520000  0.45390000  0.99020000  1
  H  H21  1  0.08040000  0.58280000  0.17050000  1
  H  H22  1  0.08130000  0.42320000  0.35520000  1
  H  H23  1  0.09790000  0.39550000  0.78250000  1
  H  H24  1  0.09920000  0.45480000  0.91000000  1
  H  H25  1  0.10750000  0.79500000  0.90650000  1
  H  H26  1  0.10820000  0.99040000  0.95030000  1
  H  H27  1  0.11110000  0.18920000  0.10110000  1
  H  H28  1  0.11830000  0.56970000  0.53650000  1
  H  H29  1  0.11950000  0.58520000  0.69180000  1
  H  H30  1  0.12360000  0.71940000  0.46740000  1
  H  H31  1  0.12390000  0.98450000  0.54070000  1
  H  H32  1  0.15130000  0.26700000  0.35570000  1
  H  H33  1  0.15930000  0.93760000  0.02270000  1
  H  H34  1  0.16560000  0.68860000  0.73810000  1
  H  H35  1  0.17200000  0.25910000  0.20310000  1
  H  H36  1  0.17730000  0.48960000  0.56620000  1
  H  H37  1  0.18050000  0.41550000  0.14150000  1
  H  H38  1  0.18270000  0.09440000  0.55800000  1
  H  H39  1  0.20460000  0.68210000  0.22470000  1
  H  H40  1  0.21550000  0.37460000  0.40010000  1
  H  H41  1  0.22530000  0.17790000  0.23210000  1
  H  H42  1  0.24280000  0.50860000  0.05570000  1
  H  H43  1  0.24890000  0.79010000  0.23260000  1
  H  H44  1  0.25630000  0.15070000  0.14510000  1
  H  H45  1  0.32300000  0.19490000  0.81270000  1
  H  H46  1  0.32560000  0.29290000  0.87720000  1
  H  H47  1  0.33300000  0.45820000  0.69580000  1
  H  H48  1  0.34410000  0.97600000  0.44100000  1
  H  H49  1  0.34590000  0.80000000  0.03240000  1
  H  H50  1  0.35120000  0.62490000  0.90670000  1
  H  H51  1  0.36260000  0.13830000  0.35950000  1
  H  H52  1  0.37260000  0.88490000  0.47180000  1
  H  H53  1  0.37710000  0.39930000  0.89070000  1
  H  H54  1  0.39370000  0.08610000  0.45490000  1
  H  H55  1  0.40550000  0.31600000  0.57050000  1
  H  H56  1  0.40970000  0.66850000  0.12080000  1
  H  H57  1  0.42120000  0.62520000  0.87050000  1
  H  H58  1  0.43280000  0.56450000  0.04030000  1
  H  H59  1  0.43760000  0.57950000  0.15280000  1
  H  H60  1  0.45370000  0.56320000  0.96010000  1
  H  H61  1  0.45610000  0.77960000  0.13150000  1
  H  H62  1  0.46380000  0.01080000  0.23420000  1
  H  H63  1  0.47360000  0.31420000  0.53370000  1
  H  H64  1  0.47410000  0.99480000  0.80430000  1
  H  H65  1  0.52590000  0.00520000  0.19570000  1
  H  H66  1  0.52640000  0.68580000  0.46630000  1
  H  H67  1  0.53620000  0.98920000  0.76580000  1
  H  H68  1  0.54390000  0.22040000  0.86850000  1
  H  H69  1  0.54630000  0.43680000  0.03990000  1
  H  H70  1  0.56240000  0.42050000  0.84720000  1
  H  H71  1  0.56720000  0.43550000  0.95970000  1
  H  H72  1  0.57880000  0.37480000  0.12950000  1
  H  H73  1  0.59030000  0.33150000  0.87920000  1
  H  H74  1  0.59450000  0.68400000  0.42950000  1
  H  H75  1  0.60630000  0.91390000  0.54510000  1
  H  H76  1  0.62290000  0.60070000  0.10930000  1
  H  H77  1  0.62740000  0.11510000  0.52820000  1
  H  H78  1  0.63740000  0.86170000  0.64050000  1
  H  H79  1  0.64880000  0.37510000  0.09330000  1
  H  H80  1  0.65410000  0.20000000  0.96760000  1
  H  H81  1  0.65590000  0.02400000  0.55900000  1
  H  H82  1  0.66700000  0.54180000  0.30420000  1
  H  H83  1  0.67440000  0.70710000  0.12280000  1
  H  H84  1  0.67700000  0.80510000  0.18730000  1
  H  H85  1  0.74370000  0.84930000  0.85490000  1
  H  H86  1  0.75110000  0.20990000  0.76740000  1
  H  H87  1  0.75720000  0.49140000  0.94430000  1
  H  H88  1  0.77470000  0.82210000  0.76790000  1
  H  H89  1  0.78450000  0.62540000  0.59990000  1
  H  H90  1  0.79540000  0.31790000  0.77530000  1
  H  H91  1  0.81730000  0.90560000  0.44200000  1
  H  H92  1  0.81950000  0.58450000  0.85850000  1
  H  H93  1  0.82270000  0.51040000  0.43380000  1
  H  H94  1  0.82800000  0.74090000  0.79690000  1
  H  H95  1  0.83440000  0.31140000  0.26190000  1
  H  H96  1  0.84070000  0.06240000  0.97730000  1
  H  H97  1  0.84870000  0.73300000  0.64430000  1
  H  H98  1  0.87610000  0.01550000  0.45930000  1
  H  H99  1  0.87640000  0.28060000  0.53260000  1
  H  H100  1  0.88050000  0.41480000  0.30820000  1
  H  H101  1  0.88170000  0.43030000  0.46350000  1
  H  H102  1  0.88890000  0.81080000  0.89890000  1
  H  H103  1  0.89180000  0.00960000  0.04970000  1
  H  H104  1  0.89250000  0.20500000  0.09350000  1
  H  H105  1  0.90080000  0.54520000  0.09000000  1
  H  H106  1  0.90210000  0.60450000  0.21750000  1
  H  H107  1  0.91870000  0.57680000  0.64480000  1
  H  H108  1  0.91960000  0.41720000  0.82950000  1
  H  H109  1  0.92480000  0.54610000  0.00980000  1
  H  H110  1  0.93230000  0.96730000  0.19980000  1
  H  H111  1  0.94380000  0.02130000  0.90950000  1
  H  H112  1  0.95340000  0.19530000  0.80990000  1
  H  H113  1  0.95600000  0.71330000  0.23540000  1
  H  H114  1  0.96990000  0.69520000  0.84040000  1
  H  H115  1  0.97060000  0.27080000  0.31000000  1
  H  H116  1  0.97750000  0.61810000  0.49520000  1
  H  H117  1  0.98610000  0.11350000  0.51250000  1
  C  C118  1  0.00860000  0.89147000  0.19454000  1
  C  C119  1  0.01430000  0.89310000  0.93251000  1
  C  C120  1  0.01680000  0.72437000  0.72087000  1
  C  C121  1  0.01690000  0.29604000  0.18947000  1
  C  C122  1  0.01830000  0.17391000  0.80969000  1
  C  C123  1  0.02490000  0.53768000  0.84487000  1
  C  C124  1  0.03370000  0.96098000  0.93308000  1
  C  C125  1  0.03490000  0.39165000  0.47510000  1
  C  C126  1  0.03650000  0.56879000  0.59609000  1
  C  C127  1  0.04580000  0.79858000  0.47791000  1
  C  C128  1  0.05180000  0.58039000  0.55004000  1
  C  C129  1  0.06400000  0.02200000  0.09314000  1
  C  C130  1  0.06740000  0.41532000  0.38528000  1
  C  C131  1  0.07630000  0.86432000  0.48287000  1
  C  C132  1  0.08470000  0.23323000  0.51940000  1
  C  C133  1  0.08590000  0.25788000  0.26055000  1
  C  C134  1  0.08690000  0.07650000  0.80385000  1
  C  C135  1  0.09640000  0.14560000  0.09836000  1
  C  C136  1  0.09740000  0.69961000  0.75030000  1
  C  C137  1  0.10370000  0.26915000  0.21574000  1
  C  C138  1  0.11060000  0.30904000  0.79070000  1
  C  C139  1  0.11100000  0.86773000  0.96045000  1
  C  C140  1  0.11280000  0.49302000  0.15750000  1
  C  C141  1  0.12520000  0.53923000  0.62340000  1
  C  C142  1  0.13240000  0.92636000  0.18959000  1
  C  C143  1  0.14140000  0.76325000  0.47114000  1
  C  C144  1  0.14210000  0.56074000  0.16427000  1
  C  C145  1  0.14350000  0.20687000  0.81362000  1
  C  C146  1  0.14470000  0.37431000  0.80140000  1
  C  C147  1  0.14540000  0.81447000  0.93909000  1
  C  C148  1  0.14970000  0.38729000  0.41306000  1
  C  C149  1  0.15120000  0.47597000  0.98441000  1
  C  C150  1  0.15300000  0.55404000  0.67552000  1
  C  C151  1  0.16590000  0.47650000  0.93624000  1
  C  C152  1  0.17110000  0.22615000  0.28897000  1
  C  C153  1  0.17300000  0.89858000  0.00910000  1
  C  C154  1  0.17750000  0.27717000  0.81970000  1
  C  C155  1  0.18030000  0.00510000  0.52427000  1
  C  C156  1  0.18410000  0.12239000  0.12472000  1
  C  C157  1  0.18630000  0.49711000  0.60013000  1
  C  C158  1  0.18970000  0.23785000  0.33969000  1
  C  C159  1  0.19920000  0.89814000  0.48103000  1
  C  C160  1  0.20170000  0.45960000  0.14820000  1
  C  C161  1  0.21160000  0.10948000  0.80771000  1
  C  C162  1  0.21320000  0.07088000  0.53387000  1
  C  C163  1  0.22790000  0.52410000  0.70309000  1
  C  C164  1  0.23160000  0.18371000  0.26587000  1
  C  C165  1  0.23160000  0.96979000  0.49005000  1
  C  C166  1  0.23630000  0.78811000  0.96476000  1
  C  C167  1  0.23980000  0.17336000  0.81151000  1
  C  C168  1  0.24980000  0.54243000  0.75735000  1
  C  C169  1  0.25140000  0.50877000  0.02356000  1
  C  C170  1  0.25240000  0.70028000  0.20443000  1
  C  C171  1  0.25400000  0.87156000  0.03686000  1
  C  C172  1  0.26230000  0.46549000  0.62764000  1
  C  C173  1  0.26370000  0.59381000  0.16158000  1
  C  C174  1  0.26450000  0.20723000  0.36773000  1
  C  C175  1  0.26720000  0.80004000  0.47044000  1
  C  C176  1  0.26780000  0.73156000  0.93740000  1
  C  C177  1  0.27870000  0.31312000  0.85747000  1
  C  C178  1  0.28150000  0.76585000  0.20961000  1
  C  C179  1  0.28180000  0.22543000  0.42197000  1
  C  C180  1  0.28250000  0.47909000  0.67805000  1
  C  C181  1  0.28820000  0.81703000  0.01428000  1
  C  C182  1  0.29200000  0.86356000  0.47402000  1
  C  C183  1  0.29240000  0.66350000  0.17068000  1
  C  C184  1  0.29950000  0.15041000  0.29076000  1
  C  C185  1  0.30700000  0.90378000  0.09004000  1
  C  C186  1  0.30880000  0.37636000  0.86548000  1
  C  C187  1  0.31070000  0.99957000  0.46405000  1
  C  C188  1  0.31660000  0.16144000  0.34233000  1
  C  C189  1  0.31660000  0.41751000  0.59909000  1
  C  C190  1  0.32230000  0.07801000  0.80584000  1
  C  C191  1  0.32930000  0.49430000  0.14907000  1
  C  C192  1  0.34060000  0.06586000  0.47268000  1
  C  C193  1  0.35620000  0.55828000  0.15420000  1
  C  C194  1  0.36020000  0.10518000  0.26179000  1
  C  C195  1  0.36580000  0.54218000  0.01433000  1
  C  C196  1  0.37350000  0.76626000  0.46646000  1
  C  C197  1  0.37520000  0.69288000  0.14296000  1
  C  C198  1  0.37800000  0.54155000  0.96626000  1
  C  C199  1  0.40370000  0.75975000  0.14973000  1
  C  C200  1  0.43260000  0.46198000  0.13884000  1
  C  C201  1  0.56740000  0.53802000  0.86116000  1
  C  C202  1  0.59630000  0.24025000  0.85027000  1
  C  C203  1  0.62200000  0.45845000  0.03374000  1
  C  C204  1  0.62480000  0.30712000  0.85704000  1
  C  C205  1  0.62650000  0.23374000  0.53354000  1
  C  C206  1  0.63420000  0.45782000  0.98567000  1
  C  C207  1  0.63980000  0.89482000  0.73821000  1
  C  C208  1  0.64380000  0.44172000  0.84580000  1
  C  C209  1  0.65940000  0.93414000  0.52732000  1
  C  C210  1  0.67070000  0.50570000  0.85093000  1
  C  C211  1  0.67770000  0.92199000  0.19416000  1
  C  C212  1  0.68340000  0.58249000  0.40091000  1
  C  C213  1  0.68340000  0.83856000  0.65767000  1
  C  C214  1  0.68930000  0.00043000  0.53595000  1
  C  C215  1  0.69120000  0.62364000  0.13452000  1
  C  C216  1  0.69300000  0.09622000  0.90996000  1
  C  C217  1  0.70050000  0.84959000  0.70924000  1
  C  C218  1  0.70760000  0.33650000  0.82932000  1
  C  C219  1  0.70800000  0.13644000  0.52598000  1
  C  C220  1  0.71180000  0.18297000  0.98572000  1
  C  C221  1  0.71750000  0.52091000  0.32195000  1
  C  C222  1  0.71820000  0.77457000  0.57803000  1
  C  C223  1  0.71850000  0.23415000  0.79039000  1
  C  C224  1  0.72130000  0.68688000  0.14253000  1
  C  C225  1  0.73220000  0.26844000  0.06260000  1
  C  C226  1  0.73280000  0.19996000  0.52956000  1
  C  C227  1  0.73550000  0.79277000  0.63227000  1
  C  C228  1  0.73630000  0.40619000  0.83842000  1
  C  C229  1  0.73770000  0.53451000  0.37236000  1
  C  C230  1  0.74600000  0.12844000  0.96314000  1
  C  C231  1  0.74760000  0.29972000  0.79557000  1
  C  C232  1  0.74860000  0.49123000  0.97644000  1
  C  C233  1  0.75020000  0.45757000  0.24265000  1
  C  C234  1  0.76020000  0.82664000  0.18849000  1
  C  C235  1  0.76370000  0.21189000  0.03524000  1
  C  C236  1  0.76840000  0.03021000  0.50995000  1
  C  C237  1  0.76840000  0.81629000  0.73413000  1
  C  C238  1  0.77210000  0.47590000  0.29691000  1
  C  C239  1  0.78680000  0.92912000  0.46613000  1
  C  C240  1  0.78840000  0.89052000  0.19229000  1
  C  C241  1  0.79830000  0.54040000  0.85180000  1
  C  C242  1  0.80080000  0.10186000  0.51897000  1
  C  C243  1  0.81030000  0.76215000  0.66031000  1
  C  C244  1  0.81370000  0.50289000  0.39987000  1
  C  C245  1  0.81590000  0.87761000  0.87528000  1
  C  C246  1  0.81970000  0.99490000  0.47573000  1
  C  C247  1  0.82250000  0.72283000  0.18030000  1
  C  C248  1  0.82700000  0.10142000  0.99090000  1
  C  C249  1  0.82890000  0.77385000  0.71103000  1
  C  C250  1  0.83410000  0.52350000  0.06376000  1
  C  C251  1  0.84700000  0.44596000  0.32448000  1
  C  C252  1  0.84880000  0.52403000  0.01559000  1
  C  C253  1  0.85030000  0.61271000  0.58694000  1
  C  C254  1  0.85460000  0.18553000  0.06091000  1
  C  C255  1  0.85530000  0.62569000  0.19860000  1
  C  C256  1  0.85650000  0.79313000  0.18638000  1
  C  C257  1  0.85790000  0.43926000  0.83573000  1
  C  C258  1  0.85860000  0.23675000  0.52886000  1
  C  C259  1  0.86760000  0.07364000  0.81041000  1
  C  C260  1  0.87480000  0.46077000  0.37660000  1
  C  C261  1  0.88720000  0.50698000  0.84250000  1
  C  C262  1  0.88900000  0.13227000  0.03955000  1
  C  C263  1  0.88940000  0.69096000  0.20930000  1
  C  C264  1  0.89630000  0.73085000  0.78426000  1
  C  C265  1  0.90260000  0.30039000  0.24970000  1
  C  C266  1  0.90360000  0.85440000  0.90164000  1
  C  C267  1  0.91310000  0.92350000  0.19615000  1
  C  C268  1  0.91410000  0.74212000  0.73945000  1
  C  C269  1  0.91530000  0.76677000  0.48060000  1
  C  C270  1  0.92370000  0.13568000  0.51713000  1
  C  C271  1  0.93260000  0.58468000  0.61472000  1
  C  C272  1  0.93600000  0.97800000  0.90686000  1
  C  C273  1  0.94820000  0.41961000  0.44996000  1
  C  C274  1  0.95420000  0.20142000  0.52209000  1
  C  C275  1  0.96350000  0.43121000  0.40391000  1
  C  C276  1  0.96510000  0.60835000  0.52490000  1
  C  C277  1  0.96630000  0.03902000  0.06692000  1
  C  C278  1  0.97510000  0.46232000  0.15513000  1
  C  C279  1  0.98170000  0.82609000  0.19031000  1
  C  C280  1  0.98310000  0.70396000  0.81053000  1
  C  C281  1  0.98320000  0.27563000  0.27913000  1
  C  C282  1  0.98570000  0.10690000  0.06749000  1
  C  C283  1  0.99140000  0.10853000  0.80546000  1
  N  N284  1  0.08690000  0.69015000  0.79353000  1
  N  N285  1  0.13580000  0.37843000  0.45737000  1
  N  N286  1  0.17070000  0.06077000  0.12251000  1
  N  N287  1  0.24140000  0.40866000  0.83745000  1
  N  N288  1  0.27870000  0.50901000  0.92756000  1
  N  N289  1  0.29260000  0.10168000  0.50704000  1
  N  N290  1  0.35360000  0.79555000  0.18336000  1
  N  N291  1  0.64640000  0.20445000  0.81664000  1
  N  N292  1  0.70740000  0.89832000  0.49296000  1
  N  N293  1  0.72130000  0.49099000  0.07244000  1
  N  N294  1  0.75860000  0.59134000  0.16255000  1
  N  N295  1  0.82930000  0.93923000  0.87749000  1
  N  N296  1  0.86420000  0.62157000  0.54263000  1
  N  N297  1  0.91310000  0.30985000  0.20647000  1
  O  O298  1  0.05280000  0.59374000  0.84857000  1
  O  O299  1  0.09910000  0.50159000  0.83881000  1
  O  O300  1  0.11900000  0.29313000  0.52340000  1
  O  O301  1  0.15670000  0.19605000  0.51300000  1
  O  O302  1  0.17240000  0.98400000  0.18778000  1
  O  O303  1  0.21110000  0.58980000  0.77234000  1
  O  O304  1  0.21470000  0.71644000  0.89247000  1
  O  O305  1  0.22040000  0.88954000  0.19564000  1
  O  O306  1  0.23810000  0.27034000  0.43774000  1
  O  O307  1  0.27830000  0.95595000  0.10262000  1
  O  O308  1  0.29580000  0.50819000  0.78273000  1
  O  O309  1  0.30080000  0.41641000  0.55306000  1
  O  O310  1  0.32050000  0.02734000  0.82042000  1
  O  O311  1  0.33660000  0.70199000  0.95866000  1
  O  O312  1  0.34120000  0.10227000  0.21667000  1
  O  O313  1  0.34270000  0.19684000  0.44784000  1
  O  O314  1  0.34760000  0.61247000  0.87619000  1
  O  O315  1  0.35740000  0.70924000  0.46712000  1
  O  O316  1  0.36720000  0.87643000  0.11689000  1
  O  O317  1  0.37220000  0.38404000  0.61892000  1
  O  O318  1  0.40040000  0.30218000  0.54000000  1
  O  O319  1  0.40660000  0.10481000  0.78748000  1
  O  O320  1  0.41090000  0.06695000  0.28305000  1
  O  O321  1  0.41950000  0.40267000  0.14091000  1
  O  O322  1  0.45490000  0.99417000  0.20396000  1
  O  O323  1  0.47040000  0.50660000  0.86861000  1
  O  O324  1  0.47570000  0.80440000  0.46622000  1
  O  O325  1  0.52430000  0.19560000  0.53378000  1
  O  O326  1  0.52960000  0.49340000  0.13139000  1
  O  O327  1  0.54510000  0.00583000  0.79604000  1
  O  O328  1  0.58050000  0.59733000  0.85909000  1
  O  O329  1  0.58910000  0.93305000  0.71695000  1
  O  O330  1  0.59340000  0.89519000  0.21252000  1
  O  O331  1  0.59960000  0.69782000  0.46000000  1
  O  O332  1  0.62780000  0.61596000  0.38108000  1
  O  O333  1  0.63280000  0.12357000  0.88311000  1
  O  O334  1  0.64260000  0.29076000  0.53288000  1
  O  O335  1  0.65240000  0.38753000  0.12381000  1
  O  O336  1  0.65730000  0.80316000  0.55216000  1
  O  O337  1  0.65880000  0.89773000  0.78333000  1
  O  O338  1  0.66340000  0.29801000  0.04134000  1
  O  O339  1  0.67950000  0.97266000  0.17958000  1
  O  O340  1  0.69920000  0.58359000  0.44694000  1
  O  O341  1  0.70420000  0.49181000  0.21727000  1
  O  O342  1  0.72170000  0.04405000  0.89738000  1
  O  O343  1  0.76190000  0.72966000  0.56226000  1
  O  O344  1  0.77960000  0.11046000  0.80436000  1
  O  O345  1  0.78530000  0.28356000  0.10753000  1
  O  O346  1  0.78890000  0.41020000  0.22766000  1
  O  O347  1  0.82760000  0.01600000  0.81222000  1
  O  O348  1  0.84330000  0.80395000  0.48700000  1
  O  O349  1  0.88100000  0.70687000  0.47660000  1
  O  O350  1  0.90090000  0.49841000  0.16119000  1
  O  O351  1  0.94720000  0.40626000  0.15143000  1
