# generated using pymatgen
data_TbP4H8Ru2(C2O7)2
_symmetry_space_group_name_H-M   'P 1'
_cell_length_a   9.58990000
_cell_length_b   9.58990000
_cell_length_c   15.52400000
_cell_angle_alpha   92.91920000
_cell_angle_beta   92.91920000
_cell_angle_gamma   98.98660000
_symmetry_Int_Tables_number   1
_chemical_formula_structural   TbP4H8Ru2(C2O7)2
_chemical_formula_sum   'Tb2 P8 H16 Ru4 C8 O28'
_cell_volume   1405.81689841
_cell_formula_units_Z   2
loop_
 _symmetry_equiv_pos_site_id
 _symmetry_equiv_pos_as_xyz
  1  'x, y, z'
loop_
 _atom_site_type_symbol
 _atom_site_label
 _atom_site_symmetry_multiplicity
 _atom_site_fract_x
 _atom_site_fract_y
 _atom_site_fract_z
 _atom_site_occupancy
  Tb  Tb0  1  0.01103000  0.98897000  0.25000000  1
  Tb  Tb1  1  0.98897000  0.01103000  0.75000000  1
  P  P2  1  0.65136000  0.97710000  0.15365000  1
  P  P3  1  0.64550000  0.95524000  0.85460000  1
  P  P4  1  0.97710000  0.65136000  0.65365000  1
  P  P5  1  0.95524000  0.64550000  0.35460000  1
  P  P6  1  0.04476000  0.35450000  0.64540000  1
  P  P7  1  0.02290000  0.34864000  0.34635000  1
  P  P8  1  0.35450000  0.04476000  0.14540000  1
  P  P9  1  0.34864000  0.02290000  0.84635000  1
  H  H10  1  0.36050000  0.86950000  0.68740000  1
  H  H11  1  0.52170000  0.84750000  0.68090000  1
  H  H12  1  0.42160000  0.83080000  0.23270000  1
  H  H13  1  0.42860000  0.77180000  0.75300000  1
  H  H14  1  0.13050000  0.63950000  0.81260000  1
  H  H15  1  0.16920000  0.57840000  0.26730000  1
  H  H16  1  0.22820000  0.57140000  0.74700000  1
  H  H17  1  0.84750000  0.52170000  0.18090000  1
  H  H18  1  0.15250000  0.47830000  0.81910000  1
  H  H19  1  0.77180000  0.42860000  0.25300000  1
  H  H20  1  0.83080000  0.42160000  0.73270000  1
  H  H21  1  0.86950000  0.36050000  0.18740000  1
  H  H22  1  0.57140000  0.22820000  0.24700000  1
  H  H23  1  0.57840000  0.16920000  0.76730000  1
  H  H24  1  0.47830000  0.15250000  0.31910000  1
  H  H25  1  0.63950000  0.13050000  0.31260000  1
  Ru  Ru26  1  0.45474000  0.87888000  0.99795000  1
  Ru  Ru27  1  0.12112000  0.54526000  0.50205000  1
  Ru  Ru28  1  0.87888000  0.45474000  0.49795000  1
  Ru  Ru29  1  0.54526000  0.12112000  0.00205000  1
  C  C30  1  0.49400000  0.98520000  0.78300000  1
  C  C31  1  0.44700000  0.85720000  0.72050000  1
  C  C32  1  0.14280000  0.55300000  0.77950000  1
  C  C33  1  0.01480000  0.50600000  0.71700000  1
  C  C34  1  0.98520000  0.49400000  0.28300000  1
  C  C35  1  0.85720000  0.44700000  0.22050000  1
  C  C36  1  0.55300000  0.14280000  0.27950000  1
  C  C37  1  0.50600000  0.01480000  0.21700000  1
  O  O38  1  0.77310000  0.95510000  0.21258000  1
  O  O39  1  0.76390000  0.92510000  0.80180000  1
  O  O40  1  0.31090000  0.90750000  0.08600000  1
  O  O41  1  0.45180000  0.90120000  0.26756000  1
  O  O42  1  0.30870000  0.89450000  0.90110000  1
  O  O43  1  0.59450000  0.84410000  0.09330000  1
  O  O44  1  0.59130000  0.83230000  0.91026000  1
  O  O45  1  0.95510000  0.77310000  0.71258000  1
  O  O46  1  0.92510000  0.76390000  0.30180000  1
  O  O47  1  0.10550000  0.69130000  0.59890000  1
  O  O48  1  0.09250000  0.68910000  0.41400000  1
  O  O49  1  0.84410000  0.59450000  0.59330000  1
  O  O50  1  0.83230000  0.59130000  0.41026000  1
  O  O51  1  0.09880000  0.54820000  0.23244000  1
  O  O52  1  0.90120000  0.45180000  0.76756000  1
  O  O53  1  0.16770000  0.40870000  0.58974000  1
  O  O54  1  0.15590000  0.40550000  0.40670000  1
  O  O55  1  0.90750000  0.31090000  0.58600000  1
  O  O56  1  0.89450000  0.30870000  0.40110000  1
  O  O57  1  0.07490000  0.23610000  0.69820000  1
  O  O58  1  0.04490000  0.22690000  0.28742000  1
  O  O59  1  0.40870000  0.16770000  0.08974000  1
  O  O60  1  0.40550000  0.15590000  0.90670000  1
  O  O61  1  0.69130000  0.10550000  0.09890000  1
  O  O62  1  0.54820000  0.09880000  0.73244000  1
  O  O63  1  0.68910000  0.09250000  0.91400000  1
  O  O64  1  0.23610000  0.07490000  0.19820000  1
  O  O65  1  0.22690000  0.04490000  0.78742000  1
