# generated using pymatgen
data_CuH14(C11O2)2
_symmetry_space_group_name_H-M   'P 1'
_cell_length_a   33.32610000
_cell_length_b   33.32610000
_cell_length_c   33.32610000
_cell_angle_alpha   90.00000000
_cell_angle_beta   90.00000000
_cell_angle_gamma   90.00000000
_symmetry_Int_Tables_number   1
_chemical_formula_structural   CuH14(C11O2)2
_chemical_formula_sum   'Cu24 H336 C528 O96'
_cell_volume   37012.93115766
_cell_formula_units_Z   24
loop_
 _symmetry_equiv_pos_site_id
 _symmetry_equiv_pos_as_xyz
  1  'x, y, z'
loop_
 _atom_site_type_symbol
 _atom_site_label
 _atom_site_symmetry_multiplicity
 _atom_site_fract_x
 _atom_site_fract_y
 _atom_site_fract_z
 _atom_site_occupancy
  Cu  Cu0  1  0.04002000  0.25000000  0.75000000  1
  Cu  Cu1  1  0.04002000  0.75000000  0.25000000  1
  Cu  Cu2  1  0.25000000  0.04002000  0.75000000  1
  Cu  Cu3  1  0.25000000  0.45998000  0.75000000  1
  Cu  Cu4  1  0.25000000  0.54002000  0.75000000  1
  Cu  Cu5  1  0.25000000  0.75000000  0.04002000  1
  Cu  Cu6  1  0.25000000  0.75000000  0.45998000  1
  Cu  Cu7  1  0.25000000  0.75000000  0.54002000  1
  Cu  Cu8  1  0.25000000  0.75000000  0.95998000  1
  Cu  Cu9  1  0.25000000  0.95998000  0.75000000  1
  Cu  Cu10  1  0.45998000  0.25000000  0.75000000  1
  Cu  Cu11  1  0.45998000  0.75000000  0.25000000  1
  Cu  Cu12  1  0.54002000  0.25000000  0.75000000  1
  Cu  Cu13  1  0.54002000  0.75000000  0.25000000  1
  Cu  Cu14  1  0.75000000  0.04002000  0.25000000  1
  Cu  Cu15  1  0.75000000  0.25000000  0.04002000  1
  Cu  Cu16  1  0.75000000  0.25000000  0.45998000  1
  Cu  Cu17  1  0.75000000  0.25000000  0.54002000  1
  Cu  Cu18  1  0.75000000  0.25000000  0.95998000  1
  Cu  Cu19  1  0.75000000  0.45998000  0.25000000  1
  Cu  Cu20  1  0.75000000  0.54002000  0.25000000  1
  Cu  Cu21  1  0.75000000  0.95998000  0.25000000  1
  Cu  Cu22  1  0.95998000  0.25000000  0.75000000  1
  Cu  Cu23  1  0.95998000  0.75000000  0.25000000  1
  H  H24  1  0.01790000  0.53720000  0.91910000  1
  H  H25  1  0.01790000  0.58090000  0.53720000  1
  H  H26  1  0.01790000  0.91910000  0.96280000  1
  H  H27  1  0.01790000  0.96280000  0.58090000  1
  H  H28  1  0.03080000  0.03230000  0.90480000  1
  H  H29  1  0.03080000  0.46770000  0.59520000  1
  H  H30  1  0.03080000  0.59520000  0.03230000  1
  H  H31  1  0.03080000  0.90480000  0.46770000  1
  H  H32  1  0.03210000  0.14170000  0.67610000  1
  H  H33  1  0.03210000  0.35830000  0.82390000  1
  H  H34  1  0.03210000  0.67610000  0.35830000  1
  H  H35  1  0.03210000  0.82390000  0.14170000  1
  H  H36  1  0.03230000  0.03080000  0.59520000  1
  H  H37  1  0.03230000  0.46920000  0.90480000  1
  H  H38  1  0.03230000  0.59520000  0.46920000  1
  H  H39  1  0.03230000  0.90480000  0.03080000  1
  H  H40  1  0.03720000  0.08090000  0.51790000  1
  H  H41  1  0.03720000  0.41910000  0.98210000  1
  H  H42  1  0.03720000  0.51790000  0.41910000  1
  H  H43  1  0.03720000  0.98210000  0.08090000  1
  H  H44  1  0.03740000  0.08610000  0.63720000  1
  H  H45  1  0.03740000  0.41390000  0.86280000  1
  H  H46  1  0.03740000  0.63720000  0.41390000  1
  H  H47  1  0.03740000  0.86280000  0.08610000  1
  H  H48  1  0.03950000  0.58790000  0.59830000  1
  H  H49  1  0.03950000  0.59830000  0.91210000  1
  H  H50  1  0.03950000  0.90170000  0.58790000  1
  H  H51  1  0.03950000  0.91210000  0.90170000  1
  H  H52  1  0.04740000  0.17530000  0.85720000  1
  H  H53  1  0.04740000  0.32470000  0.64280000  1
  H  H54  1  0.04740000  0.64280000  0.17530000  1
  H  H55  1  0.04740000  0.85720000  0.32470000  1
  H  H56  1  0.08090000  0.03720000  0.98210000  1
  H  H57  1  0.08090000  0.46280000  0.51790000  1
  H  H58  1  0.08090000  0.51790000  0.03720000  1
  H  H59  1  0.08090000  0.98210000  0.46280000  1
  H  H60  1  0.08290000  0.14040000  0.90530000  1
  H  H61  1  0.08290000  0.35960000  0.59470000  1
  H  H62  1  0.08290000  0.59470000  0.14040000  1
  H  H63  1  0.08290000  0.90530000  0.35960000  1
  H  H64  1  0.08610000  0.03740000  0.86280000  1
  H  H65  1  0.08610000  0.46260000  0.63720000  1
  H  H66  1  0.08610000  0.63720000  0.03740000  1
  H  H67  1  0.08610000  0.86280000  0.46260000  1
  H  H68  1  0.08790000  0.09830000  0.96050000  1
  H  H69  1  0.08790000  0.40170000  0.53950000  1
  H  H70  1  0.08790000  0.53950000  0.09830000  1
  H  H71  1  0.08790000  0.96050000  0.40170000  1
  H  H72  1  0.09470000  0.58290000  0.64040000  1
  H  H73  1  0.09470000  0.64040000  0.91710000  1
  H  H74  1  0.09470000  0.85960000  0.58290000  1
  H  H75  1  0.09470000  0.91710000  0.85960000  1
  H  H76  1  0.09520000  0.53080000  0.53230000  1
  H  H77  1  0.09520000  0.53230000  0.96920000  1
  H  H78  1  0.09520000  0.96770000  0.53080000  1
  H  H79  1  0.09520000  0.96920000  0.96770000  1
  H  H80  1  0.09830000  0.08790000  0.53950000  1
  H  H81  1  0.09830000  0.41210000  0.96050000  1
  H  H82  1  0.09830000  0.53950000  0.41210000  1
  H  H83  1  0.09830000  0.96050000  0.08790000  1
  H  H84  1  0.13720000  0.53740000  0.91390000  1
  H  H85  1  0.13720000  0.58610000  0.53740000  1
  H  H86  1  0.13720000  0.91390000  0.96260000  1
  H  H87  1  0.13720000  0.96260000  0.58610000  1
  H  H88  1  0.14040000  0.08290000  0.59470000  1
  H  H89  1  0.14040000  0.41710000  0.90530000  1
  H  H90  1  0.14040000  0.59470000  0.41710000  1
  H  H91  1  0.14040000  0.90530000  0.08290000  1
  H  H92  1  0.14170000  0.03210000  0.82390000  1
  H  H93  1  0.14170000  0.46790000  0.67610000  1
  H  H94  1  0.14170000  0.67610000  0.03210000  1
  H  H95  1  0.14170000  0.82390000  0.46790000  1
  H  H96  1  0.14280000  0.54740000  0.67530000  1
  H  H97  1  0.14280000  0.67530000  0.95260000  1
  H  H98  1  0.14280000  0.82470000  0.54740000  1
  H  H99  1  0.14280000  0.95260000  0.82470000  1
  H  H100  1  0.17530000  0.04740000  0.64280000  1
  H  H101  1  0.17530000  0.45260000  0.85720000  1
  H  H102  1  0.17530000  0.64280000  0.45260000  1
  H  H103  1  0.17530000  0.85720000  0.04740000  1
  H  H104  1  0.17610000  0.53210000  0.85830000  1
  H  H105  1  0.17610000  0.64170000  0.53210000  1
  H  H106  1  0.17610000  0.85830000  0.96790000  1
  H  H107  1  0.17610000  0.96790000  0.64170000  1
  H  H108  1  0.32390000  0.53210000  0.64170000  1
  H  H109  1  0.32390000  0.64170000  0.96790000  1
  H  H110  1  0.32390000  0.85830000  0.53210000  1
  H  H111  1  0.32390000  0.96790000  0.85830000  1
  H  H112  1  0.32470000  0.04740000  0.85720000  1
  H  H113  1  0.32470000  0.45260000  0.64280000  1
  H  H114  1  0.32470000  0.64280000  0.04740000  1
  H  H115  1  0.32470000  0.85720000  0.45260000  1
  H  H116  1  0.35720000  0.54740000  0.82470000  1
  H  H117  1  0.35720000  0.67530000  0.54740000  1
  H  H118  1  0.35720000  0.82470000  0.95260000  1
  H  H119  1  0.35720000  0.95260000  0.67530000  1
  H  H120  1  0.35830000  0.03210000  0.67610000  1
  H  H121  1  0.35830000  0.46790000  0.82390000  1
  H  H122  1  0.35830000  0.67610000  0.46790000  1
  H  H123  1  0.35830000  0.82390000  0.03210000  1
  H  H124  1  0.35960000  0.08290000  0.90530000  1
  H  H125  1  0.35960000  0.41710000  0.59470000  1
  H  H126  1  0.35960000  0.59470000  0.08290000  1
  H  H127  1  0.35960000  0.90530000  0.41710000  1
  H  H128  1  0.36280000  0.53740000  0.58610000  1
  H  H129  1  0.36280000  0.58610000  0.96260000  1
  H  H130  1  0.36280000  0.91390000  0.53740000  1
  H  H131  1  0.36280000  0.96260000  0.91390000  1
  H  H132  1  0.40170000  0.08790000  0.96050000  1
  H  H133  1  0.40170000  0.41210000  0.53950000  1
  H  H134  1  0.40170000  0.53950000  0.08790000  1
  H  H135  1  0.40170000  0.96050000  0.41210000  1
  H  H136  1  0.40480000  0.53080000  0.96770000  1
  H  H137  1  0.40480000  0.53230000  0.53080000  1
  H  H138  1  0.40480000  0.96770000  0.96920000  1
  H  H139  1  0.40480000  0.96920000  0.53230000  1
  H  H140  1  0.40530000  0.58290000  0.85960000  1
  H  H141  1  0.40530000  0.64040000  0.58290000  1
  H  H142  1  0.40530000  0.85960000  0.91710000  1
  H  H143  1  0.40530000  0.91710000  0.64040000  1
  H  H144  1  0.41210000  0.09830000  0.53950000  1
  H  H145  1  0.41210000  0.40170000  0.96050000  1
  H  H146  1  0.41210000  0.53950000  0.40170000  1
  H  H147  1  0.41210000  0.96050000  0.09830000  1
  H  H148  1  0.41390000  0.03740000  0.63720000  1
  H  H149  1  0.41390000  0.46260000  0.86280000  1
  H  H150  1  0.41390000  0.63720000  0.46260000  1
  H  H151  1  0.41390000  0.86280000  0.03740000  1
  H  H152  1  0.41710000  0.14040000  0.59470000  1
  H  H153  1  0.41710000  0.35960000  0.90530000  1
  H  H154  1  0.41710000  0.59470000  0.35960000  1
  H  H155  1  0.41710000  0.90530000  0.14040000  1
  H  H156  1  0.41910000  0.03720000  0.51790000  1
  H  H157  1  0.41910000  0.46280000  0.98210000  1
  H  H158  1  0.41910000  0.51790000  0.46280000  1
  H  H159  1  0.41910000  0.98210000  0.03720000  1
  H  H160  1  0.45260000  0.17530000  0.64280000  1
  H  H161  1  0.45260000  0.32470000  0.85720000  1
  H  H162  1  0.45260000  0.64280000  0.32470000  1
  H  H163  1  0.45260000  0.85720000  0.17530000  1
  H  H164  1  0.46050000  0.58790000  0.90170000  1
  H  H165  1  0.46050000  0.59830000  0.58790000  1
  H  H166  1  0.46050000  0.90170000  0.91210000  1
  H  H167  1  0.46050000  0.91210000  0.59830000  1
  H  H168  1  0.46260000  0.08610000  0.86280000  1
  H  H169  1  0.46260000  0.41390000  0.63720000  1
  H  H170  1  0.46260000  0.63720000  0.08610000  1
  H  H171  1  0.46260000  0.86280000  0.41390000  1
  H  H172  1  0.46280000  0.08090000  0.98210000  1
  H  H173  1  0.46280000  0.41910000  0.51790000  1
  H  H174  1  0.46280000  0.51790000  0.08090000  1
  H  H175  1  0.46280000  0.98210000  0.41910000  1
  H  H176  1  0.46770000  0.03080000  0.90480000  1
  H  H177  1  0.46770000  0.46920000  0.59520000  1
  H  H178  1  0.46770000  0.59520000  0.03080000  1
  H  H179  1  0.46770000  0.90480000  0.46920000  1
  H  H180  1  0.46790000  0.14170000  0.82390000  1
  H  H181  1  0.46790000  0.35830000  0.67610000  1
  H  H182  1  0.46790000  0.67610000  0.14170000  1
  H  H183  1  0.46790000  0.82390000  0.35830000  1
  H  H184  1  0.46920000  0.03230000  0.59520000  1
  H  H185  1  0.46920000  0.46770000  0.90480000  1
  H  H186  1  0.46920000  0.59520000  0.46770000  1
  H  H187  1  0.46920000  0.90480000  0.03230000  1
  H  H188  1  0.48210000  0.53720000  0.58090000  1
  H  H189  1  0.48210000  0.58090000  0.96280000  1
  H  H190  1  0.48210000  0.91910000  0.53720000  1
  H  H191  1  0.48210000  0.96280000  0.91910000  1
  H  H192  1  0.51790000  0.03720000  0.08090000  1
  H  H193  1  0.51790000  0.08090000  0.46280000  1
  H  H194  1  0.51790000  0.41910000  0.03720000  1
  H  H195  1  0.51790000  0.46280000  0.41910000  1
  H  H196  1  0.53080000  0.09520000  0.96770000  1
  H  H197  1  0.53080000  0.40480000  0.53230000  1
  H  H198  1  0.53080000  0.53230000  0.09520000  1
  H  H199  1  0.53080000  0.96770000  0.40480000  1
  H  H200  1  0.53210000  0.17610000  0.64170000  1
  H  H201  1  0.53210000  0.32390000  0.85830000  1
  H  H202  1  0.53210000  0.64170000  0.32390000  1
  H  H203  1  0.53210000  0.85830000  0.17610000  1
  H  H204  1  0.53230000  0.09520000  0.53080000  1
  H  H205  1  0.53230000  0.40480000  0.96920000  1
  H  H206  1  0.53230000  0.53080000  0.40480000  1
  H  H207  1  0.53230000  0.96920000  0.09520000  1
  H  H208  1  0.53720000  0.01790000  0.58090000  1
  H  H209  1  0.53720000  0.48210000  0.91910000  1
  H  H210  1  0.53720000  0.58090000  0.48210000  1
  H  H211  1  0.53720000  0.91910000  0.01790000  1
  H  H212  1  0.53740000  0.13720000  0.58610000  1
  H  H213  1  0.53740000  0.36280000  0.91390000  1
  H  H214  1  0.53740000  0.58610000  0.36280000  1
  H  H215  1  0.53740000  0.91390000  0.13720000  1
  H  H216  1  0.53950000  0.08790000  0.40170000  1
  H  H217  1  0.53950000  0.09830000  0.08790000  1
  H  H218  1  0.53950000  0.40170000  0.41210000  1
  H  H219  1  0.53950000  0.41210000  0.09830000  1
  H  H220  1  0.54740000  0.14280000  0.82470000  1
  H  H221  1  0.54740000  0.35720000  0.67530000  1
  H  H222  1  0.54740000  0.67530000  0.14280000  1
  H  H223  1  0.54740000  0.82470000  0.35720000  1
  H  H224  1  0.58090000  0.01790000  0.96280000  1
  H  H225  1  0.58090000  0.48210000  0.53720000  1
  H  H226  1  0.58090000  0.53720000  0.01790000  1
  H  H227  1  0.58090000  0.96280000  0.48210000  1
  H  H228  1  0.58290000  0.09470000  0.85960000  1
  H  H229  1  0.58290000  0.40530000  0.64040000  1
  H  H230  1  0.58290000  0.64040000  0.09470000  1
  H  H231  1  0.58290000  0.85960000  0.40530000  1
  H  H232  1  0.58610000  0.13720000  0.96260000  1
  H  H233  1  0.58610000  0.36280000  0.53740000  1
  H  H234  1  0.58610000  0.53740000  0.13720000  1
  H  H235  1  0.58610000  0.96260000  0.36280000  1
  H  H236  1  0.58790000  0.03950000  0.90170000  1
  H  H237  1  0.58790000  0.46050000  0.59830000  1
  H  H238  1  0.58790000  0.59830000  0.03950000  1
  H  H239  1  0.58790000  0.90170000  0.46050000  1
  H  H240  1  0.59470000  0.08290000  0.35960000  1
  H  H241  1  0.59470000  0.14040000  0.08290000  1
  H  H242  1  0.59470000  0.35960000  0.41710000  1
  H  H243  1  0.59470000  0.41710000  0.14040000  1
  H  H244  1  0.59520000  0.03080000  0.46770000  1
  H  H245  1  0.59520000  0.03230000  0.03080000  1
  H  H246  1  0.59520000  0.46770000  0.46920000  1
  H  H247  1  0.59520000  0.46920000  0.03230000  1
  H  H248  1  0.59830000  0.03950000  0.58790000  1
  H  H249  1  0.59830000  0.46050000  0.91210000  1
  H  H250  1  0.59830000  0.58790000  0.46050000  1
  H  H251  1  0.59830000  0.91210000  0.03950000  1
  H  H252  1  0.63720000  0.03740000  0.08610000  1
  H  H253  1  0.63720000  0.08610000  0.46260000  1
  H  H254  1  0.63720000  0.41390000  0.03740000  1
  H  H255  1  0.63720000  0.46260000  0.41390000  1
  H  H256  1  0.64040000  0.09470000  0.58290000  1
  H  H257  1  0.64040000  0.40530000  0.91710000  1
  H  H258  1  0.64040000  0.58290000  0.40530000  1
  H  H259  1  0.64040000  0.91710000  0.09470000  1
  H  H260  1  0.64170000  0.17610000  0.96790000  1
  H  H261  1  0.64170000  0.32390000  0.53210000  1
  H  H262  1  0.64170000  0.53210000  0.17610000  1
  H  H263  1  0.64170000  0.96790000  0.32390000  1
  H  H264  1  0.64280000  0.04740000  0.32470000  1
  H  H265  1  0.64280000  0.17530000  0.04740000  1
  H  H266  1  0.64280000  0.32470000  0.45260000  1
  H  H267  1  0.64280000  0.45260000  0.17530000  1
  H  H268  1  0.67530000  0.14280000  0.54740000  1
  H  H269  1  0.67530000  0.35720000  0.95260000  1
  H  H270  1  0.67530000  0.54740000  0.35720000  1
  H  H271  1  0.67530000  0.95260000  0.14280000  1
  H  H272  1  0.67610000  0.03210000  0.14170000  1
  H  H273  1  0.67610000  0.14170000  0.46790000  1
  H  H274  1  0.67610000  0.35830000  0.03210000  1
  H  H275  1  0.67610000  0.46790000  0.35830000  1
  H  H276  1  0.82390000  0.03210000  0.35830000  1
  H  H277  1  0.82390000  0.14170000  0.03210000  1
  H  H278  1  0.82390000  0.35830000  0.46790000  1
  H  H279  1  0.82390000  0.46790000  0.14170000  1
  H  H280  1  0.82470000  0.14280000  0.95260000  1
  H  H281  1  0.82470000  0.35720000  0.54740000  1
  H  H282  1  0.82470000  0.54740000  0.14280000  1
  H  H283  1  0.82470000  0.95260000  0.35720000  1
  H  H284  1  0.85720000  0.04740000  0.17530000  1
  H  H285  1  0.85720000  0.17530000  0.45260000  1
  H  H286  1  0.85720000  0.32470000  0.04740000  1
  H  H287  1  0.85720000  0.45260000  0.32470000  1
  H  H288  1  0.85830000  0.17610000  0.53210000  1
  H  H289  1  0.85830000  0.32390000  0.96790000  1
  H  H290  1  0.85830000  0.53210000  0.32390000  1
  H  H291  1  0.85830000  0.96790000  0.17610000  1
  H  H292  1  0.85960000  0.09470000  0.91710000  1
  H  H293  1  0.85960000  0.40530000  0.58290000  1
  H  H294  1  0.85960000  0.58290000  0.09470000  1
  H  H295  1  0.85960000  0.91710000  0.40530000  1
  H  H296  1  0.86280000  0.03740000  0.41390000  1
  H  H297  1  0.86280000  0.08610000  0.03740000  1
  H  H298  1  0.86280000  0.41390000  0.46260000  1
  H  H299  1  0.86280000  0.46260000  0.08610000  1
  H  H300  1  0.90170000  0.03950000  0.91210000  1
  H  H301  1  0.90170000  0.46050000  0.58790000  1
  H  H302  1  0.90170000  0.58790000  0.03950000  1
  H  H303  1  0.90170000  0.91210000  0.46050000  1
  H  H304  1  0.90480000  0.03080000  0.03230000  1
  H  H305  1  0.90480000  0.03230000  0.46920000  1
  H  H306  1  0.90480000  0.46770000  0.03080000  1
  H  H307  1  0.90480000  0.46920000  0.46770000  1
  H  H308  1  0.90530000  0.08290000  0.14040000  1
  H  H309  1  0.90530000  0.14040000  0.41710000  1
  H  H310  1  0.90530000  0.35960000  0.08290000  1
  H  H311  1  0.90530000  0.41710000  0.35960000  1
  H  H312  1  0.91210000  0.03950000  0.59830000  1
  H  H313  1  0.91210000  0.46050000  0.90170000  1
  H  H314  1  0.91210000  0.59830000  0.46050000  1
  H  H315  1  0.91210000  0.90170000  0.03950000  1
  H  H316  1  0.91390000  0.13720000  0.53740000  1
  H  H317  1  0.91390000  0.36280000  0.96260000  1
  H  H318  1  0.91390000  0.53740000  0.36280000  1
  H  H319  1  0.91390000  0.96260000  0.13720000  1
  H  H320  1  0.91710000  0.09470000  0.64040000  1
  H  H321  1  0.91710000  0.40530000  0.85960000  1
  H  H322  1  0.91710000  0.64040000  0.40530000  1
  H  H323  1  0.91710000  0.85960000  0.09470000  1
  H  H324  1  0.91910000  0.01790000  0.53720000  1
  H  H325  1  0.91910000  0.48210000  0.96280000  1
  H  H326  1  0.91910000  0.53720000  0.48210000  1
  H  H327  1  0.91910000  0.96280000  0.01790000  1
  H  H328  1  0.95260000  0.14280000  0.67530000  1
  H  H329  1  0.95260000  0.35720000  0.82470000  1
  H  H330  1  0.95260000  0.67530000  0.35720000  1
  H  H331  1  0.95260000  0.82470000  0.14280000  1
  H  H332  1  0.96050000  0.08790000  0.09830000  1
  H  H333  1  0.96050000  0.09830000  0.41210000  1
  H  H334  1  0.96050000  0.40170000  0.08790000  1
  H  H335  1  0.96050000  0.41210000  0.40170000  1
  H  H336  1  0.96260000  0.13720000  0.91390000  1
  H  H337  1  0.96260000  0.36280000  0.58610000  1
  H  H338  1  0.96260000  0.58610000  0.13720000  1
  H  H339  1  0.96260000  0.91390000  0.36280000  1
  H  H340  1  0.96280000  0.01790000  0.91910000  1
  H  H341  1  0.96280000  0.48210000  0.58090000  1
  H  H342  1  0.96280000  0.58090000  0.01790000  1
  H  H343  1  0.96280000  0.91910000  0.48210000  1
  H  H344  1  0.96770000  0.09520000  0.96920000  1
  H  H345  1  0.96770000  0.40480000  0.53080000  1
  H  H346  1  0.96770000  0.53080000  0.09520000  1
  H  H347  1  0.96770000  0.96920000  0.40480000  1
  H  H348  1  0.96790000  0.17610000  0.85830000  1
  H  H349  1  0.96790000  0.32390000  0.64170000  1
  H  H350  1  0.96790000  0.64170000  0.17610000  1
  H  H351  1  0.96790000  0.85830000  0.32390000  1
  H  H352  1  0.96920000  0.09520000  0.53230000  1
  H  H353  1  0.96920000  0.40480000  0.96770000  1
  H  H354  1  0.96920000  0.53230000  0.40480000  1
  H  H355  1  0.96920000  0.96770000  0.09520000  1
  H  H356  1  0.98210000  0.03720000  0.41910000  1
  H  H357  1  0.98210000  0.08090000  0.03720000  1
  H  H358  1  0.98210000  0.41910000  0.46280000  1
  H  H359  1  0.98210000  0.46280000  0.08090000  1
  C  C360  1  0.00188000  0.03510000  0.43861000  1
  C  C361  1  0.00188000  0.06139000  0.03510000  1
  C  C362  1  0.00188000  0.43861000  0.46490000  1
  C  C363  1  0.00188000  0.46490000  0.06139000  1
  C  C364  1  0.00390000  0.19010000  0.70900000  1
  C  C365  1  0.00390000  0.30990000  0.79100000  1
  C  C366  1  0.00390000  0.70900000  0.30990000  1
  C  C367  1  0.00390000  0.79100000  0.19010000  1
  C  C368  1  0.00430000  0.03000000  0.06264000  1
  C  C369  1  0.00430000  0.06264000  0.47000000  1
  C  C370  1  0.00430000  0.43736000  0.03000000  1
  C  C371  1  0.00430000  0.47000000  0.43736000  1
  C  C372  1  0.00660000  0.15134000  0.68220000  1
  C  C373  1  0.00660000  0.34866000  0.81780000  1
  C  C374  1  0.00660000  0.68220000  0.34866000  1
  C  C375  1  0.00660000  0.81780000  0.15134000  1
  C  C376  1  0.00921000  0.04363000  0.60423000  1
  C  C377  1  0.00921000  0.45637000  0.89577000  1
  C  C378  1  0.00921000  0.60423000  0.45637000  1
  C  C379  1  0.00921000  0.89577000  0.04363000  1
  C  C380  1  0.01225000  0.07670000  0.62943000  1
  C  C381  1  0.01225000  0.42330000  0.87057000  1
  C  C382  1  0.01225000  0.62943000  0.42330000  1
  C  C383  1  0.01225000  0.87057000  0.07670000  1
  C  C384  1  0.02220000  0.14298000  0.90415000  1
  C  C385  1  0.02220000  0.16870000  0.86730000  1
  C  C386  1  0.02220000  0.33130000  0.63270000  1
  C  C387  1  0.02220000  0.35702000  0.59585000  1
  C  C388  1  0.02220000  0.59585000  0.14298000  1
  C  C389  1  0.02220000  0.63270000  0.16870000  1
  C  C390  1  0.02220000  0.86730000  0.33130000  1
  C  C391  1  0.02220000  0.90415000  0.35702000  1
  C  C392  1  0.02830000  0.09258000  0.97034000  1
  C  C393  1  0.02830000  0.40742000  0.52966000  1
  C  C394  1  0.02830000  0.52966000  0.09258000  1
  C  C395  1  0.02830000  0.97034000  0.40742000  1
  C  C396  1  0.02966000  0.52830000  0.59258000  1
  C  C397  1  0.02966000  0.59258000  0.97170000  1
  C  C398  1  0.02966000  0.90742000  0.52830000  1
  C  C399  1  0.02966000  0.97170000  0.90742000  1
  C  C400  1  0.03000000  0.00430000  0.43736000  1
  C  C401  1  0.03000000  0.06264000  0.00430000  1
  C  C402  1  0.03000000  0.43736000  0.49570000  1
  C  C403  1  0.03000000  0.49570000  0.06264000  1
  C  C404  1  0.03510000  0.00188000  0.06139000  1
  C  C405  1  0.03510000  0.06139000  0.49812000  1
  C  C406  1  0.03510000  0.43861000  0.00188000  1
  C  C407  1  0.03510000  0.49812000  0.43861000  1
  C  C408  1  0.04363000  0.00921000  0.89577000  1
  C  C409  1  0.04363000  0.49079000  0.60423000  1
  C  C410  1  0.04363000  0.60423000  0.00921000  1
  C  C411  1  0.04363000  0.89577000  0.49079000  1
  C  C412  1  0.04880000  0.56282000  0.60613000  1
  C  C413  1  0.04880000  0.60613000  0.93718000  1
  C  C414  1  0.04880000  0.89387000  0.56282000  1
  C  C415  1  0.04880000  0.93718000  0.89387000  1
  C  C416  1  0.05978000  0.13133000  0.91811000  1
  C  C417  1  0.05978000  0.36867000  0.58189000  1
  C  C418  1  0.05978000  0.58189000  0.13133000  1
  C  C419  1  0.05978000  0.91811000  0.36867000  1
  C  C420  1  0.06139000  0.00188000  0.46490000  1
  C  C421  1  0.06139000  0.03510000  0.00188000  1
  C  C422  1  0.06139000  0.46490000  0.49812000  1
  C  C423  1  0.06139000  0.49812000  0.03510000  1
  C  C424  1  0.06264000  0.00430000  0.03000000  1
  C  C425  1  0.06264000  0.03000000  0.49570000  1
  C  C426  1  0.06264000  0.47000000  0.00430000  1
  C  C427  1  0.06264000  0.49570000  0.47000000  1
  C  C428  1  0.06282000  0.10613000  0.95120000  1
  C  C429  1  0.06282000  0.39387000  0.54880000  1
  C  C430  1  0.06282000  0.54880000  0.10613000  1
  C  C431  1  0.06282000  0.95120000  0.39387000  1
  C  C432  1  0.07670000  0.01225000  0.87057000  1
  C  C433  1  0.07670000  0.48775000  0.62943000  1
  C  C434  1  0.07670000  0.62943000  0.01225000  1
  C  C435  1  0.07670000  0.87057000  0.48775000  1
  C  C436  1  0.08189000  0.55978000  0.63133000  1
  C  C437  1  0.08189000  0.63133000  0.94022000  1
  C  C438  1  0.08189000  0.86867000  0.55978000  1
  C  C439  1  0.08189000  0.94022000  0.86867000  1
  C  C440  1  0.09258000  0.02830000  0.52966000  1
  C  C441  1  0.09258000  0.47170000  0.97034000  1
  C  C442  1  0.09258000  0.52966000  0.47170000  1
  C  C443  1  0.09258000  0.97034000  0.02830000  1
  C  C444  1  0.09585000  0.52220000  0.64298000  1
  C  C445  1  0.09585000  0.64298000  0.97780000  1
  C  C446  1  0.09585000  0.85702000  0.52220000  1
  C  C447  1  0.09585000  0.97780000  0.85702000  1
  C  C448  1  0.10423000  0.50921000  0.95637000  1
  C  C449  1  0.10423000  0.54363000  0.50921000  1
  C  C450  1  0.10423000  0.95637000  0.99079000  1
  C  C451  1  0.10423000  0.99079000  0.54363000  1
  C  C452  1  0.10613000  0.06282000  0.54880000  1
  C  C453  1  0.10613000  0.43718000  0.95120000  1
  C  C454  1  0.10613000  0.54880000  0.43718000  1
  C  C455  1  0.10613000  0.95120000  0.06282000  1
  C  C456  1  0.12943000  0.51225000  0.92330000  1
  C  C457  1  0.12943000  0.57670000  0.51225000  1
  C  C458  1  0.12943000  0.92330000  0.98775000  1
  C  C459  1  0.12943000  0.98775000  0.57670000  1
  C  C460  1  0.13133000  0.05978000  0.58189000  1
  C  C461  1  0.13133000  0.44022000  0.91811000  1
  C  C462  1  0.13133000  0.58189000  0.44022000  1
  C  C463  1  0.13133000  0.91811000  0.05978000  1
  C  C464  1  0.13270000  0.52220000  0.66870000  1
  C  C465  1  0.13270000  0.66870000  0.97780000  1
  C  C466  1  0.13270000  0.83130000  0.52220000  1
  C  C467  1  0.13270000  0.97780000  0.83130000  1
  C  C468  1  0.14298000  0.02220000  0.59585000  1
  C  C469  1  0.14298000  0.47780000  0.90415000  1
  C  C470  1  0.14298000  0.59585000  0.47780000  1
  C  C471  1  0.14298000  0.90415000  0.02220000  1
  C  C472  1  0.15134000  0.00660000  0.81780000  1
  C  C473  1  0.15134000  0.49340000  0.68220000  1
  C  C474  1  0.15134000  0.68220000  0.00660000  1
  C  C475  1  0.15134000  0.81780000  0.49340000  1
  C  C476  1  0.16870000  0.02220000  0.63270000  1
  C  C477  1  0.16870000  0.47780000  0.86730000  1
  C  C478  1  0.16870000  0.63270000  0.47780000  1
  C  C479  1  0.16870000  0.86730000  0.02220000  1
  C  C480  1  0.18220000  0.50660000  0.84866000  1
  C  C481  1  0.18220000  0.65134000  0.50660000  1
  C  C482  1  0.18220000  0.84866000  0.99340000  1
  C  C483  1  0.18220000  0.99340000  0.65134000  1
  C  C484  1  0.19010000  0.00390000  0.79100000  1
  C  C485  1  0.19010000  0.49610000  0.70900000  1
  C  C486  1  0.19010000  0.70900000  0.00390000  1
  C  C487  1  0.19010000  0.79100000  0.49610000  1
  C  C488  1  0.20900000  0.50390000  0.80990000  1
  C  C489  1  0.20900000  0.69010000  0.50390000  1
  C  C490  1  0.20900000  0.80990000  0.99610000  1
  C  C491  1  0.20900000  0.99610000  0.69010000  1
  C  C492  1  0.29100000  0.50390000  0.69010000  1
  C  C493  1  0.29100000  0.69010000  0.99610000  1
  C  C494  1  0.29100000  0.80990000  0.50390000  1
  C  C495  1  0.29100000  0.99610000  0.80990000  1
  C  C496  1  0.30990000  0.00390000  0.70900000  1
  C  C497  1  0.30990000  0.49610000  0.79100000  1
  C  C498  1  0.30990000  0.70900000  0.49610000  1
  C  C499  1  0.30990000  0.79100000  0.00390000  1
  C  C500  1  0.31780000  0.50660000  0.65134000  1
  C  C501  1  0.31780000  0.65134000  0.99340000  1
  C  C502  1  0.31780000  0.84866000  0.50660000  1
  C  C503  1  0.31780000  0.99340000  0.84866000  1
  C  C504  1  0.33130000  0.02220000  0.86730000  1
  C  C505  1  0.33130000  0.47780000  0.63270000  1
  C  C506  1  0.33130000  0.63270000  0.02220000  1
  C  C507  1  0.33130000  0.86730000  0.47780000  1
  C  C508  1  0.34866000  0.00660000  0.68220000  1
  C  C509  1  0.34866000  0.49340000  0.81780000  1
  C  C510  1  0.34866000  0.68220000  0.49340000  1
  C  C511  1  0.34866000  0.81780000  0.00660000  1
  C  C512  1  0.35702000  0.02220000  0.90415000  1
  C  C513  1  0.35702000  0.47780000  0.59585000  1
  C  C514  1  0.35702000  0.59585000  0.02220000  1
  C  C515  1  0.35702000  0.90415000  0.47780000  1
  C  C516  1  0.36730000  0.52220000  0.83130000  1
  C  C517  1  0.36730000  0.66870000  0.52220000  1
  C  C518  1  0.36730000  0.83130000  0.97780000  1
  C  C519  1  0.36730000  0.97780000  0.66870000  1
  C  C520  1  0.36867000  0.05978000  0.91811000  1
  C  C521  1  0.36867000  0.44022000  0.58189000  1
  C  C522  1  0.36867000  0.58189000  0.05978000  1
  C  C523  1  0.36867000  0.91811000  0.44022000  1
  C  C524  1  0.37057000  0.51225000  0.57670000  1
  C  C525  1  0.37057000  0.57670000  0.98775000  1
  C  C526  1  0.37057000  0.92330000  0.51225000  1
  C  C527  1  0.37057000  0.98775000  0.92330000  1
  C  C528  1  0.39387000  0.06282000  0.95120000  1
  C  C529  1  0.39387000  0.43718000  0.54880000  1
  C  C530  1  0.39387000  0.54880000  0.06282000  1
  C  C531  1  0.39387000  0.95120000  0.43718000  1
  C  C532  1  0.39577000  0.50921000  0.54363000  1
  C  C533  1  0.39577000  0.54363000  0.99079000  1
  C  C534  1  0.39577000  0.95637000  0.50921000  1
  C  C535  1  0.39577000  0.99079000  0.95637000  1
  C  C536  1  0.40415000  0.52220000  0.85702000  1
  C  C537  1  0.40415000  0.64298000  0.52220000  1
  C  C538  1  0.40415000  0.85702000  0.97780000  1
  C  C539  1  0.40415000  0.97780000  0.64298000  1
  C  C540  1  0.40742000  0.02830000  0.97034000  1
  C  C541  1  0.40742000  0.47170000  0.52966000  1
  C  C542  1  0.40742000  0.52966000  0.02830000  1
  C  C543  1  0.40742000  0.97034000  0.47170000  1
  C  C544  1  0.41811000  0.55978000  0.86867000  1
  C  C545  1  0.41811000  0.63133000  0.55978000  1
  C  C546  1  0.41811000  0.86867000  0.94022000  1
  C  C547  1  0.41811000  0.94022000  0.63133000  1
  C  C548  1  0.42330000  0.01225000  0.62943000  1
  C  C549  1  0.42330000  0.48775000  0.87057000  1
  C  C550  1  0.42330000  0.62943000  0.48775000  1
  C  C551  1  0.42330000  0.87057000  0.01225000  1
  C  C552  1  0.43718000  0.10613000  0.54880000  1
  C  C553  1  0.43718000  0.39387000  0.95120000  1
  C  C554  1  0.43718000  0.54880000  0.39387000  1
  C  C555  1  0.43718000  0.95120000  0.10613000  1
  C  C556  1  0.43736000  0.00430000  0.47000000  1
  C  C557  1  0.43736000  0.03000000  0.00430000  1
  C  C558  1  0.43736000  0.47000000  0.49570000  1
  C  C559  1  0.43736000  0.49570000  0.03000000  1
  C  C560  1  0.43861000  0.00188000  0.03510000  1
  C  C561  1  0.43861000  0.03510000  0.49812000  1
  C  C562  1  0.43861000  0.46490000  0.00188000  1
  C  C563  1  0.43861000  0.49812000  0.46490000  1
  C  C564  1  0.44022000  0.13133000  0.58189000  1
  C  C565  1  0.44022000  0.36867000  0.91811000  1
  C  C566  1  0.44022000  0.58189000  0.36867000  1
  C  C567  1  0.44022000  0.91811000  0.13133000  1
  C  C568  1  0.45120000  0.56282000  0.89387000  1
  C  C569  1  0.45120000  0.60613000  0.56282000  1
  C  C570  1  0.45120000  0.89387000  0.93718000  1
  C  C571  1  0.45120000  0.93718000  0.60613000  1
  C  C572  1  0.45637000  0.00921000  0.60423000  1
  C  C573  1  0.45637000  0.49079000  0.89577000  1
  C  C574  1  0.45637000  0.60423000  0.49079000  1
  C  C575  1  0.45637000  0.89577000  0.00921000  1
  C  C576  1  0.46490000  0.00188000  0.43861000  1
  C  C577  1  0.46490000  0.06139000  0.00188000  1
  C  C578  1  0.46490000  0.43861000  0.49812000  1
  C  C579  1  0.46490000  0.49812000  0.06139000  1
  C  C580  1  0.47000000  0.00430000  0.06264000  1
  C  C581  1  0.47000000  0.06264000  0.49570000  1
  C  C582  1  0.47000000  0.43736000  0.00430000  1
  C  C583  1  0.47000000  0.49570000  0.43736000  1
  C  C584  1  0.47034000  0.52830000  0.90742000  1
  C  C585  1  0.47034000  0.59258000  0.52830000  1
  C  C586  1  0.47034000  0.90742000  0.97170000  1
  C  C587  1  0.47034000  0.97170000  0.59258000  1
  C  C588  1  0.47170000  0.09258000  0.52966000  1
  C  C589  1  0.47170000  0.40742000  0.97034000  1
  C  C590  1  0.47170000  0.52966000  0.40742000  1
  C  C591  1  0.47170000  0.97034000  0.09258000  1
  C  C592  1  0.47780000  0.14298000  0.59585000  1
  C  C593  1  0.47780000  0.16870000  0.63270000  1
  C  C594  1  0.47780000  0.33130000  0.86730000  1
  C  C595  1  0.47780000  0.35702000  0.90415000  1
  C  C596  1  0.47780000  0.59585000  0.35702000  1
  C  C597  1  0.47780000  0.63270000  0.33130000  1
  C  C598  1  0.47780000  0.86730000  0.16870000  1
  C  C599  1  0.47780000  0.90415000  0.14298000  1
  C  C600  1  0.48775000  0.07670000  0.87057000  1
  C  C601  1  0.48775000  0.42330000  0.62943000  1
  C  C602  1  0.48775000  0.62943000  0.07670000  1
  C  C603  1  0.48775000  0.87057000  0.42330000  1
  C  C604  1  0.49079000  0.04363000  0.89577000  1
  C  C605  1  0.49079000  0.45637000  0.60423000  1
  C  C606  1  0.49079000  0.60423000  0.04363000  1
  C  C607  1  0.49079000  0.89577000  0.45637000  1
  C  C608  1  0.49340000  0.15134000  0.81780000  1
  C  C609  1  0.49340000  0.34866000  0.68220000  1
  C  C610  1  0.49340000  0.68220000  0.15134000  1
  C  C611  1  0.49340000  0.81780000  0.34866000  1
  C  C612  1  0.49570000  0.03000000  0.43736000  1
  C  C613  1  0.49570000  0.06264000  0.03000000  1
  C  C614  1  0.49570000  0.43736000  0.47000000  1
  C  C615  1  0.49570000  0.47000000  0.06264000  1
  C  C616  1  0.49610000  0.19010000  0.79100000  1
  C  C617  1  0.49610000  0.30990000  0.70900000  1
  C  C618  1  0.49610000  0.70900000  0.19010000  1
  C  C619  1  0.49610000  0.79100000  0.30990000  1
  C  C620  1  0.49812000  0.03510000  0.06139000  1
  C  C621  1  0.49812000  0.06139000  0.46490000  1
  C  C622  1  0.49812000  0.43861000  0.03510000  1
  C  C623  1  0.49812000  0.46490000  0.43861000  1
  C  C624  1  0.50188000  0.53510000  0.56139000  1
  C  C625  1  0.50188000  0.56139000  0.96490000  1
  C  C626  1  0.50188000  0.93861000  0.53510000  1
  C  C627  1  0.50188000  0.96490000  0.93861000  1
  C  C628  1  0.50390000  0.20900000  0.69010000  1
  C  C629  1  0.50390000  0.29100000  0.80990000  1
  C  C630  1  0.50390000  0.69010000  0.29100000  1
  C  C631  1  0.50390000  0.80990000  0.20900000  1
  C  C632  1  0.50430000  0.53000000  0.93736000  1
  C  C633  1  0.50430000  0.56264000  0.53000000  1
  C  C634  1  0.50430000  0.93736000  0.97000000  1
  C  C635  1  0.50430000  0.97000000  0.56264000  1
  C  C636  1  0.50660000  0.18220000  0.65134000  1
  C  C637  1  0.50660000  0.31780000  0.84866000  1
  C  C638  1  0.50660000  0.65134000  0.31780000  1
  C  C639  1  0.50660000  0.84866000  0.18220000  1
  C  C640  1  0.50921000  0.10423000  0.54363000  1
  C  C641  1  0.50921000  0.39577000  0.95637000  1
  C  C642  1  0.50921000  0.54363000  0.39577000  1
  C  C643  1  0.50921000  0.95637000  0.10423000  1
  C  C644  1  0.51225000  0.12943000  0.57670000  1
  C  C645  1  0.51225000  0.37057000  0.92330000  1
  C  C646  1  0.51225000  0.57670000  0.37057000  1
  C  C647  1  0.51225000  0.92330000  0.12943000  1
  C  C648  1  0.52220000  0.09585000  0.85702000  1
  C  C649  1  0.52220000  0.13270000  0.83130000  1
  C  C650  1  0.52220000  0.36730000  0.66870000  1
  C  C651  1  0.52220000  0.40415000  0.64298000  1
  C  C652  1  0.52220000  0.64298000  0.09585000  1
  C  C653  1  0.52220000  0.66870000  0.13270000  1
  C  C654  1  0.52220000  0.83130000  0.36730000  1
  C  C655  1  0.52220000  0.85702000  0.40415000  1
  C  C656  1  0.52830000  0.02966000  0.90742000  1
  C  C657  1  0.52830000  0.47034000  0.59258000  1
  C  C658  1  0.52830000  0.59258000  0.02966000  1
  C  C659  1  0.52830000  0.90742000  0.47034000  1
  C  C660  1  0.52966000  0.02830000  0.40742000  1
  C  C661  1  0.52966000  0.09258000  0.02830000  1
  C  C662  1  0.52966000  0.40742000  0.47170000  1
  C  C663  1  0.52966000  0.47170000  0.09258000  1
  C  C664  1  0.53000000  0.50430000  0.56264000  1
  C  C665  1  0.53000000  0.56264000  0.99570000  1
  C  C666  1  0.53000000  0.93736000  0.50430000  1
  C  C667  1  0.53000000  0.99570000  0.93736000  1
  C  C668  1  0.53510000  0.50188000  0.93861000  1
  C  C669  1  0.53510000  0.56139000  0.50188000  1
  C  C670  1  0.53510000  0.93861000  0.99812000  1
  C  C671  1  0.53510000  0.99812000  0.56139000  1
  C  C672  1  0.54363000  0.10423000  0.99079000  1
  C  C673  1  0.54363000  0.39577000  0.50921000  1
  C  C674  1  0.54363000  0.50921000  0.10423000  1
  C  C675  1  0.54363000  0.99079000  0.39577000  1
  C  C676  1  0.54880000  0.06282000  0.39387000  1
  C  C677  1  0.54880000  0.10613000  0.06282000  1
  C  C678  1  0.54880000  0.39387000  0.43718000  1
  C  C679  1  0.54880000  0.43718000  0.10613000  1
  C  C680  1  0.55978000  0.08189000  0.86867000  1
  C  C681  1  0.55978000  0.41811000  0.63133000  1
  C  C682  1  0.55978000  0.63133000  0.08189000  1
  C  C683  1  0.55978000  0.86867000  0.41811000  1
  C  C684  1  0.56139000  0.50188000  0.53510000  1
  C  C685  1  0.56139000  0.53510000  0.99812000  1
  C  C686  1  0.56139000  0.96490000  0.50188000  1
  C  C687  1  0.56139000  0.99812000  0.96490000  1
  C  C688  1  0.56264000  0.50430000  0.97000000  1
  C  C689  1  0.56264000  0.53000000  0.50430000  1
  C  C690  1  0.56264000  0.97000000  0.99570000  1
  C  C691  1  0.56264000  0.99570000  0.53000000  1
  C  C692  1  0.56282000  0.04880000  0.89387000  1
  C  C693  1  0.56282000  0.45120000  0.60613000  1
  C  C694  1  0.56282000  0.60613000  0.04880000  1
  C  C695  1  0.56282000  0.89387000  0.45120000  1
  C  C696  1  0.57670000  0.12943000  0.98775000  1
  C  C697  1  0.57670000  0.37057000  0.51225000  1
  C  C698  1  0.57670000  0.51225000  0.12943000  1
  C  C699  1  0.57670000  0.98775000  0.37057000  1
  C  C700  1  0.58189000  0.05978000  0.36867000  1
  C  C701  1  0.58189000  0.13133000  0.05978000  1
  C  C702  1  0.58189000  0.36867000  0.44022000  1
  C  C703  1  0.58189000  0.44022000  0.13133000  1
  C  C704  1  0.59258000  0.02966000  0.52830000  1
  C  C705  1  0.59258000  0.47034000  0.97170000  1
  C  C706  1  0.59258000  0.52830000  0.47034000  1
  C  C707  1  0.59258000  0.97170000  0.02966000  1
  C  C708  1  0.59585000  0.02220000  0.35702000  1
  C  C709  1  0.59585000  0.14298000  0.02220000  1
  C  C710  1  0.59585000  0.35702000  0.47780000  1
  C  C711  1  0.59585000  0.47780000  0.14298000  1
  C  C712  1  0.60423000  0.00921000  0.04363000  1
  C  C713  1  0.60423000  0.04363000  0.49079000  1
  C  C714  1  0.60423000  0.45637000  0.00921000  1
  C  C715  1  0.60423000  0.49079000  0.45637000  1
  C  C716  1  0.60613000  0.04880000  0.56282000  1
  C  C717  1  0.60613000  0.45120000  0.93718000  1
  C  C718  1  0.60613000  0.56282000  0.45120000  1
  C  C719  1  0.60613000  0.93718000  0.04880000  1
  C  C720  1  0.62943000  0.01225000  0.07670000  1
  C  C721  1  0.62943000  0.07670000  0.48775000  1
  C  C722  1  0.62943000  0.42330000  0.01225000  1
  C  C723  1  0.62943000  0.48775000  0.42330000  1
  C  C724  1  0.63133000  0.08189000  0.55978000  1
  C  C725  1  0.63133000  0.41811000  0.94022000  1
  C  C726  1  0.63133000  0.55978000  0.41811000  1
  C  C727  1  0.63133000  0.94022000  0.08189000  1
  C  C728  1  0.63270000  0.02220000  0.33130000  1
  C  C729  1  0.63270000  0.16870000  0.02220000  1
  C  C730  1  0.63270000  0.33130000  0.47780000  1
  C  C731  1  0.63270000  0.47780000  0.16870000  1
  C  C732  1  0.64298000  0.09585000  0.52220000  1
  C  C733  1  0.64298000  0.40415000  0.97780000  1
  C  C734  1  0.64298000  0.52220000  0.40415000  1
  C  C735  1  0.64298000  0.97780000  0.09585000  1
  C  C736  1  0.65134000  0.18220000  0.99340000  1
  C  C737  1  0.65134000  0.31780000  0.50660000  1
  C  C738  1  0.65134000  0.50660000  0.18220000  1
  C  C739  1  0.65134000  0.99340000  0.31780000  1
  C  C740  1  0.66870000  0.13270000  0.52220000  1
  C  C741  1  0.66870000  0.36730000  0.97780000  1
  C  C742  1  0.66870000  0.52220000  0.36730000  1
  C  C743  1  0.66870000  0.97780000  0.13270000  1
  C  C744  1  0.68220000  0.00660000  0.15134000  1
  C  C745  1  0.68220000  0.15134000  0.49340000  1
  C  C746  1  0.68220000  0.34866000  0.00660000  1
  C  C747  1  0.68220000  0.49340000  0.34866000  1
  C  C748  1  0.69010000  0.20900000  0.99610000  1
  C  C749  1  0.69010000  0.29100000  0.50390000  1
  C  C750  1  0.69010000  0.50390000  0.20900000  1
  C  C751  1  0.69010000  0.99610000  0.29100000  1
  C  C752  1  0.70900000  0.00390000  0.19010000  1
  C  C753  1  0.70900000  0.19010000  0.49610000  1
  C  C754  1  0.70900000  0.30990000  0.00390000  1
  C  C755  1  0.70900000  0.49610000  0.30990000  1
  C  C756  1  0.79100000  0.00390000  0.30990000  1
  C  C757  1  0.79100000  0.19010000  0.00390000  1
  C  C758  1  0.79100000  0.30990000  0.49610000  1
  C  C759  1  0.79100000  0.49610000  0.19010000  1
  C  C760  1  0.80990000  0.20900000  0.50390000  1
  C  C761  1  0.80990000  0.29100000  0.99610000  1
  C  C762  1  0.80990000  0.50390000  0.29100000  1
  C  C763  1  0.80990000  0.99610000  0.20900000  1
  C  C764  1  0.81780000  0.00660000  0.34866000  1
  C  C765  1  0.81780000  0.15134000  0.00660000  1
  C  C766  1  0.81780000  0.34866000  0.49340000  1
  C  C767  1  0.81780000  0.49340000  0.15134000  1
  C  C768  1  0.83130000  0.13270000  0.97780000  1
  C  C769  1  0.83130000  0.36730000  0.52220000  1
  C  C770  1  0.83130000  0.52220000  0.13270000  1
  C  C771  1  0.83130000  0.97780000  0.36730000  1
  C  C772  1  0.84866000  0.18220000  0.50660000  1
  C  C773  1  0.84866000  0.31780000  0.99340000  1
  C  C774  1  0.84866000  0.50660000  0.31780000  1
  C  C775  1  0.84866000  0.99340000  0.18220000  1
  C  C776  1  0.85702000  0.09585000  0.97780000  1
  C  C777  1  0.85702000  0.40415000  0.52220000  1
  C  C778  1  0.85702000  0.52220000  0.09585000  1
  C  C779  1  0.85702000  0.97780000  0.40415000  1
  C  C780  1  0.86730000  0.02220000  0.16870000  1
  C  C781  1  0.86730000  0.16870000  0.47780000  1
  C  C782  1  0.86730000  0.33130000  0.02220000  1
  C  C783  1  0.86730000  0.47780000  0.33130000  1
  C  C784  1  0.86867000  0.08189000  0.94022000  1
  C  C785  1  0.86867000  0.41811000  0.55978000  1
  C  C786  1  0.86867000  0.55978000  0.08189000  1
  C  C787  1  0.86867000  0.94022000  0.41811000  1
  C  C788  1  0.87057000  0.01225000  0.42330000  1
  C  C789  1  0.87057000  0.07670000  0.01225000  1
  C  C790  1  0.87057000  0.42330000  0.48775000  1
  C  C791  1  0.87057000  0.48775000  0.07670000  1
  C  C792  1  0.89387000  0.04880000  0.93718000  1
  C  C793  1  0.89387000  0.45120000  0.56282000  1
  C  C794  1  0.89387000  0.56282000  0.04880000  1
  C  C795  1  0.89387000  0.93718000  0.45120000  1
  C  C796  1  0.89577000  0.00921000  0.45637000  1
  C  C797  1  0.89577000  0.04363000  0.00921000  1
  C  C798  1  0.89577000  0.45637000  0.49079000  1
  C  C799  1  0.89577000  0.49079000  0.04363000  1
  C  C800  1  0.90415000  0.02220000  0.14298000  1
  C  C801  1  0.90415000  0.14298000  0.47780000  1
  C  C802  1  0.90415000  0.35702000  0.02220000  1
  C  C803  1  0.90415000  0.47780000  0.35702000  1
  C  C804  1  0.90742000  0.02966000  0.97170000  1
  C  C805  1  0.90742000  0.47034000  0.52830000  1
  C  C806  1  0.90742000  0.52830000  0.02966000  1
  C  C807  1  0.90742000  0.97170000  0.47034000  1
  C  C808  1  0.91811000  0.05978000  0.13133000  1
  C  C809  1  0.91811000  0.13133000  0.44022000  1
  C  C810  1  0.91811000  0.36867000  0.05978000  1
  C  C811  1  0.91811000  0.44022000  0.36867000  1
  C  C812  1  0.92330000  0.12943000  0.51225000  1
  C  C813  1  0.92330000  0.37057000  0.98775000  1
  C  C814  1  0.92330000  0.51225000  0.37057000  1
  C  C815  1  0.92330000  0.98775000  0.12943000  1
  C  C816  1  0.93718000  0.04880000  0.60613000  1
  C  C817  1  0.93718000  0.45120000  0.89387000  1
  C  C818  1  0.93718000  0.60613000  0.45120000  1
  C  C819  1  0.93718000  0.89387000  0.04880000  1
  C  C820  1  0.93736000  0.50430000  0.53000000  1
  C  C821  1  0.93736000  0.53000000  0.99570000  1
  C  C822  1  0.93736000  0.97000000  0.50430000  1
  C  C823  1  0.93736000  0.99570000  0.97000000  1
  C  C824  1  0.93861000  0.50188000  0.96490000  1
  C  C825  1  0.93861000  0.53510000  0.50188000  1
  C  C826  1  0.93861000  0.96490000  0.99812000  1
  C  C827  1  0.93861000  0.99812000  0.53510000  1
  C  C828  1  0.94022000  0.08189000  0.63133000  1
  C  C829  1  0.94022000  0.41811000  0.86867000  1
  C  C830  1  0.94022000  0.63133000  0.41811000  1
  C  C831  1  0.94022000  0.86867000  0.08189000  1
  C  C832  1  0.95120000  0.06282000  0.10613000  1
  C  C833  1  0.95120000  0.10613000  0.43718000  1
  C  C834  1  0.95120000  0.39387000  0.06282000  1
  C  C835  1  0.95120000  0.43718000  0.39387000  1
  C  C836  1  0.95637000  0.10423000  0.50921000  1
  C  C837  1  0.95637000  0.39577000  0.99079000  1
  C  C838  1  0.95637000  0.50921000  0.39577000  1
  C  C839  1  0.95637000  0.99079000  0.10423000  1
  C  C840  1  0.96490000  0.50188000  0.56139000  1
  C  C841  1  0.96490000  0.56139000  0.99812000  1
  C  C842  1  0.96490000  0.93861000  0.50188000  1
  C  C843  1  0.96490000  0.99812000  0.93861000  1
  C  C844  1  0.97000000  0.50430000  0.93736000  1
  C  C845  1  0.97000000  0.56264000  0.50430000  1
  C  C846  1  0.97000000  0.93736000  0.99570000  1
  C  C847  1  0.97000000  0.99570000  0.56264000  1
  C  C848  1  0.97034000  0.02830000  0.09258000  1
  C  C849  1  0.97034000  0.09258000  0.47170000  1
  C  C850  1  0.97034000  0.40742000  0.02830000  1
  C  C851  1  0.97034000  0.47170000  0.40742000  1
  C  C852  1  0.97170000  0.02966000  0.59258000  1
  C  C853  1  0.97170000  0.47034000  0.90742000  1
  C  C854  1  0.97170000  0.59258000  0.47034000  1
  C  C855  1  0.97170000  0.90742000  0.02966000  1
  C  C856  1  0.97780000  0.09585000  0.64298000  1
  C  C857  1  0.97780000  0.13270000  0.66870000  1
  C  C858  1  0.97780000  0.36730000  0.83130000  1
  C  C859  1  0.97780000  0.40415000  0.85702000  1
  C  C860  1  0.97780000  0.64298000  0.40415000  1
  C  C861  1  0.97780000  0.66870000  0.36730000  1
  C  C862  1  0.97780000  0.83130000  0.13270000  1
  C  C863  1  0.97780000  0.85702000  0.09585000  1
  C  C864  1  0.98775000  0.12943000  0.92330000  1
  C  C865  1  0.98775000  0.37057000  0.57670000  1
  C  C866  1  0.98775000  0.57670000  0.12943000  1
  C  C867  1  0.98775000  0.92330000  0.37057000  1
  C  C868  1  0.99079000  0.10423000  0.95637000  1
  C  C869  1  0.99079000  0.39577000  0.54363000  1
  C  C870  1  0.99079000  0.54363000  0.10423000  1
  C  C871  1  0.99079000  0.95637000  0.39577000  1
  C  C872  1  0.99340000  0.18220000  0.84866000  1
  C  C873  1  0.99340000  0.31780000  0.65134000  1
  C  C874  1  0.99340000  0.65134000  0.18220000  1
  C  C875  1  0.99340000  0.84866000  0.31780000  1
  C  C876  1  0.99570000  0.53000000  0.56264000  1
  C  C877  1  0.99570000  0.56264000  0.97000000  1
  C  C878  1  0.99570000  0.93736000  0.53000000  1
  C  C879  1  0.99570000  0.97000000  0.93736000  1
  C  C880  1  0.99610000  0.20900000  0.80990000  1
  C  C881  1  0.99610000  0.29100000  0.69010000  1
  C  C882  1  0.99610000  0.69010000  0.20900000  1
  C  C883  1  0.99610000  0.80990000  0.29100000  1
  C  C884  1  0.99812000  0.53510000  0.93861000  1
  C  C885  1  0.99812000  0.56139000  0.53510000  1
  C  C886  1  0.99812000  0.93861000  0.96490000  1
  C  C887  1  0.99812000  0.96490000  0.56139000  1
  O  O888  1  0.03112000  0.21646000  0.80001000  1
  O  O889  1  0.03112000  0.28354000  0.69999000  1
  O  O890  1  0.03112000  0.69999000  0.21646000  1
  O  O891  1  0.03112000  0.80001000  0.28354000  1
  O  O892  1  0.03860000  0.20210000  0.71773000  1
  O  O893  1  0.03860000  0.29790000  0.78227000  1
  O  O894  1  0.03860000  0.71773000  0.29790000  1
  O  O895  1  0.03860000  0.78227000  0.20210000  1
  O  O896  1  0.19999000  0.53112000  0.71646000  1
  O  O897  1  0.19999000  0.71646000  0.96888000  1
  O  O898  1  0.19999000  0.78354000  0.53112000  1
  O  O899  1  0.19999000  0.96888000  0.78354000  1
  O  O900  1  0.20210000  0.03860000  0.78227000  1
  O  O901  1  0.20210000  0.46140000  0.71773000  1
  O  O902  1  0.20210000  0.71773000  0.03860000  1
  O  O903  1  0.20210000  0.78227000  0.46140000  1
  O  O904  1  0.21646000  0.03112000  0.69999000  1
  O  O905  1  0.21646000  0.46888000  0.80001000  1
  O  O906  1  0.21646000  0.69999000  0.46888000  1
  O  O907  1  0.21646000  0.80001000  0.03112000  1
  O  O908  1  0.21773000  0.53860000  0.79790000  1
  O  O909  1  0.21773000  0.70210000  0.53860000  1
  O  O910  1  0.21773000  0.79790000  0.96140000  1
  O  O911  1  0.21773000  0.96140000  0.70210000  1
  O  O912  1  0.28227000  0.53860000  0.70210000  1
  O  O913  1  0.28227000  0.70210000  0.96140000  1
  O  O914  1  0.28227000  0.79790000  0.53860000  1
  O  O915  1  0.28227000  0.96140000  0.79790000  1
  O  O916  1  0.28354000  0.03112000  0.80001000  1
  O  O917  1  0.28354000  0.46888000  0.69999000  1
  O  O918  1  0.28354000  0.69999000  0.03112000  1
  O  O919  1  0.28354000  0.80001000  0.46888000  1
  O  O920  1  0.29790000  0.03860000  0.71773000  1
  O  O921  1  0.29790000  0.46140000  0.78227000  1
  O  O922  1  0.29790000  0.71773000  0.46140000  1
  O  O923  1  0.29790000  0.78227000  0.03860000  1
  O  O924  1  0.30001000  0.53112000  0.78354000  1
  O  O925  1  0.30001000  0.71646000  0.53112000  1
  O  O926  1  0.30001000  0.78354000  0.96888000  1
  O  O927  1  0.30001000  0.96888000  0.71646000  1
  O  O928  1  0.46140000  0.20210000  0.78227000  1
  O  O929  1  0.46140000  0.29790000  0.71773000  1
  O  O930  1  0.46140000  0.71773000  0.20210000  1
  O  O931  1  0.46140000  0.78227000  0.29790000  1
  O  O932  1  0.46888000  0.21646000  0.69999000  1
  O  O933  1  0.46888000  0.28354000  0.80001000  1
  O  O934  1  0.46888000  0.69999000  0.28354000  1
  O  O935  1  0.46888000  0.80001000  0.21646000  1
  O  O936  1  0.53112000  0.19999000  0.78354000  1
  O  O937  1  0.53112000  0.30001000  0.71646000  1
  O  O938  1  0.53112000  0.71646000  0.19999000  1
  O  O939  1  0.53112000  0.78354000  0.30001000  1
  O  O940  1  0.53860000  0.21773000  0.70210000  1
  O  O941  1  0.53860000  0.28227000  0.79790000  1
  O  O942  1  0.53860000  0.70210000  0.28227000  1
  O  O943  1  0.53860000  0.79790000  0.21773000  1
  O  O944  1  0.69999000  0.03112000  0.28354000  1
  O  O945  1  0.69999000  0.21646000  0.03112000  1
  O  O946  1  0.69999000  0.28354000  0.46888000  1
  O  O947  1  0.69999000  0.46888000  0.21646000  1
  O  O948  1  0.70210000  0.21773000  0.96140000  1
  O  O949  1  0.70210000  0.28227000  0.53860000  1
  O  O950  1  0.70210000  0.53860000  0.21773000  1
  O  O951  1  0.70210000  0.96140000  0.28227000  1
  O  O952  1  0.71646000  0.19999000  0.53112000  1
  O  O953  1  0.71646000  0.30001000  0.96888000  1
  O  O954  1  0.71646000  0.53112000  0.30001000  1
  O  O955  1  0.71646000  0.96888000  0.19999000  1
  O  O956  1  0.71773000  0.03860000  0.20210000  1
  O  O957  1  0.71773000  0.20210000  0.46140000  1
  O  O958  1  0.71773000  0.29790000  0.03860000  1
  O  O959  1  0.71773000  0.46140000  0.29790000  1
  O  O960  1  0.78227000  0.03860000  0.29790000  1
  O  O961  1  0.78227000  0.20210000  0.03860000  1
  O  O962  1  0.78227000  0.29790000  0.46140000  1
  O  O963  1  0.78227000  0.46140000  0.20210000  1
  O  O964  1  0.78354000  0.19999000  0.96888000  1
  O  O965  1  0.78354000  0.30001000  0.53112000  1
  O  O966  1  0.78354000  0.53112000  0.19999000  1
  O  O967  1  0.78354000  0.96888000  0.30001000  1
  O  O968  1  0.79790000  0.21773000  0.53860000  1
  O  O969  1  0.79790000  0.28227000  0.96140000  1
  O  O970  1  0.79790000  0.53860000  0.28227000  1
  O  O971  1  0.79790000  0.96140000  0.21773000  1
  O  O972  1  0.80001000  0.03112000  0.21646000  1
  O  O973  1  0.80001000  0.21646000  0.46888000  1
  O  O974  1  0.80001000  0.28354000  0.03112000  1
  O  O975  1  0.80001000  0.46888000  0.28354000  1
  O  O976  1  0.96140000  0.21773000  0.79790000  1
  O  O977  1  0.96140000  0.28227000  0.70210000  1
  O  O978  1  0.96140000  0.70210000  0.21773000  1
  O  O979  1  0.96140000  0.79790000  0.28227000  1
  O  O980  1  0.96888000  0.19999000  0.71646000  1
  O  O981  1  0.96888000  0.30001000  0.78354000  1
  O  O982  1  0.96888000  0.71646000  0.30001000  1
  O  O983  1  0.96888000  0.78354000  0.19999000  1
