# generated using pymatgen
data_TbH2C7(NO3)2
_symmetry_space_group_name_H-M   'P 1'
_cell_length_a   6.07800000
_cell_length_b   9.95000000
_cell_length_c   13.33700000
_cell_angle_alpha   68.82300000
_cell_angle_beta   81.14200000
_cell_angle_gamma   76.81300000
_symmetry_Int_Tables_number   1
_chemical_formula_structural   TbH2C7(NO3)2
_chemical_formula_sum   'Tb2 H4 C14 N4 O12'
_cell_volume   729.98966257
_cell_formula_units_Z   2
loop_
 _symmetry_equiv_pos_site_id
 _symmetry_equiv_pos_as_xyz
  1  'x, y, z'
loop_
 _atom_site_type_symbol
 _atom_site_label
 _atom_site_symmetry_multiplicity
 _atom_site_fract_x
 _atom_site_fract_y
 _atom_site_fract_z
 _atom_site_occupancy
  Tb  Tb0  1  0.16637000  0.38607000  0.80454000  1
  Tb  Tb1  1  0.83363000  0.61393000  0.19546000  1
  H  H2  1  0.29130000  0.67490000  0.37060000  1
  H  H3  1  0.32510000  0.04630000  0.02790000  1
  H  H4  1  0.67490000  0.95370000  0.97210000  1
  H  H5  1  0.70870000  0.32510000  0.62940000  1
  C  C6  1  0.05000000  0.61600000  0.56050000  1
  C  C7  1  0.08900000  0.44050000  0.03330000  1
  C  C8  1  0.13480000  0.89280000  0.06970000  1
  C  C9  1  0.18900000  0.02960000  0.01500000  1
  C  C10  1  0.28700000  0.55740000  0.52650000  1
  C  C11  1  0.28900000  0.76490000  0.14080000  1
  C  C12  1  0.37900000  0.60320000  0.42300000  1
  C  C13  1  0.62100000  0.39680000  0.57700000  1
  C  C14  1  0.71100000  0.23510000  0.85920000  1
  C  C15  1  0.71300000  0.44260000  0.47350000  1
  C  C16  1  0.81100000  0.97040000  0.98500000  1
  C  C17  1  0.86520000  0.10720000  0.93030000  1
  C  C18  1  0.91100000  0.55950000  0.96670000  1
  C  C19  1  0.95000000  0.38400000  0.43950000  1
  N  N20  1  0.06220000  0.13760000  0.94590000  1
  N  N21  1  0.40460000  0.45190000  0.60680000  1
  N  N22  1  0.59540000  0.54810000  0.39320000  1
  N  N23  1  0.93780000  0.86240000  0.05410000  1
  O  O24  1  0.01560000  0.43210000  0.34100000  1
  O  O25  1  0.07020000  0.28820000  0.51050000  1
  O  O26  1  0.08280000  0.43020000  0.13010000  1
  O  O27  1  0.21520000  0.64750000  0.18350000  1
  O  O28  1  0.22370000  0.36200000  0.98730000  1
  O  O29  1  0.47970000  0.78210000  0.15270000  1
  O  O30  1  0.52030000  0.21790000  0.84730000  1
  O  O31  1  0.77630000  0.63800000  0.01270000  1
  O  O32  1  0.78480000  0.35250000  0.81650000  1
  O  O33  1  0.91720000  0.56980000  0.86990000  1
  O  O34  1  0.92980000  0.71180000  0.48950000  1
  O  O35  1  0.98440000  0.56790000  0.65900000  1
