# generated using pymatgen
data_Cu6H24WC32S4(IN6)4
_symmetry_space_group_name_H-M   'P 1'
_cell_length_a   26.29368638
_cell_length_b   26.29340000
_cell_length_c   26.29340000
_cell_angle_alpha   109.47100000
_cell_angle_beta   109.47144127
_cell_angle_gamma   109.47144127
_symmetry_Int_Tables_number   1
_chemical_formula_structural   Cu6H24WC32S4(IN6)4
_chemical_formula_sum   'Cu36 H144 W6 C192 S24 I24 N144'
_cell_volume   13993.35661030
_cell_formula_units_Z   6
loop_
 _symmetry_equiv_pos_site_id
 _symmetry_equiv_pos_as_xyz
  1  'x, y, z'
loop_
 _atom_site_type_symbol
 _atom_site_label
 _atom_site_symmetry_multiplicity
 _atom_site_fract_x
 _atom_site_fract_y
 _atom_site_fract_z
 _atom_site_occupancy
  Cu  Cu0  1  0.75000000  0.53628000  0.78628000  1
  Cu  Cu1  1  0.76680000  0.70298000  0.82716000  1
  Cu  Cu2  1  0.87582000  0.67284000  0.93964000  1
  Cu  Cu3  1  0.93618000  0.23320000  0.06036000  1
  Cu  Cu4  1  0.62418000  0.56382000  0.79702000  1
  Cu  Cu5  1  0.73320000  0.56036000  0.93618000  1
  Cu  Cu6  1  0.75000000  0.71372000  0.96372000  1
  Cu  Cu7  1  0.93964000  0.37582000  0.17284000  1
  Cu  Cu8  1  0.96372000  0.25000000  0.21372000  1
  Cu  Cu9  1  0.78628000  0.25000000  0.03628000  1
  Cu  Cu10  1  0.79702000  0.12418000  0.06382000  1
  Cu  Cu11  1  0.25000000  0.78628000  0.53628000  1
  Cu  Cu12  1  0.37582000  0.93964000  0.67284000  1
  Cu  Cu13  1  0.23320000  0.93618000  0.56036000  1
  Cu  Cu14  1  0.82716000  0.26680000  0.20298000  1
  Cu  Cu15  1  0.26680000  0.82716000  0.70298000  1
  Cu  Cu16  1  0.12418000  0.79702000  0.56382000  1
  Cu  Cu17  1  0.25000000  0.96372000  0.71372000  1
  Cu  Cu18  1  0.21372000  0.46372000  0.75000000  1
  Cu  Cu19  1  0.06382000  0.29702000  0.62418000  1
  Cu  Cu20  1  0.20298000  0.32716000  0.76680000  1
  Cu  Cu21  1  0.70298000  0.76680000  0.32716000  1
  Cu  Cu22  1  0.06036000  0.43618000  0.73320000  1
  Cu  Cu23  1  0.17284000  0.43964000  0.87582000  1
  Cu  Cu24  1  0.03628000  0.28628000  0.75000000  1
  Cu  Cu25  1  0.56382000  0.62418000  0.29702000  1
  Cu  Cu26  1  0.71372000  0.75000000  0.46372000  1
  Cu  Cu27  1  0.53628000  0.75000000  0.28628000  1
  Cu  Cu28  1  0.67284000  0.87582000  0.43964000  1
  Cu  Cu29  1  0.46372000  0.21372000  0.25000000  1
  Cu  Cu30  1  0.43618000  0.06036000  0.23320000  1
  Cu  Cu31  1  0.29702000  0.06382000  0.12418000  1
  Cu  Cu32  1  0.56036000  0.73320000  0.43618000  1
  Cu  Cu33  1  0.43964000  0.17284000  0.37582000  1
  Cu  Cu34  1  0.32716000  0.20298000  0.26680000  1
  Cu  Cu35  1  0.28628000  0.03628000  0.25000000  1
  H  H36  1  0.10220000  0.17560000  0.10920000  1
  H  H37  1  0.16560000  0.90270000  0.17270000  1
  H  H38  1  0.91300000  0.82620000  0.92300000  1
  H  H39  1  0.07060000  0.25640000  0.12280000  1
  H  H40  1  0.17420000  0.07040000  0.22940000  1
  H  H41  1  0.36550000  0.74840000  0.42150000  1
  H  H42  1  0.50700000  0.39780000  0.57340000  1
  H  H43  1  0.77060000  0.44480000  0.84100000  1
  H  H44  1  0.37720000  0.13360000  0.44780000  1
  H  H45  1  0.49300000  0.89080000  0.56640000  1
  H  H46  1  0.59680000  0.58680000  0.67380000  1
  H  H47  1  0.05600000  0.88290000  0.13450000  1
  H  H48  1  0.90320000  0.57700000  0.99000000  1
  H  H49  1  0.99000000  0.40320000  0.07700000  1
  H  H50  1  0.91320000  0.08700000  0.01000000  1
  H  H51  1  0.23000000  0.99290000  0.32730000  1
  H  H52  1  0.39080000  0.06640000  0.49300000  1
  H  H53  1  0.84100000  0.27060000  0.94480000  1
  H  H54  1  0.82440000  0.92660000  0.93360000  1
  H  H55  1  0.24840000  0.92150000  0.36550000  1
  H  H56  1  0.74360000  0.81420000  0.86640000  1
  H  H57  1  0.55220000  0.42940000  0.68580000  1
  H  H58  1  0.11710000  0.17310000  0.25160000  1
  H  H59  1  0.89620000  0.82580000  0.05520000  1
  H  H60  1  0.32730000  0.73000000  0.49290000  1
  H  H61  1  0.09730000  0.26290000  0.27000000  1
  H  H62  1  0.74840000  0.36550000  0.92150000  1
  H  H63  1  0.40320000  0.99000000  0.57700000  1
  H  H64  1  0.27060000  0.84100000  0.44480000  1
  H  H65  1  0.89080000  0.49300000  0.06640000  1
  H  H66  1  0.44780000  0.87720000  0.63360000  1
  H  H67  1  0.92960000  0.10380000  0.15900000  1
  H  H68  1  0.17270000  0.66560000  0.40270000  1
  H  H69  1  0.66560000  0.17270000  0.90270000  1
  H  H70  1  0.68580000  0.05220000  0.92940000  1
  H  H71  1  0.13450000  0.55600000  0.38290000  1
  H  H72  1  0.82690000  0.94400000  0.07850000  1
  H  H73  1  0.87720000  0.44780000  0.13360000  1
  H  H74  1  0.73000000  0.32730000  0.99290000  1
  H  H75  1  0.73710000  0.83440000  0.00710000  1
  H  H76  1  0.05520000  0.39620000  0.32580000  1
  H  H77  1  0.75640000  0.62280000  0.07060000  1
  H  H78  1  0.57340000  0.00700000  0.89780000  1
  H  H79  1  0.60380000  0.65900000  0.92960000  1
  H  H80  1  0.58700000  0.51000000  0.91320000  1
  H  H81  1  0.55600000  0.13450000  0.88290000  1
  H  H82  1  0.00710000  0.23710000  0.33440000  1
  H  H83  1  0.76290000  0.77000000  0.09730000  1
  H  H84  1  0.22940000  0.67420000  0.57040000  1
  H  H85  1  0.07850000  0.32690000  0.44400000  1
  H  H86  1  0.25640000  0.07060000  0.62280000  1
  H  H87  1  0.05220000  0.68580000  0.42940000  1
  H  H88  1  0.44400000  0.57850000  0.82690000  1
  H  H89  1  0.00700000  0.57340000  0.39780000  1
  H  H90  1  0.67420000  0.22940000  0.07040000  1
  H  H91  1  0.42660000  0.43360000  0.82440000  1
  H  H92  1  0.33440000  0.50710000  0.73710000  1
  H  H93  1  0.92300000  0.41300000  0.32620000  1
  H  H94  1  0.67380000  0.09680000  0.08680000  1
  H  H95  1  0.41300000  0.92300000  0.82620000  1
  H  H96  1  0.25160000  0.61710000  0.67310000  1
  H  H97  1  0.08700000  0.91320000  0.51000000  1
  H  H98  1  0.67560000  0.60920000  0.10220000  1
  H  H99  1  0.31420000  0.36640000  0.74360000  1
  H  H100  1  0.39620000  0.05520000  0.82580000  1
  H  H101  1  0.17560000  0.10220000  0.60920000  1
  H  H102  1  0.67310000  0.75160000  0.11710000  1
  H  H103  1  0.15900000  0.42960000  0.60380000  1
  H  H104  1  0.86640000  0.24360000  0.31420000  1
  H  H105  1  0.09680000  0.67380000  0.58680000  1
  H  H106  1  0.27000000  0.59730000  0.76290000  1
  H  H107  1  0.93360000  0.32440000  0.42660000  1
  H  H108  1  0.92660000  0.82440000  0.43360000  1
  H  H109  1  0.26290000  0.09730000  0.77000000  1
  H  H110  1  0.08680000  0.17380000  0.59680000  1
  H  H111  1  0.81420000  0.74360000  0.36640000  1
  H  H112  1  0.10380000  0.92960000  0.65900000  1
  H  H113  1  0.61710000  0.25160000  0.17310000  1
  H  H114  1  0.10920000  0.60220000  0.67560000  1
  H  H115  1  0.32580000  0.55520000  0.89620000  1
  H  H116  1  0.24360000  0.86640000  0.81420000  1
  H  H117  1  0.60220000  0.10920000  0.17560000  1
  H  H118  1  0.01000000  0.41320000  0.58700000  1
  H  H119  1  0.17310000  0.11710000  0.75160000  1
  H  H120  1  0.32620000  0.42300000  0.91300000  1
  H  H121  1  0.58680000  0.59680000  0.17380000  1
  H  H122  1  0.82620000  0.91300000  0.42300000  1
  H  H123  1  0.23710000  0.00710000  0.83440000  1
  H  H124  1  0.32440000  0.93360000  0.92660000  1
  H  H125  1  0.57040000  0.72940000  0.17420000  1
  H  H126  1  0.89780000  0.07340000  0.50700000  1
  H  H127  1  0.32690000  0.07850000  0.94400000  1
  H  H128  1  0.92940000  0.18580000  0.55220000  1
  H  H129  1  0.12280000  0.57060000  0.75640000  1
  H  H130  1  0.94400000  0.82690000  0.57850000  1
  H  H131  1  0.07040000  0.17420000  0.72940000  1
  H  H132  1  0.59730000  0.27000000  0.26290000  1
  H  H133  1  0.83440000  0.73710000  0.50710000  1
  H  H134  1  0.38290000  0.63450000  0.05600000  1
  H  H135  1  0.41320000  0.01000000  0.08700000  1
  H  H136  1  0.42960000  0.15900000  0.10380000  1
  H  H137  1  0.39780000  0.50700000  0.07340000  1
  H  H138  1  0.57060000  0.12280000  0.25640000  1
  H  H139  1  0.82580000  0.89620000  0.55520000  1
  H  H140  1  0.50710000  0.33440000  0.23710000  1
  H  H141  1  0.49290000  0.82730000  0.23000000  1
  H  H142  1  0.63360000  0.94780000  0.37720000  1
  H  H143  1  0.57850000  0.44400000  0.32690000  1
  H  H144  1  0.88290000  0.05600000  0.63450000  1
  H  H145  1  0.42940000  0.55220000  0.18580000  1
  H  H146  1  0.40270000  0.67270000  0.16560000  1
  H  H147  1  0.90270000  0.16560000  0.67270000  1
  H  H148  1  0.65900000  0.60380000  0.42960000  1
  H  H149  1  0.13360000  0.37720000  0.94780000  1
  H  H150  1  0.56640000  0.99300000  0.39080000  1
  H  H151  1  0.94480000  0.34100000  0.77060000  1
  H  H152  1  0.07700000  0.49000000  0.90320000  1
  H  H153  1  0.42150000  0.86550000  0.24840000  1
  H  H154  1  0.77000000  0.76290000  0.59730000  1
  H  H155  1  0.99290000  0.23000000  0.82730000  1
  H  H156  1  0.55520000  0.32580000  0.39620000  1
  H  H157  1  0.75160000  0.67310000  0.61710000  1
  H  H158  1  0.18580000  0.92940000  0.05220000  1
  H  H159  1  0.36640000  0.31420000  0.24360000  1
  H  H160  1  0.86550000  0.42150000  0.74840000  1
  H  H161  1  0.43360000  0.42660000  0.32440000  1
  H  H162  1  0.44480000  0.77060000  0.34100000  1
  H  H163  1  0.99300000  0.56640000  0.89080000  1
  H  H164  1  0.82730000  0.49290000  0.73000000  1
  H  H165  1  0.51000000  0.58700000  0.41320000  1
  H  H166  1  0.57700000  0.90320000  0.49000000  1
  H  H167  1  0.49000000  0.07700000  0.40320000  1
  H  H168  1  0.63450000  0.38290000  0.55600000  1
  H  H169  1  0.17380000  0.08680000  0.09680000  1
  H  H170  1  0.06640000  0.39080000  0.99300000  1
  H  H171  1  0.94780000  0.63360000  0.87720000  1
  H  H172  1  0.34100000  0.94480000  0.27060000  1
  H  H173  1  0.07340000  0.89780000  0.00700000  1
  H  H174  1  0.92150000  0.24840000  0.86550000  1
  H  H175  1  0.72940000  0.57040000  0.67420000  1
  H  H176  1  0.62280000  0.75640000  0.57060000  1
  H  H177  1  0.42300000  0.32620000  0.41300000  1
  H  H178  1  0.67270000  0.40270000  0.66560000  1
  H  H179  1  0.60920000  0.67560000  0.60220000  1
  W  W180  1  0.75000000  0.62500000  0.87500000  1
  W  W181  1  0.87500000  0.25000000  0.12500000  1
  W  W182  1  0.25000000  0.87500000  0.62500000  1
  W  W183  1  0.12500000  0.37500000  0.75000000  1
  W  W184  1  0.62500000  0.75000000  0.37500000  1
  W  W185  1  0.37500000  0.12500000  0.25000000  1
  C  C186  1  0.47000000  0.02180000  0.47220000  1
  C  C187  1  0.32980000  0.88480000  0.33660000  1
  C  C188  1  0.52780000  0.49780000  0.54960000  1
  C  C189  1  0.15381000  0.93281000  0.17880000  1
  C  C190  1  0.78890000  0.44790000  0.81660000  1
  C  C191  1  0.00220000  0.05180000  0.03000000  1
  C  C192  1  0.06150000  0.16810000  0.09140000  1
  C  C193  1  0.94820000  0.95040000  0.97820000  1
  C  C194  1  0.88210000  0.83700000  0.91750000  1
  C  C195  1  0.40080000  0.11450000  0.44450000  1
  C  C196  1  0.91950000  0.58250000  0.96460000  1
  C  C197  1  0.33660000  0.82980000  0.38480000  1
  C  C198  1  0.47220000  0.97000000  0.52180000  1
  C  C199  1  0.97000000  0.47220000  0.02180000  1
  C  C200  1  0.15900000  0.02770000  0.21110000  1
  C  C201  1  0.82980000  0.33660000  0.88480000  1
  C  C202  1  0.04370000  0.21370000  0.09920000  1
  C  C203  1  0.40860000  0.07670000  0.47010000  1
  C  C204  1  0.09200000  0.92160000  0.15760000  1
  C  C205  1  0.25401000  0.97501000  0.32120000  1
  C  C206  1  0.52990000  0.43850000  0.60660000  1
  C  C207  1  0.26400000  0.93440000  0.34240000  1
  C  C208  1  0.95490000  0.11790000  0.03540000  1
  C  C209  1  0.58050000  0.54510000  0.66300000  1
  C  C210  1  0.83190000  0.89340000  0.92330000  1
  C  C211  1  0.34240000  0.76400000  0.43440000  1
  C  C212  1  0.78630000  0.83000000  0.88550000  1
  C  C213  1  0.47010000  0.90860000  0.57670000  1
  C  C214  1  0.55550000  0.45630000  0.67000000  1
  C  C215  1  0.04820000  0.99320000  0.16340000  1
  C  C216  1  0.96460000  0.41950000  0.08250000  1
  C  C217  1  0.81660000  0.28890000  0.94790000  1
  C  C218  1  0.32120000  0.75401000  0.47501000  1
  C  C219  1  0.07840000  0.17040000  0.23600000  1
  C  C220  1  0.28890000  0.81660000  0.44790000  1
  C  C221  1  0.41950000  0.96460000  0.58250000  1
  C  C222  1  0.00680000  0.05500000  0.17020000  1
  C  C223  1  0.90860000  0.47010000  0.07670000  1
  C  C224  1  0.44450000  0.90080000  0.61450000  1
  C  C225  1  0.94500000  0.95180000  0.11520000  1
  C  C226  1  0.76400000  0.34240000  0.93440000  1
  C  C227  1  0.06719000  0.22100000  0.24599000  1
  C  C228  1  0.86870000  0.84100000  0.05210000  1
  C  C229  1  0.97230000  0.13130000  0.18340000  1
  C  C230  1  0.90080000  0.44450000  0.11450000  1
  C  C231  1  0.75401000  0.32120000  0.97501000  1
  C  C232  1  0.82960000  0.90800000  0.06560000  1
  C  C233  1  0.77900000  0.84619000  0.02499000  1
  C  C234  1  0.17880000  0.65381000  0.43281000  1
  C  C235  1  0.15760000  0.59200000  0.42160000  1
  C  C236  1  0.65381000  0.17880000  0.93281000  1
  C  C237  1  0.67000000  0.05550000  0.95630000  1
  C  C238  1  0.05210000  0.36870000  0.34100000  1
  C  C239  1  0.21110000  0.65900000  0.52770000  1
  C  C240  1  0.02499000  0.27900000  0.34619000  1
  C  C241  1  0.59200000  0.15760000  0.92160000  1
  C  C242  1  0.16340000  0.54820000  0.49320000  1
  C  C243  1  0.71370000  0.59920000  0.04370000  1
  C  C244  1  0.60660000  0.02990000  0.93850000  1
  C  C245  1  0.11520000  0.44500000  0.45180000  1
  C  C246  1  0.61790000  0.53540000  0.95490000  1
  C  C247  1  0.63130000  0.68340000  0.97230000  1
  C  C248  1  0.06560000  0.32960000  0.40800000  1
  C  C249  1  0.72100000  0.74599000  0.06719000  1
  C  C250  1  0.65900000  0.21110000  0.02770000  1
  C  C251  1  0.66300000  0.08050000  0.04510000  1
  C  C252  1  0.17020000  0.50680000  0.55500000  1
  C  C253  1  0.21370000  0.04370000  0.59920000  1
  C  C254  1  0.66810000  0.59140000  0.06150000  1
  C  C255  1  0.05550000  0.67000000  0.45630000  1
  C  C256  1  0.67040000  0.73600000  0.07840000  1
  C  C257  1  0.02990000  0.60660000  0.43850000  1
  C  C258  1  0.11790000  0.95490000  0.53540000  1
  C  C259  1  0.91750000  0.38210000  0.33700000  1
  C  C260  1  0.40800000  0.56560000  0.82960000  1
  C  C261  1  0.16810000  0.06150000  0.59140000  1
  C  C262  1  0.34619000  0.52499000  0.77900000  1
  C  C263  1  0.23600000  0.57840000  0.67040000  1
  C  C264  1  0.39340000  0.42330000  0.83190000  1
  C  C265  1  0.88550000  0.28630000  0.33000000  1
  C  C266  1  0.54820000  0.16340000  0.99320000  1
  C  C267  1  0.18340000  0.47230000  0.63130000  1
  C  C268  1  0.54960000  0.02780000  0.99780000  1
  C  C269  1  0.55180000  0.53000000  0.00220000  1
  C  C270  1  0.55500000  0.67020000  0.00680000  1
  C  C271  1  0.38210000  0.91750000  0.83700000  1
  C  C272  1  0.33000000  0.38550000  0.78630000  1
  C  C273  1  0.08050000  0.66300000  0.54510000  1
  C  C274  1  0.02780000  0.54960000  0.49780000  1
  C  C275  1  0.92330000  0.33190000  0.39340000  1
  C  C276  1  0.97820000  0.44820000  0.45040000  1
  C  C277  1  0.36870000  0.05210000  0.84100000  1
  C  C278  1  0.24599000  0.56719000  0.72100000  1
  C  C279  1  0.05180000  0.00220000  0.53000000  1
  C  C280  1  0.45180000  0.61520000  0.94500000  1
  C  C281  1  0.45040000  0.47820000  0.94820000  1
  C  C282  1  0.44820000  0.97820000  0.95040000  1
  C  C283  1  0.44500000  0.11520000  0.95180000  1
  C  C284  1  0.03000000  0.50220000  0.55180000  1
  C  C285  1  0.22100000  0.06719000  0.74599000  1
  C  C286  1  0.34100000  0.55210000  0.86870000  1
  C  C287  1  0.95040000  0.94820000  0.47820000  1
  C  C288  1  0.89340000  0.83190000  0.42330000  1
  C  C289  1  0.99780000  0.04960000  0.52780000  1
  C  C290  1  0.04510000  0.16300000  0.58050000  1
  C  C291  1  0.28630000  0.88550000  0.83000000  1
  C  C292  1  0.33700000  0.41750000  0.88210000  1
  C  C293  1  0.50680000  0.17020000  0.05500000  1
  C  C294  1  0.50220000  0.03000000  0.05180000  1
  C  C295  1  0.49780000  0.52780000  0.04960000  1
  C  C296  1  0.13130000  0.97230000  0.68340000  1
  C  C297  1  0.49320000  0.66340000  0.04820000  1
  C  C298  1  0.83000000  0.78630000  0.38550000  1
  C  C299  1  0.33190000  0.92330000  0.89340000  1
  C  C300  1  0.17040000  0.07840000  0.73600000  1
  C  C301  1  0.27900000  0.02499000  0.84619000  1
  C  C302  1  0.09140000  0.56150000  0.66810000  1
  C  C303  1  0.32960000  0.06560000  0.90800000  1
  C  C304  1  0.83700000  0.88210000  0.41750000  1
  C  C305  1  0.03540000  0.45490000  0.61790000  1
  C  C306  1  0.93850000  0.10660000  0.52990000  1
  C  C307  1  0.57840000  0.23600000  0.17040000  1
  C  C308  1  0.95630000  0.17000000  0.55550000  1
  C  C309  1  0.56150000  0.09140000  0.16810000  1
  C  C310  1  0.09920000  0.54370000  0.71370000  1
  C  C311  1  0.05500000  0.00680000  0.67020000  1
  C  C312  1  0.54510000  0.58050000  0.16300000  1
  C  C313  1  0.52770000  0.71110000  0.15900000  1
  C  C314  1  0.56719000  0.24599000  0.22100000  1
  C  C315  1  0.90800000  0.82960000  0.56560000  1
  C  C316  1  0.47230000  0.18340000  0.13130000  1
  C  C317  1  0.45490000  0.03540000  0.11790000  1
  C  C318  1  0.95180000  0.94500000  0.61520000  1
  C  C319  1  0.43850000  0.52990000  0.10660000  1
  C  C320  1  0.54370000  0.09920000  0.21370000  1
  C  C321  1  0.99320000  0.04820000  0.66340000  1
  C  C322  1  0.42160000  0.65760000  0.09200000  1
  C  C323  1  0.84619000  0.77900000  0.52499000  1
  C  C324  1  0.02770000  0.15900000  0.71110000  1
  C  C325  1  0.84100000  0.86870000  0.55210000  1
  C  C326  1  0.45630000  0.55550000  0.17000000  1
  C  C327  1  0.43281000  0.67880000  0.15381000  1
  C  C328  1  0.92160000  0.09200000  0.65760000  1
  C  C329  1  0.93281000  0.15381000  0.67880000  1
  C  C330  1  0.52499000  0.34619000  0.27900000  1
  C  C331  1  0.56560000  0.40800000  0.32960000  1
  C  C332  1  0.47501000  0.82120000  0.25401000  1
  C  C333  1  0.61450000  0.94450000  0.40080000  1
  C  C334  1  0.68340000  0.63130000  0.47230000  1
  C  C335  1  0.55210000  0.34100000  0.36870000  1
  C  C336  1  0.74599000  0.72100000  0.56719000  1
  C  C337  1  0.43440000  0.84240000  0.26400000  1
  C  C338  1  0.61520000  0.45180000  0.44500000  1
  C  C339  1  0.11450000  0.40080000  0.94450000  1
  C  C340  1  0.57670000  0.97010000  0.40860000  1
  C  C341  1  0.67020000  0.55500000  0.50680000  1
  C  C342  1  0.08250000  0.46460000  0.91950000  1
  C  C343  1  0.94790000  0.31660000  0.78890000  1
  C  C344  1  0.73600000  0.67040000  0.57840000  1
  C  C345  1  0.97501000  0.25401000  0.82120000  1
  C  C346  1  0.44790000  0.78890000  0.31660000  1
  C  C347  1  0.58250000  0.91950000  0.46460000  1
  C  C348  1  0.66340000  0.49320000  0.54820000  1
  C  C349  1  0.17000000  0.95630000  0.05550000  1
  C  C350  1  0.07670000  0.40860000  0.97010000  1
  C  C351  1  0.38550000  0.33000000  0.28630000  1
  C  C352  1  0.93440000  0.26400000  0.84240000  1
  C  C353  1  0.42330000  0.39340000  0.33190000  1
  C  C354  1  0.16300000  0.04510000  0.08050000  1
  C  C355  1  0.53540000  0.61790000  0.45490000  1
  C  C356  1  0.84240000  0.43440000  0.76400000  1
  C  C357  1  0.10660000  0.93850000  0.02990000  1
  C  C358  1  0.82120000  0.47501000  0.75401000  1
  C  C359  1  0.65760000  0.42160000  0.59200000  1
  C  C360  1  0.97010000  0.57670000  0.90860000  1
  C  C361  1  0.59920000  0.71370000  0.54370000  1
  C  C362  1  0.38480000  0.83660000  0.32980000  1
  C  C363  1  0.71110000  0.52770000  0.65900000  1
  C  C364  1  0.52180000  0.97220000  0.47000000  1
  C  C365  1  0.02180000  0.47000000  0.97220000  1
  C  C366  1  0.88480000  0.32980000  0.83660000  1
  C  C367  1  0.46460000  0.08250000  0.41950000  1
  C  C368  1  0.94450000  0.61450000  0.90080000  1
  C  C369  1  0.41750000  0.33700000  0.38210000  1
  C  C370  1  0.47820000  0.45040000  0.44820000  1
  C  C371  1  0.59140000  0.66810000  0.56150000  1
  C  C372  1  0.53000000  0.55180000  0.50220000  1
  C  C373  1  0.31660000  0.94790000  0.28890000  1
  C  C374  1  0.67880000  0.43281000  0.65381000  1
  C  C375  1  0.04960000  0.99780000  0.02780000  1
  C  C376  1  0.83660000  0.38480000  0.82980000  1
  C  C377  1  0.97220000  0.52180000  0.97000000  1
  S  S378  1  0.81471000  0.64321000  0.83624000  1
  S  S379  1  0.68529000  0.52153000  0.82850000  1
  S  S380  1  0.69303000  0.67150000  0.85679000  1
  S  S381  1  0.80697000  0.66376000  0.97847000  1
  S  S382  1  0.97847000  0.30697000  0.16376000  1
  S  S383  1  0.82850000  0.18529000  0.02153000  1
  S  S384  1  0.83624000  0.31471000  0.14321000  1
  S  S385  1  0.85679000  0.19303000  0.17150000  1
  S  S386  1  0.31471000  0.83624000  0.64321000  1
  S  S387  1  0.18529000  0.82850000  0.52153000  1
  S  S388  1  0.30697000  0.97847000  0.66376000  1
  S  S389  1  0.19303000  0.85679000  0.67150000  1
  S  S390  1  0.17150000  0.35679000  0.69303000  1
  S  S391  1  0.16376000  0.47847000  0.80697000  1
  S  S392  1  0.02153000  0.32850000  0.68529000  1
  S  S393  1  0.14321000  0.33624000  0.81471000  1
  S  S394  1  0.67150000  0.69303000  0.35679000  1
  S  S395  1  0.64321000  0.81471000  0.33624000  1
  S  S396  1  0.52153000  0.68529000  0.32850000  1
  S  S397  1  0.66376000  0.80697000  0.47847000  1
  S  S398  1  0.47847000  0.16376000  0.30697000  1
  S  S399  1  0.35679000  0.17150000  0.19303000  1
  S  S400  1  0.32850000  0.02153000  0.18529000  1
  S  S401  1  0.33624000  0.14321000  0.31471000  1
  I  I402  1  0.71913000  0.69303000  0.71984000  1
  I  I403  1  0.97319000  0.78016000  0.99929000  1
  I  I404  1  0.97390000  0.28087000  0.00071000  1
  I  I405  1  0.78087000  0.50071000  0.97390000  1
  I  I406  1  0.80697000  0.02681000  0.02610000  1
  I  I407  1  0.28087000  0.97390000  0.50071000  1
  I  I408  1  0.52681000  0.52610000  0.80697000  1
  I  I409  1  0.99929000  0.47319000  0.28016000  1
  I  I410  1  0.47319000  0.99929000  0.78016000  1
  I  I411  1  0.71984000  0.21913000  0.19303000  1
  I  I412  1  0.21913000  0.71984000  0.69303000  1
  I  I413  1  0.02681000  0.80697000  0.52610000  1
  I  I414  1  0.02610000  0.30697000  0.52681000  1
  I  I415  1  0.19303000  0.21984000  0.71913000  1
  I  I416  1  0.69303000  0.71913000  0.21984000  1
  I  I417  1  0.28016000  0.49929000  0.97319000  1
  I  I418  1  0.78016000  0.97319000  0.49929000  1
  I  I419  1  0.30697000  0.02610000  0.02681000  1
  I  I420  1  0.00071000  0.47390000  0.78087000  1
  I  I421  1  0.52610000  0.52681000  0.30697000  1
  I  I422  1  0.47390000  0.00071000  0.28087000  1
  I  I423  1  0.50071000  0.78087000  0.47390000  1
  I  I424  1  0.49929000  0.28016000  0.47319000  1
  I  I425  1  0.21984000  0.19303000  0.21913000  1
  N  N426  1  0.28703000  0.98356000  0.28909000  1
  N  N427  1  0.49174000  0.43844000  0.49498000  1
  N  N428  1  0.00324000  0.44670000  0.00826000  1
  N  N429  1  0.44865000  0.05692000  0.45529000  1
  N  N430  1  0.86760000  0.31430000  0.87430000  1
  N  N431  1  0.55330000  0.55654000  0.56156000  1
  N  N432  1  0.19447000  0.99794000  0.21091000  1
  N  N433  1  0.30213000  0.91713000  0.32194000  1
  N  N434  1  0.91287000  0.61834000  0.93455000  1
  N  N435  1  0.00664000  0.10827000  0.05135000  1
  N  N436  1  0.89173000  0.89837000  0.94308000  1
  N  N437  1  0.94346000  0.00502000  0.99676000  1
  N  N438  1  0.81430000  0.37430000  0.86760000  1
  N  N439  1  0.94670000  0.50826000  0.00324000  1
  N  N440  1  0.54471000  0.49336000  0.60163000  1
  N  N441  1  0.31430000  0.86760000  0.37430000  1
  N  N442  1  0.44670000  0.00324000  0.50826000  1
  N  N443  1  0.81621000  0.79453000  0.88166000  1
  N  N444  1  0.09519000  0.98019000  0.17806000  1
  N  N445  1  0.97832000  0.18379000  0.06545000  1
  N  N446  1  0.32194000  0.80213000  0.41713000  1
  N  N447  1  0.45529000  0.94865000  0.55692000  1
  N  N448  1  0.94865000  0.45529000  0.05692000  1
  N  N449  1  0.80213000  0.32194000  0.91713000  1
  N  N450  1  0.58713000  0.52168000  0.70547000  1
  N  N451  1  0.06000000  0.05330000  0.18570000  1
  N  N452  1  0.99330000  0.94000000  0.12570000  1
  N  N453  1  0.01981000  0.11500000  0.19787000  1
  N  N454  1  0.93455000  0.41287000  0.11834000  1
  N  N455  1  0.94670000  0.00670000  0.13240000  1
  N  N456  1  0.28909000  0.78703000  0.48356000  1
  N  N457  1  0.78703000  0.28909000  0.98356000  1
  N  N458  1  0.88500000  0.90481000  0.08287000  1
  N  N459  1  0.41287000  0.93455000  0.61834000  1
  N  N460  1  0.00206000  0.19653000  0.21297000  1
  N  N461  1  0.80347000  0.80553000  0.01644000  1
  N  N462  1  0.21091000  0.69447000  0.49794000  1
  N  N463  1  0.01644000  0.30347000  0.30553000  1
  N  N464  1  0.68379000  0.56545000  0.97832000  1
  N  N465  1  0.17806000  0.59519000  0.48019000  1
  N  N466  1  0.69447000  0.21091000  0.99794000  1
  N  N467  1  0.69653000  0.71297000  0.00206000  1
  N  N468  1  0.12570000  0.49330000  0.44000000  1
  N  N469  1  0.70547000  0.08713000  0.02168000  1
  N  N470  1  0.08287000  0.38500000  0.40481000  1
  N  N471  1  0.18570000  0.56000000  0.55330000  1
  N  N472  1  0.13240000  0.44670000  0.50670000  1
  N  N473  1  0.18379000  0.97832000  0.56545000  1
  N  N474  1  0.59519000  0.17806000  0.98019000  1
  N  N475  1  0.60163000  0.04471000  0.99336000  1
  N  N476  1  0.60827000  0.55135000  0.00664000  1
  N  N477  1  0.61500000  0.69787000  0.01981000  1
  N  N478  1  0.88166000  0.31621000  0.29453000  1
  N  N479  1  0.19787000  0.51981000  0.61500000  1
  N  N480  1  0.08713000  0.70547000  0.52168000  1
  N  N481  1  0.50502000  0.49676000  0.94346000  1
  N  N482  1  0.50670000  0.63240000  0.94670000  1
  N  N483  1  0.10827000  0.00664000  0.55135000  1
  N  N484  1  0.49498000  0.99174000  0.93844000  1
  N  N485  1  0.99174000  0.49498000  0.43844000  1
  N  N486  1  0.49330000  0.12570000  0.94000000  1
  N  N487  1  0.04471000  0.60163000  0.49336000  1
  N  N488  1  0.94308000  0.39173000  0.39837000  1
  N  N489  1  0.31621000  0.88166000  0.79453000  1
  N  N490  1  0.40481000  0.58287000  0.88500000  1
  N  N491  1  0.21297000  0.50206000  0.69653000  1
  N  N492  1  0.00502000  0.94346000  0.49676000  1
  N  N493  1  0.56000000  0.18570000  0.05330000  1
  N  N494  1  0.39837000  0.44308000  0.89173000  1
  N  N495  1  0.56156000  0.05330000  0.05654000  1
  N  N496  1  0.05654000  0.06156000  0.55330000  1
  N  N497  1  0.30553000  0.51644000  0.80347000  1
  N  N498  1  0.30347000  0.01644000  0.80553000  1
  N  N499  1  0.05330000  0.56156000  0.55654000  1
  N  N500  1  0.55654000  0.55330000  0.06156000  1
  N  N501  1  0.39173000  0.94308000  0.89837000  1
  N  N502  1  0.55330000  0.68570000  0.06000000  1
  N  N503  1  0.99676000  0.44346000  0.50502000  1
  N  N504  1  0.19653000  0.00206000  0.71297000  1
  N  N505  1  0.38500000  0.08287000  0.90481000  1
  N  N506  1  0.29453000  0.38166000  0.81621000  1
  N  N507  1  0.89837000  0.89173000  0.44308000  1
  N  N508  1  0.99336000  0.10163000  0.54471000  1
  N  N509  1  0.93844000  0.99498000  0.49174000  1
  N  N510  1  0.44000000  0.62570000  0.99330000  1
  N  N511  1  0.43844000  0.49174000  0.99498000  1
  N  N512  1  0.05135000  0.50664000  0.60827000  1
  N  N513  1  0.44670000  0.13240000  0.00670000  1
  N  N514  1  0.44346000  0.99676000  0.00502000  1
  N  N515  1  0.02168000  0.20547000  0.58713000  1
  N  N516  1  0.11500000  0.01981000  0.69787000  1
  N  N517  1  0.79453000  0.81621000  0.38166000  1
  N  N518  1  0.51981000  0.19787000  0.11500000  1
  N  N519  1  0.50664000  0.05135000  0.10827000  1
  N  N520  1  0.49336000  0.54471000  0.10163000  1
  N  N521  1  0.48019000  0.67806000  0.09519000  1
  N  N522  1  0.06545000  0.47832000  0.68379000  1
  N  N523  1  0.00670000  0.94670000  0.63240000  1
  N  N524  1  0.05330000  0.06000000  0.68570000  1
  N  N525  1  0.90481000  0.88500000  0.58287000  1
  N  N526  1  0.52168000  0.58713000  0.20547000  1
  N  N527  1  0.94000000  0.99330000  0.62570000  1
  N  N528  1  0.50206000  0.21297000  0.19653000  1
  N  N529  1  0.49794000  0.71091000  0.19447000  1
  N  N530  1  0.98019000  0.09519000  0.67806000  1
  N  N531  1  0.47832000  0.06545000  0.18379000  1
  N  N532  1  0.80553000  0.80347000  0.51644000  1
  N  N533  1  0.99794000  0.19447000  0.71091000  1
  N  N534  1  0.51644000  0.30553000  0.30347000  1
  N  N535  1  0.71297000  0.69653000  0.50206000  1
  N  N536  1  0.11834000  0.43455000  0.91287000  1
  N  N537  1  0.58287000  0.40481000  0.38500000  1
  N  N538  1  0.48356000  0.78909000  0.28703000  1
  N  N539  1  0.98356000  0.28703000  0.78909000  1
  N  N540  1  0.63240000  0.50670000  0.44670000  1
  N  N541  1  0.61834000  0.91287000  0.43455000  1
  N  N542  1  0.69787000  0.61500000  0.51981000  1
  N  N543  1  0.62570000  0.44000000  0.49330000  1
  N  N544  1  0.68570000  0.55330000  0.56000000  1
  N  N545  1  0.20547000  0.02168000  0.08713000  1
  N  N546  1  0.41713000  0.82194000  0.30213000  1
  N  N547  1  0.55692000  0.95529000  0.44865000  1
  N  N548  1  0.05692000  0.44865000  0.95529000  1
  N  N549  1  0.91713000  0.30213000  0.82194000  1
  N  N550  1  0.56545000  0.68379000  0.47832000  1
  N  N551  1  0.67806000  0.48019000  0.59519000  1
  N  N552  1  0.38166000  0.29453000  0.31621000  1
  N  N553  1  0.00826000  0.50324000  0.94670000  1
  N  N554  1  0.87430000  0.36760000  0.81430000  1
  N  N555  1  0.10163000  0.99336000  0.04471000  1
  N  N556  1  0.50324000  0.00826000  0.44670000  1
  N  N557  1  0.49676000  0.50502000  0.44346000  1
  N  N558  1  0.36760000  0.87430000  0.31430000  1
  N  N559  1  0.44308000  0.39837000  0.39173000  1
  N  N560  1  0.55135000  0.60827000  0.50664000  1
  N  N561  1  0.43455000  0.11834000  0.41287000  1
  N  N562  1  0.82194000  0.41713000  0.80213000  1
  N  N563  1  0.71091000  0.49794000  0.69447000  1
  N  N564  1  0.06156000  0.05654000  0.05330000  1
  N  N565  1  0.37430000  0.81430000  0.36760000  1
  N  N566  1  0.95529000  0.55692000  0.94865000  1
  N  N567  1  0.50826000  0.94670000  0.50324000  1
  N  N568  1  0.99498000  0.93844000  0.99174000  1
  N  N569  1  0.78909000  0.48356000  0.78703000  1
