# generated using pymatgen
data_CuH9C18N3O4
_symmetry_space_group_name_H-M   'P 1'
_cell_length_a   36.78760000
_cell_length_b   36.78760000
_cell_length_c   37.71507853
_cell_angle_alpha   119.19018796
_cell_angle_beta   119.18939773
_cell_angle_gamma   90.00000000
_symmetry_Int_Tables_number   1
_chemical_formula_structural   CuH9C18N3O4
_chemical_formula_sum   'Cu24 H216 C432 N72 O96'
_cell_volume   36957.57284098
_cell_formula_units_Z   24
loop_
 _symmetry_equiv_pos_site_id
 _symmetry_equiv_pos_as_xyz
  1  'x, y, z'
loop_
 _atom_site_type_symbol
 _atom_site_label
 _atom_site_symmetry_multiplicity
 _atom_site_fract_x
 _atom_site_fract_y
 _atom_site_fract_z
 _atom_site_occupancy
  Cu  Cu0  1  0.44557000  0.17582000  0.72378000  1
  Cu  Cu1  1  0.40057000  0.22961000  1.00000000  1
  Cu  Cu2  1  0.45834000  0.25688000  0.79206000  1
  Cu  Cu3  1  0.17582000  0.27821000  0.72378000  1
  Cu  Cu4  1  0.42499000  0.29762000  1.00000000  1
  Cu  Cu5  1  0.25688000  0.33372000  0.79206000  1
  Cu  Cu6  1  0.77039000  0.40057000  1.00000000  1
  Cu  Cu7  1  0.70238000  0.42499000  1.00000000  1
  Cu  Cu8  1  0.54796000  0.44557000  0.72378000  1
  Cu  Cu9  1  0.72179000  0.45204000  0.27622000  1
  Cu  Cu10  1  0.53518000  0.45834000  0.79206000  1
  Cu  Cu11  1  0.66628000  0.46482000  0.20794000  1
  Cu  Cu12  1  0.33372000  0.53518000  0.79206000  1
  Cu  Cu13  1  0.46482000  0.54166000  0.20794000  1
  Cu  Cu14  1  0.27821000  0.54796000  0.72378000  1
  Cu  Cu15  1  0.45204000  0.55443000  0.27622000  1
  Cu  Cu16  1  0.29762000  0.57501000  1.00000000  1
  Cu  Cu17  1  0.22961000  0.59943000  1.00000000  1
  Cu  Cu18  1  0.74312000  0.66628000  0.20794000  1
  Cu  Cu19  1  0.57501000  0.70238000  1.00000000  1
  Cu  Cu20  1  0.82418000  0.72179000  0.27622000  1
  Cu  Cu21  1  0.54166000  0.74312000  0.20794000  1
  Cu  Cu22  1  0.59943000  0.77039000  1.00000000  1
  Cu  Cu23  1  0.55443000  0.82418000  0.27622000  1
  H  H24  1  0.09630000  0.00400000  0.72380000  1
  H  H25  1  0.88800000  0.01140000  0.57460000  1
  H  H26  1  0.24070000  0.01480000  0.48060000  1
  H  H27  1  0.51290000  0.01590000  0.77720000  1
  H  H28  1  0.78440000  0.03110000  0.20900000  1
  H  H29  1  0.45990000  0.03710000  0.25940000  1
  H  H30  1  0.22220000  0.03730000  0.80100000  1
  H  H31  1  0.51670000  0.04860000  0.18020000  1
  H  H32  1  0.77150000  0.05300000  0.58460000  1
  H  H33  1  0.47620000  0.06410000  0.80000000  1
  H  H34  1  0.90730000  0.06630000  0.30700000  1
  H  H35  1  0.25470000  0.07730000  0.55040000  1
  H  H36  1  0.90160000  0.07970000  0.64400000  1
  H  H37  1  0.78510000  0.09020000  0.22500000  1
  H  H38  1  0.75930000  0.09270000  0.69300000  1
  H  H39  1  0.79070000  0.09320000  0.65700000  1
  H  H40  1  0.71980000  0.09630000  0.72380000  1
  H  H41  1  0.43570000  0.09840000  0.35600000  1
  H  H42  1  0.47620000  0.10340000  0.32320000  1
  H  H43  1  0.49460000  0.10460000  0.21800000  1
  H  H44  1  0.23010000  0.10620000  0.82460000  1
  H  H45  1  0.43680000  0.11200000  0.42540000  1
  H  H46  1  0.72340000  0.11340000  0.21800000  1
  H  H47  1  0.45230000  0.11550000  0.79880000  1
  H  H48  1  0.66350000  0.13160000  0.18020000  1
  H  H49  1  0.90680000  0.13370000  0.34300000  1
  H  H50  1  0.30440000  0.13450000  0.62760000  1
  H  H51  1  0.43990000  0.13480000  0.22500000  1
  H  H52  1  0.43800000  0.13550000  0.90700000  1
  H  H53  1  0.89660000  0.15300000  0.67680000  1
  H  H54  1  0.20100000  0.17400000  0.62700000  1
  H  H55  1  0.42460000  0.17790000  0.20900000  1
  H  H56  1  0.26820000  0.18110000  0.88360000  1
  H  H57  1  0.58060000  0.18170000  0.77620000  1
  H  H58  1  0.94700000  0.18690000  0.41540000  1
  H  H59  1  0.18170000  0.19560000  0.77620000  1
  H  H60  1  0.96290000  0.20050000  0.74060000  1
  H  H61  1  0.45300000  0.20100000  0.62700000  1
  H  H62  1  0.43620000  0.20930000  0.34300000  1
  H  H63  1  0.86520000  0.21490000  0.77500000  1
  H  H64  1  0.82210000  0.21560000  0.79100000  1
  H  H65  1  0.84700000  0.21980000  0.32320000  1
  H  H66  1  0.76370000  0.22220000  0.80100000  1
  H  H67  1  0.79950000  0.22230000  0.25940000  1
  H  H68  1  0.43590000  0.22840000  0.88000000  1
  H  H69  1  0.53100000  0.22850000  0.09300000  1
  H  H70  1  0.46840000  0.22850000  0.41540000  1
  H  H71  1  0.71840000  0.23010000  0.82460000  1
  H  H72  1  0.42120000  0.23630000  0.19900000  1
  H  H73  1  0.73570000  0.23870000  0.22280000  1
  H  H74  1  0.01480000  0.23990000  0.48060000  1
  H  H75  1  0.46580000  0.24070000  0.48060000  1
  H  H76  1  0.39970000  0.24070000  0.30700000  1
  H  H77  1  0.47310000  0.25470000  0.55040000  1
  H  H78  1  0.32600000  0.25470000  0.73920000  1
  H  H79  1  0.92030000  0.25760000  0.35600000  1
  H  H80  1  0.67620000  0.26410000  0.20000000  1
  H  H81  1  0.01590000  0.26430000  0.77720000  1
  H  H82  1  0.70250000  0.26820000  0.88360000  1
  H  H83  1  0.89540000  0.27660000  0.78200000  1
  H  H84  1  0.37250000  0.28020000  0.27620000  1
  H  H85  1  0.40550000  0.28160000  0.17540000  1
  H  H86  1  0.30110000  0.28630000  0.88520000  1
  H  H87  1  0.07730000  0.29570000  0.55040000  1
  H  H88  1  0.38460000  0.29750000  0.11640000  1
  H  H89  1  0.59890000  0.30110000  0.88520000  1
  H  H90  1  0.49310000  0.30440000  0.62760000  1
  H  H91  1  0.98860000  0.31340000  0.42540000  1
  H  H92  1  0.65350000  0.31670000  0.20120000  1
  H  H93  1  0.13450000  0.32320000  0.62760000  1
  H  H94  1  0.06410000  0.32380000  0.80000000  1
  H  H95  1  0.48450000  0.32600000  0.73920000  1
  H  H96  1  0.95140000  0.33650000  0.81980000  1
  H  H97  1  0.11550000  0.34650000  0.79880000  1
  H  H98  1  0.55590000  0.34840000  0.12000000  1
  H  H99  1  0.99600000  0.37250000  0.27620000  1
  H  H100  1  0.81890000  0.38460000  0.11640000  1
  H  H101  1  0.06630000  0.39970000  0.30700000  1
  H  H102  1  0.41590000  0.40110000  0.11480000  1
  H  H103  1  0.89380000  0.40550000  0.17540000  1
  H  H104  1  0.80440000  0.40550000  0.22380000  1
  H  H105  1  0.25470000  0.41320000  0.73920000  1
  H  H106  1  0.71370000  0.41590000  0.11480000  1
  H  H107  1  0.40550000  0.41940000  0.22380000  1
  H  H108  1  0.96270000  0.42120000  0.19900000  1
  H  H109  1  0.03110000  0.42460000  0.20900000  1
  H  H110  1  0.17400000  0.42600000  0.62700000  1
  H  H111  1  0.25760000  0.43570000  0.35600000  1
  H  H112  1  0.65160000  0.43590000  0.88000000  1
  H  H113  1  0.13370000  0.43620000  0.34300000  1
  H  H114  1  0.31340000  0.43680000  0.42540000  1
  H  H115  1  0.77150000  0.43800000  0.90700000  1
  H  H116  1  0.09020000  0.43990000  0.22500000  1
  H  H117  1  0.22840000  0.44410000  0.88000000  1
  H  H118  1  0.68330000  0.45230000  0.79880000  1
  H  H119  1  0.42600000  0.45300000  0.62700000  1
  H  H120  1  0.22230000  0.45990000  0.25940000  1
  H  H121  1  0.23990000  0.46580000  0.48060000  1
  H  H122  1  0.18690000  0.46840000  0.41540000  1
  H  H123  1  0.13550000  0.46900000  0.90700000  1
  H  H124  1  0.29570000  0.47310000  0.55040000  1
  H  H125  1  0.73590000  0.47620000  0.80000000  1
  H  H126  1  0.21980000  0.47620000  0.32320000  1
  H  H127  1  0.86840000  0.48330000  0.81980000  1
  H  H128  1  0.41320000  0.48450000  0.73920000  1
  H  H129  1  0.23870000  0.48710000  0.22280000  1
  H  H130  1  0.32320000  0.49310000  0.62760000  1
  H  H131  1  0.11340000  0.49460000  0.21800000  1
  H  H132  1  0.88660000  0.50540000  0.78200000  1
  H  H133  1  0.67680000  0.50690000  0.37240000  1
  H  H134  1  0.76130000  0.51290000  0.77720000  1
  H  H135  1  0.58680000  0.51550000  0.26080000  1
  H  H136  1  0.13160000  0.51670000  0.18020000  1
  H  H137  1  0.78020000  0.52380000  0.67680000  1
  H  H138  1  0.26410000  0.52380000  0.20000000  1
  H  H139  1  0.70430000  0.52690000  0.44960000  1
  H  H140  1  0.86450000  0.53100000  0.09300000  1
  H  H141  1  0.81310000  0.53160000  0.58460000  1
  H  H142  1  0.76010000  0.53420000  0.51940000  1
  H  H143  1  0.77770000  0.54010000  0.74060000  1
  H  H144  1  0.57400000  0.54700000  0.37300000  1
  H  H145  1  0.31670000  0.54770000  0.20120000  1
  H  H146  1  0.77160000  0.55590000  0.12000000  1
  H  H147  1  0.90980000  0.56010000  0.77500000  1
  H  H148  1  0.22850000  0.56200000  0.09300000  1
  H  H149  1  0.68660000  0.56320000  0.57460000  1
  H  H150  1  0.86630000  0.56380000  0.65700000  1
  H  H151  1  0.34840000  0.56410000  0.12000000  1
  H  H152  1  0.74240000  0.56430000  0.64400000  1
  H  H153  1  0.82600000  0.57400000  0.37300000  1
  H  H154  1  0.96890000  0.57540000  0.79100000  1
  H  H155  1  0.03730000  0.57880000  0.80100000  1
  H  H156  1  0.59450000  0.58060000  0.77620000  1
  H  H157  1  0.28630000  0.58410000  0.88520000  1
  H  H158  1  0.74530000  0.58680000  0.26080000  1
  H  H159  1  0.19560000  0.59450000  0.77620000  1
  H  H160  1  0.10620000  0.59450000  0.82460000  1
  H  H161  1  0.58410000  0.59890000  0.88520000  1
  H  H162  1  0.93370000  0.60030000  0.69300000  1
  H  H163  1  0.18110000  0.61540000  0.88360000  1
  H  H164  1  0.00400000  0.62750000  0.72380000  1
  H  H165  1  0.44410000  0.65160000  0.88000000  1
  H  H166  1  0.88450000  0.65350000  0.20120000  1
  H  H167  1  0.04860000  0.66350000  0.18020000  1
  H  H168  1  0.51550000  0.67400000  0.26080000  1
  H  H169  1  0.93590000  0.67620000  0.20000000  1
  H  H170  1  0.86550000  0.67680000  0.37240000  1
  H  H171  1  0.34650000  0.68330000  0.79880000  1
  H  H172  1  0.01140000  0.68660000  0.57460000  1
  H  H173  1  0.50690000  0.69560000  0.37240000  1
  H  H174  1  0.40110000  0.69890000  0.11480000  1
  H  H175  1  0.61540000  0.70250000  0.88360000  1
  H  H176  1  0.92270000  0.70430000  0.44960000  1
  H  H177  1  0.69890000  0.71370000  0.11480000  1
  H  H178  1  0.59450000  0.71840000  0.82460000  1
  H  H179  1  0.62750000  0.71980000  0.72380000  1
  H  H180  1  0.10460000  0.72340000  0.21800000  1
  H  H181  1  0.29750000  0.73180000  0.11640000  1
  H  H182  1  0.98410000  0.73570000  0.22280000  1
  H  H183  1  0.32380000  0.73590000  0.80000000  1
  H  H184  1  0.07970000  0.74240000  0.64400000  1
  H  H185  1  0.67400000  0.74530000  0.26080000  1
  H  H186  1  0.52690000  0.74530000  0.44960000  1
  H  H187  1  0.60030000  0.75930000  0.69300000  1
  H  H188  1  0.53420000  0.75930000  0.51940000  1
  H  H189  1  0.98520000  0.76010000  0.51940000  1
  H  H190  1  0.26430000  0.76130000  0.77720000  1
  H  H191  1  0.57880000  0.76370000  0.80100000  1
  H  H192  1  0.28160000  0.76990000  0.17540000  1
  H  H193  1  0.53160000  0.77150000  0.58460000  1
  H  H194  1  0.46900000  0.77150000  0.90700000  1
  H  H195  1  0.56410000  0.77160000  0.12000000  1
  H  H196  1  0.20050000  0.77770000  0.74060000  1
  H  H197  1  0.23630000  0.77780000  0.19900000  1
  H  H198  1  0.15300000  0.78020000  0.67680000  1
  H  H199  1  0.17790000  0.78440000  0.20900000  1
  H  H200  1  0.13480000  0.78510000  0.22500000  1
  H  H201  1  0.56380000  0.79070000  0.65700000  1
  H  H202  1  0.54700000  0.79900000  0.37300000  1
  H  H203  1  0.03710000  0.79950000  0.25940000  1
  H  H204  1  0.81830000  0.80440000  0.22380000  1
  H  H205  1  0.05300000  0.81310000  0.58460000  1
  H  H206  1  0.41940000  0.81830000  0.22380000  1
  H  H207  1  0.73180000  0.81890000  0.11640000  1
  H  H208  1  0.57540000  0.82210000  0.79100000  1
  H  H209  1  0.79900000  0.82600000  0.37300000  1
  H  H210  1  0.10340000  0.84700000  0.32320000  1
  H  H211  1  0.56200000  0.86450000  0.09300000  1
  H  H212  1  0.56010000  0.86520000  0.77500000  1
  H  H213  1  0.69560000  0.86550000  0.37240000  1
  H  H214  1  0.09320000  0.86630000  0.65700000  1
  H  H215  1  0.33650000  0.86840000  0.81980000  1
  H  H216  1  0.54770000  0.88450000  0.20120000  1
  H  H217  1  0.27660000  0.88660000  0.78200000  1
  H  H218  1  0.56320000  0.88800000  0.57460000  1
  H  H219  1  0.76990000  0.89380000  0.17540000  1
  H  H220  1  0.50540000  0.89540000  0.78200000  1
  H  H221  1  0.52380000  0.89660000  0.67680000  1
  H  H222  1  0.56430000  0.90160000  0.64400000  1
  H  H223  1  0.28020000  0.90370000  0.27620000  1
  H  H224  1  0.20930000  0.90680000  0.34300000  1
  H  H225  1  0.24070000  0.90730000  0.30700000  1
  H  H226  1  0.21490000  0.90980000  0.77500000  1
  H  H227  1  0.09840000  0.92030000  0.35600000  1
  H  H228  1  0.74530000  0.92270000  0.44960000  1
  H  H229  1  0.09270000  0.93370000  0.69300000  1
  H  H230  1  0.52380000  0.93590000  0.20000000  1
  H  H231  1  0.22850000  0.94700000  0.41540000  1
  H  H232  1  0.48330000  0.95140000  0.81980000  1
  H  H233  1  0.77780000  0.96270000  0.19900000  1
  H  H234  1  0.54010000  0.96290000  0.74060000  1
  H  H235  1  0.21560000  0.96890000  0.79100000  1
  H  H236  1  0.48710000  0.98410000  0.22280000  1
  H  H237  1  0.75930000  0.98520000  0.51940000  1
  H  H238  1  0.11200000  0.98860000  0.42540000  1
  H  H239  1  0.90370000  0.99600000  0.27620000  1
  C  C240  1  0.87730000  0.00340000  0.26720000  1
  C  C241  1  0.18053000  0.00393000  0.46466000  1
  C  C242  1  0.78789000  0.00571000  0.54262000  1
  C  C243  1  0.48945000  0.00985000  0.22290000  1
  C  C244  1  0.50758000  0.01357000  0.20096000  1
  C  C245  1  0.19387000  0.01620000  0.77934000  1
  C  C246  1  0.47080000  0.02012000  0.81660000  1
  C  C247  1  0.86453000  0.02112000  0.57604000  1
  C  C248  1  0.80873000  0.02673000  0.23026000  1
  C  C249  1  0.16098000  0.02815000  0.76096000  1
  C  C250  1  0.47388000  0.04172000  0.24576000  1
  C  C251  1  0.79551000  0.04486000  0.58312000  1
  C  C252  1  0.87910000  0.04500000  0.28300000  1
  C  C253  1  0.18902000  0.04569000  0.50838000  1
  C  C254  1  0.50710000  0.04693000  0.19880000  1
  C  C255  1  0.46816000  0.05622000  0.81632000  1
  C  C256  1  0.84405000  0.05993000  0.26770000  1
  C  C257  1  0.87259000  0.06070000  0.61800000  1
  C  C258  1  0.83691000  0.07139000  0.62038000  1
  C  C259  1  0.16590000  0.07347000  0.77380000  1
  C  C260  1  0.22705000  0.07707000  0.54614000  1
  C  C261  1  0.49370000  0.08077000  0.22140000  1
  C  C262  1  0.47927000  0.08077000  0.24794000  1
  C  C263  1  0.84457000  0.10383000  0.28114000  1
  C  C264  1  0.20154000  0.10611000  0.80426000  1
  C  C265  1  0.84714000  0.11325000  0.66710000  1
  C  C266  1  0.80990000  0.11339000  0.25560000  1
  C  C267  1  0.46367000  0.11640000  0.27314000  1
  C  C268  1  0.81684000  0.11710000  0.67780000  1
  C  C269  1  0.44685000  0.11941000  0.85142000  1
  C  C270  1  0.46424000  0.12081000  0.31108000  1
  C  C271  1  0.76200000  0.12090000  0.71700000  1
  C  C272  1  0.73620000  0.12270000  0.73280000  1
  C  C273  1  0.44270000  0.12741000  0.38200000  1
  C  C274  1  0.44804000  0.13347000  0.82406000  1
  C  C275  1  0.44508000  0.13547000  0.42396000  1
  C  C276  1  0.88290000  0.13904000  0.32220000  1
  C  C277  1  0.72770000  0.14063000  0.22140000  1
  C  C278  1  0.44570000  0.14221000  0.25560000  1
  C  C279  1  0.43924000  0.14541000  0.88846000  1
  C  C280  1  0.24913000  0.14832000  0.62142000  1
  C  C281  1  0.69170000  0.15187000  0.19880000  1
  C  C282  1  0.44615000  0.15286000  0.33290000  1
  C  C283  1  0.87919000  0.15316000  0.68892000  1
  C  C284  1  0.82269000  0.15543000  0.71886000  1
  C  C285  1  0.79223000  0.15595000  0.73230000  1
  C  C286  1  0.29353000  0.15601000  0.64286000  1
  C  C287  1  0.80947000  0.15674000  0.27314000  1
  C  C288  1  0.73281000  0.16098000  0.76096000  1
  C  C289  1  0.45101000  0.16309000  0.37962000  1
  C  C290  1  0.70033000  0.16590000  0.77380000  1
  C  C291  1  0.76867000  0.16717000  0.24794000  1
  C  C292  1  0.44318000  0.17340000  0.83354000  1
  C  C293  1  0.43657000  0.17731000  0.28114000  1
  C  C294  1  0.23171000  0.17936000  0.64244000  1
  C  C295  1  0.88675000  0.18004000  0.33290000  1
  C  C296  1  0.46073000  0.18053000  0.46466000  1
  C  C297  1  0.22093000  0.18257000  0.82666000  1
  C  C298  1  0.43930000  0.18316000  0.32220000  1
  C  C299  1  0.43371000  0.18475000  0.89692000  1
  C  C300  1  0.69338000  0.18739000  0.20096000  1
  C  C301  1  0.46269000  0.18902000  0.50838000  1
  C  C302  1  0.44572000  0.18983000  0.80522000  1
  C  C303  1  0.85779000  0.19010000  0.74440000  1
  C  C304  1  0.84684000  0.19027000  0.31108000  1
  C  C305  1  0.88360000  0.19053000  0.72686000  1
  C  C306  1  0.79647000  0.19127000  0.76974000  1
  C  C307  1  0.76314000  0.19387000  0.77934000  1
  C  C308  1  0.32251000  0.19549000  0.68708000  1
  C  C309  1  0.26110000  0.19737000  0.86912000  1
  C  C310  1  0.43733000  0.19982000  0.87174000  1
  C  C311  1  0.69815000  0.20154000  0.80426000  1
  C  C312  1  0.36978000  0.20341000  0.71198000  1
  C  C313  1  0.65420000  0.20352000  0.18340000  1
  C  C314  1  0.42153000  0.20353000  0.23026000  1
  C  C315  1  0.77188000  0.20404000  0.24576000  1
  C  C316  1  0.46174000  0.20449000  0.41688000  1
  C  C317  1  0.20972000  0.20626000  0.80544000  1
  C  C318  1  0.42365000  0.20777000  0.26770000  1
  C  C319  1  0.59918000  0.20972000  0.80544000  1
  C  C320  1  0.46309000  0.21211000  0.45738000  1
  C  C321  1  0.95514000  0.21239000  0.41688000  1
  C  C322  1  0.73345000  0.21305000  0.22290000  1
  C  C323  1  0.42478000  0.21333000  0.93456000  1
  C  C324  1  0.92861000  0.21653000  0.37962000  1
  C  C325  1  0.26172000  0.21906000  0.68764000  1
  C  C326  1  0.64409000  0.22093000  0.82666000  1
  C  C327  1  0.46907000  0.22705000  0.54614000  1
  C  C328  1  0.30634000  0.22741000  0.70932000  1
  C  C329  1  0.95828000  0.22812000  0.75424000  1
  C  C330  1  0.53351000  0.22936000  0.80214000  1
  C  C331  1  0.91923000  0.23133000  0.75206000  1
  C  C332  1  0.46308000  0.23171000  0.64244000  1
  C  C333  1  0.29058000  0.23537000  0.89024000  1
  C  C334  1  0.41453000  0.23686000  0.22066000  1
  C  C335  1  0.40390000  0.23800000  0.28300000  1
  C  C336  1  0.58178000  0.23900000  0.82670000  1
  C  C337  1  0.65184000  0.23990000  0.18368000  1
  C  C338  1  0.46029000  0.24242000  0.71206000  1
  C  C339  1  0.23900000  0.24492000  0.82670000  1
  C  C340  1  0.99429000  0.24527000  0.45738000  1
  C  C341  1  0.47310000  0.24913000  0.62142000  1
  C  C342  1  0.33675000  0.24954000  0.93348000  1
  C  C343  1  0.24242000  0.25177000  0.71206000  1
  C  C344  1  0.93930000  0.25459000  0.38200000  1
  C  C345  1  0.55078000  0.25695000  0.11154000  1
  C  C346  1  0.28026000  0.25964000  0.86996000  1
  C  C347  1  0.67175000  0.26110000  0.86912000  1
  C  C348  1  0.46858000  0.26172000  0.68764000  1
  C  C349  1  0.38990000  0.26380000  0.26720000  1
  C  C350  1  0.99015000  0.26655000  0.77710000  1
  C  C351  1  0.40002000  0.26719000  0.23904000  1
  C  C352  1  0.59543000  0.26799000  0.14858000  1
  C  C353  1  0.22936000  0.26863000  0.80214000  1
  C  C354  1  0.91923000  0.27230000  0.77860000  1
  C  C355  1  0.49022000  0.27877000  0.06544000  1
  C  C356  1  0.61032000  0.28026000  0.86996000  1
  C  C357  1  0.00393000  0.28413000  0.46466000  1
  C  C358  1  0.53679000  0.28783000  0.10308000  1
  C  C359  1  0.97888000  0.28849000  0.42396000  1
  C  C360  1  0.65487000  0.29058000  0.89024000  1
  C  C361  1  0.48685000  0.29353000  0.64286000  1
  C  C362  1  0.39210000  0.29967000  0.22620000  1
  C  C363  1  0.39728000  0.30185000  0.19574000  1
  C  C364  1  0.48191000  0.30634000  0.70932000  1
  C  C365  1  0.98643000  0.30662000  0.79904000  1
  C  C366  1  0.95307000  0.30830000  0.80120000  1
  C  C367  1  0.62398000  0.30941000  0.17594000  1
  C  C368  1  0.40327000  0.31606000  0.06652000  1
  C  C369  1  0.07707000  0.31909000  0.54614000  1
  C  C370  1  0.04569000  0.31936000  0.50838000  1
  C  C371  1  0.49159000  0.32251000  0.68708000  1
  C  C372  1  0.56559000  0.32808000  0.12826000  1
  C  C373  1  0.39198000  0.32825000  0.13088000  1
  C  C374  1  0.68394000  0.33675000  0.93348000  1
  C  C375  1  0.60964000  0.33986000  0.16646000  1
  C  C376  1  0.20341000  0.34220000  0.71198000  1
  C  C377  1  0.40034000  0.34513000  0.10976000  1
  C  C378  1  0.02012000  0.34580000  0.81660000  1
  C  C379  1  0.05622000  0.34816000  0.81632000  1
  C  C380  1  0.15601000  0.34933000  0.64286000  1
  C  C381  1  0.39427000  0.35591000  0.17334000  1
  C  C382  1  0.18983000  0.35950000  0.80522000  1
  C  C383  1  0.19549000  0.36457000  0.68708000  1
  C  C384  1  0.50857000  0.36978000  0.71198000  1
  C  C385  1  0.14832000  0.37229000  0.62142000  1
  C  C386  1  0.13347000  0.37602000  0.82406000  1
  C  C387  1  0.64050000  0.38461000  0.19478000  1
  C  C388  1  0.41030000  0.38968000  0.13004000  1
  C  C389  1  0.00340000  0.38990000  0.26720000  1
  C  C390  1  0.17340000  0.39036000  0.83354000  1
  C  C391  1  0.80263000  0.39198000  0.13088000  1
  C  C392  1  0.92653000  0.39210000  0.22620000  1
  C  C393  1  0.81743000  0.39427000  0.17334000  1
  C  C394  1  0.89389000  0.39728000  0.19574000  1
  C  C395  1  0.97185000  0.40002000  0.23904000  1
  C  C396  1  0.76463000  0.40034000  0.10976000  1
  C  C397  1  0.40428000  0.40082000  0.19456000  1
  C  C398  1  0.22741000  0.40298000  0.70932000  1
  C  C399  1  0.75046000  0.40327000  0.06652000  1
  C  C400  1  0.04500000  0.40390000  0.28300000  1
  C  C401  1  0.79374000  0.40428000  0.19456000  1
  C  C402  1  0.11941000  0.40457000  0.85142000  1
  C  C403  1  0.74036000  0.41030000  0.13004000  1
  C  C404  1  0.17936000  0.41073000  0.64244000  1
  C  C405  1  0.75508000  0.41230000  0.17330000  1
  C  C406  1  0.98380000  0.41453000  0.22066000  1
  C  C407  1  0.41230000  0.41822000  0.17330000  1
  C  C408  1  0.02673000  0.42153000  0.23026000  1
  C  C409  1  0.05993000  0.42365000  0.26770000  1
  C  C410  1  0.72123000  0.42478000  0.93456000  1
  C  C411  1  0.21906000  0.42592000  0.68764000  1
  C  C412  1  0.73137000  0.42722000  0.19786000  1
  C  C413  1  0.71217000  0.43371000  0.89692000  1
  C  C414  1  0.19982000  0.43441000  0.87174000  1
  C  C415  1  0.10383000  0.43657000  0.28114000  1
  C  C416  1  0.67192000  0.43733000  0.87174000  1
  C  C417  1  0.74305000  0.43924000  0.88846000  1
  C  C418  1  0.13904000  0.43930000  0.32220000  1
  C  C419  1  0.25459000  0.44270000  0.38200000  1
  C  C420  1  0.66014000  0.44318000  0.83354000  1
  C  C421  1  0.28849000  0.44508000  0.42396000  1
  C  C422  1  0.11339000  0.44570000  0.25560000  1
  C  C423  1  0.61539000  0.44572000  0.80522000  1
  C  C424  1  0.18004000  0.44615000  0.33290000  1
  C  C425  1  0.73201000  0.44685000  0.85142000  1
  C  C426  1  0.69059000  0.44804000  0.82406000  1
  C  C427  1  0.14541000  0.44922000  0.88846000  1
  C  C428  1  0.21653000  0.45101000  0.37962000  1
  C  C429  1  0.46964000  0.46029000  0.71206000  1
  C  C430  1  0.28413000  0.46073000  0.46466000  1
  C  C431  1  0.21239000  0.46174000  0.41688000  1
  C  C432  1  0.31936000  0.46269000  0.50838000  1
  C  C433  1  0.41073000  0.46308000  0.64244000  1
  C  C434  1  0.24527000  0.46309000  0.45738000  1
  C  C435  1  0.18475000  0.46321000  0.89692000  1
  C  C436  1  0.15674000  0.46367000  0.27314000  1
  C  C437  1  0.19027000  0.46424000  0.31108000  1
  C  C438  1  0.42722000  0.46649000  0.19786000  1
  C  C439  1  0.76010000  0.46816000  0.81632000  1
  C  C440  1  0.42592000  0.46858000  0.68764000  1
  C  C441  1  0.31909000  0.46907000  0.54614000  1
  C  C442  1  0.25177000  0.46964000  0.71206000  1
  C  C443  1  0.79648000  0.47080000  0.81660000  1
  C  C444  1  0.37229000  0.47310000  0.62142000  1
  C  C445  1  0.20404000  0.47388000  0.24576000  1
  C  C446  1  0.16717000  0.47927000  0.24794000  1
  C  C447  1  0.40298000  0.48191000  0.70932000  1
  C  C448  1  0.34933000  0.48685000  0.64286000  1
  C  C449  1  0.21305000  0.48945000  0.22290000  1
  C  C450  1  0.78667000  0.49022000  0.06544000  1
  C  C451  1  0.65780000  0.49143000  0.28802000  1
  C  C452  1  0.36457000  0.49159000  0.68708000  1
  C  C453  1  0.81261000  0.49242000  0.79904000  1
  C  C454  1  0.84813000  0.49290000  0.80120000  1
  C  C455  1  0.14063000  0.49370000  0.22140000  1
  C  C456  1  0.85937000  0.50630000  0.77860000  1
  C  C457  1  0.15187000  0.50710000  0.19880000  1
  C  C458  1  0.18739000  0.50758000  0.20096000  1
  C  C459  1  0.63543000  0.50841000  0.31292000  1
  C  C460  1  0.34220000  0.50857000  0.71198000  1
  C  C461  1  0.21333000  0.50978000  0.93456000  1
  C  C462  1  0.78695000  0.51055000  0.77710000  1
  C  C463  1  0.65067000  0.51315000  0.35714000  1
  C  C464  1  0.59702000  0.51809000  0.29068000  1
  C  C465  1  0.83283000  0.52073000  0.75206000  1
  C  C466  1  0.79596000  0.52612000  0.75424000  1
  C  C467  1  0.62771000  0.52690000  0.37858000  1
  C  C468  1  0.20352000  0.52920000  0.18340000  1
  C  C469  1  0.74823000  0.53036000  0.28794000  1
  C  C470  1  0.68091000  0.53093000  0.45386000  1
  C  C471  1  0.57408000  0.53142000  0.31236000  1
  C  C472  1  0.23990000  0.53184000  0.18368000  1
  C  C473  1  0.57278000  0.53351000  0.80214000  1
  C  C474  1  0.80973000  0.53576000  0.68892000  1
  C  C475  1  0.84326000  0.53633000  0.72686000  1
  C  C476  1  0.81525000  0.53679000  0.10308000  1
  C  C477  1  0.75473000  0.53691000  0.54262000  1
  C  C478  1  0.58927000  0.53692000  0.35756000  1
  C  C479  1  0.68064000  0.53731000  0.49162000  1
  C  C480  1  0.78761000  0.53826000  0.58312000  1
  C  C481  1  0.71587000  0.53927000  0.53534000  1
  C  C482  1  0.53036000  0.53971000  0.28794000  1
  C  C483  1  0.78347000  0.54899000  0.62038000  1
  C  C484  1  0.85459000  0.55078000  0.11154000  1
  C  C485  1  0.30941000  0.55196000  0.17594000  1
  C  C486  1  0.26799000  0.55315000  0.14858000  1
  C  C487  1  0.81996000  0.55385000  0.66710000  1
  C  C488  1  0.38461000  0.55428000  0.19478000  1
  C  C489  1  0.88661000  0.55430000  0.74440000  1
  C  C490  1  0.71151000  0.55492000  0.57604000  1
  C  C491  1  0.33986000  0.55682000  0.16646000  1
  C  C492  1  0.74541000  0.55730000  0.61800000  1
  C  C493  1  0.86096000  0.56070000  0.67780000  1
  C  C494  1  0.25695000  0.56076000  0.11154000  1
  C  C495  1  0.32808000  0.56267000  0.12826000  1
  C  C496  1  0.89617000  0.56343000  0.71886000  1
  C  C497  1  0.80018000  0.56559000  0.12826000  1
  C  C498  1  0.28783000  0.56629000  0.10308000  1
  C  C499  1  0.26863000  0.57278000  0.80214000  1
  C  C500  1  0.78094000  0.57408000  0.31236000  1
  C  C501  1  0.27877000  0.57522000  0.06544000  1
  C  C502  1  0.94007000  0.57635000  0.73230000  1
  C  C503  1  0.97327000  0.57847000  0.76974000  1
  C  C504  1  0.58770000  0.58178000  0.82670000  1
  C  C505  1  0.01620000  0.58547000  0.77934000  1
  C  C506  1  0.24492000  0.58770000  0.82670000  1
  C  C507  1  0.82064000  0.58927000  0.35756000  1
  C  C508  1  0.25964000  0.58970000  0.86996000  1
  C  C509  1  0.88059000  0.59543000  0.14858000  1
  C  C510  1  0.20626000  0.59572000  0.80544000  1
  C  C511  1  0.95500000  0.59610000  0.71700000  1
  C  C512  1  0.24954000  0.59673000  0.93348000  1
  C  C513  1  0.77259000  0.59702000  0.29068000  1
  C  C514  1  0.59572000  0.59918000  0.80544000  1
  C  C515  1  0.23537000  0.59966000  0.89024000  1
  C  C516  1  0.02815000  0.59998000  0.76096000  1
  C  C517  1  0.10611000  0.60272000  0.80426000  1
  C  C518  1  0.18257000  0.60573000  0.82666000  1
  C  C519  1  0.07347000  0.60790000  0.77380000  1
  C  C520  1  0.19737000  0.60802000  0.86912000  1
  C  C521  1  0.82660000  0.60964000  0.16646000  1
  C  C522  1  0.99660000  0.61010000  0.73280000  1
  C  C523  1  0.58970000  0.61032000  0.86996000  1
  C  C524  1  0.35950000  0.61539000  0.80522000  1
  C  C525  1  0.86653000  0.62398000  0.17594000  1
  C  C526  1  0.85168000  0.62771000  0.37858000  1
  C  C527  1  0.49143000  0.63022000  0.28802000  1
  C  C528  1  0.80451000  0.63543000  0.31292000  1
  C  C529  1  0.81017000  0.64050000  0.19478000  1
  C  C530  1  0.60573000  0.64409000  0.82666000  1
  C  C531  1  0.84399000  0.65067000  0.35714000  1
  C  C532  1  0.94378000  0.65184000  0.18368000  1
  C  C533  1  0.97988000  0.65420000  0.18340000  1
  C  C534  1  0.59966000  0.65487000  0.89024000  1
  C  C535  1  0.79659000  0.65780000  0.28802000  1
  C  C536  1  0.39036000  0.66014000  0.83354000  1
  C  C537  1  0.31606000  0.66325000  0.06652000  1
  C  C538  1  0.60802000  0.67175000  0.86912000  1
  C  C539  1  0.43441000  0.67192000  0.87174000  1
  C  C540  1  0.50841000  0.67749000  0.31292000  1
  C  C541  1  0.95431000  0.68064000  0.49162000  1
  C  C542  1  0.92293000  0.68091000  0.45386000  1
  C  C543  1  0.59673000  0.68394000  0.93348000  1
  C  C544  1  0.37602000  0.69059000  0.82406000  1
  C  C545  1  0.04693000  0.69170000  0.19880000  1
  C  C546  1  0.01357000  0.69338000  0.20096000  1
  C  C547  1  0.51809000  0.69366000  0.29068000  1
  C  C548  1  0.60272000  0.69815000  0.80426000  1
  C  C549  1  0.60790000  0.70033000  0.77380000  1
  C  C550  1  0.51315000  0.70647000  0.35714000  1
  C  C551  1  0.34513000  0.70942000  0.10976000  1
  C  C552  1  0.02112000  0.71151000  0.57604000  1
  C  C553  1  0.46321000  0.71217000  0.89692000  1
  C  C554  1  0.99607000  0.71587000  0.53534000  1
  C  C555  1  0.38968000  0.71974000  0.13004000  1
  C  C556  1  0.50978000  0.72123000  0.93456000  1
  C  C557  1  0.08077000  0.72770000  0.22140000  1
  C  C558  1  0.77064000  0.73137000  0.19786000  1
  C  C559  1  0.40457000  0.73201000  0.85142000  1
  C  C560  1  0.59998000  0.73281000  0.76096000  1
  C  C561  1  0.00985000  0.73345000  0.22290000  1
  C  C562  1  0.61010000  0.73620000  0.73280000  1
  C  C563  1  0.53142000  0.73828000  0.31236000  1
  C  C564  1  0.32825000  0.73890000  0.13088000  1
  C  C565  1  0.71974000  0.74036000  0.13004000  1
  C  C566  1  0.44922000  0.74305000  0.88846000  1
  C  C567  1  0.06070000  0.74541000  0.61800000  1
  C  C568  1  0.75758000  0.74823000  0.28794000  1
  C  C569  1  0.66325000  0.75046000  0.06652000  1
  C  C570  1  0.52690000  0.75087000  0.37858000  1
  C  C571  1  0.00571000  0.75473000  0.54262000  1
  C  C572  1  0.76100000  0.75508000  0.17330000  1
  C  C573  1  0.53971000  0.75758000  0.28794000  1
  C  C574  1  0.34816000  0.76010000  0.81632000  1
  C  C575  1  0.41822000  0.76100000  0.17330000  1
  C  C576  1  0.59610000  0.76200000  0.71700000  1
  C  C577  1  0.58547000  0.76314000  0.77934000  1
  C  C578  1  0.70942000  0.76463000  0.10976000  1
  C  C579  1  0.53692000  0.76829000  0.35756000  1
  C  C580  1  0.08077000  0.76867000  0.24794000  1
  C  C581  1  0.46649000  0.77064000  0.19786000  1
  C  C582  1  0.04172000  0.77188000  0.24576000  1
  C  C583  1  0.69366000  0.77259000  0.29068000  1
  C  C584  1  0.53093000  0.77295000  0.45386000  1
  C  C585  1  0.35591000  0.77907000  0.17334000  1
  C  C586  1  0.73828000  0.78094000  0.31236000  1
  C  C587  1  0.07139000  0.78347000  0.62038000  1
  C  C588  1  0.57522000  0.78667000  0.06544000  1
  C  C589  1  0.26655000  0.78695000  0.77710000  1
  C  C590  1  0.04486000  0.78761000  0.58312000  1
  C  C591  1  0.53691000  0.78789000  0.54262000  1
  C  C592  1  0.40082000  0.79028000  0.19456000  1
  C  C593  1  0.57635000  0.79223000  0.73230000  1
  C  C594  1  0.79028000  0.79374000  0.19456000  1
  C  C595  1  0.53826000  0.79551000  0.58312000  1
  C  C596  1  0.22812000  0.79596000  0.75424000  1
  C  C597  1  0.57847000  0.79647000  0.76974000  1
  C  C598  1  0.34580000  0.79648000  0.81660000  1
  C  C599  1  0.63022000  0.79659000  0.28802000  1
  C  C600  1  0.30185000  0.79846000  0.19574000  1
  C  C601  1  0.56267000  0.80018000  0.12826000  1
  C  C602  1  0.73890000  0.80263000  0.13088000  1
  C  C603  1  0.67749000  0.80451000  0.31292000  1
  C  C604  1  0.23686000  0.80613000  0.22066000  1
  C  C605  1  0.20353000  0.80873000  0.23026000  1
  C  C606  1  0.11640000  0.80947000  0.27314000  1
  C  C607  1  0.15316000  0.80973000  0.68892000  1
  C  C608  1  0.14221000  0.80990000  0.25560000  1
  C  C609  1  0.55428000  0.81017000  0.19478000  1
  C  C610  1  0.53731000  0.81098000  0.49162000  1
  C  C611  1  0.30662000  0.81261000  0.79904000  1
  C  C612  1  0.56629000  0.81525000  0.10308000  1
  C  C613  1  0.56070000  0.81684000  0.67780000  1
  C  C614  1  0.77907000  0.81743000  0.17334000  1
  C  C615  1  0.53927000  0.81947000  0.53534000  1
  C  C616  1  0.11325000  0.81996000  0.66710000  1
  C  C617  1  0.76829000  0.82064000  0.35756000  1
  C  C618  1  0.56343000  0.82269000  0.71886000  1
  C  C619  1  0.55682000  0.82660000  0.16646000  1
  C  C620  1  0.23133000  0.83283000  0.75206000  1
  C  C621  1  0.29967000  0.83410000  0.22620000  1
  C  C622  1  0.54899000  0.83691000  0.62038000  1
  C  C623  1  0.26719000  0.83902000  0.23904000  1
  C  C624  1  0.19053000  0.84326000  0.72686000  1
  C  C625  1  0.70647000  0.84399000  0.35714000  1
  C  C626  1  0.20777000  0.84405000  0.26770000  1
  C  C627  1  0.17731000  0.84457000  0.28114000  1
  C  C628  1  0.12081000  0.84684000  0.31108000  1
  C  C629  1  0.55385000  0.84714000  0.66710000  1
  C  C630  1  0.30830000  0.84813000  0.80120000  1
  C  C631  1  0.75087000  0.85168000  0.37858000  1
  C  C632  1  0.56076000  0.85459000  0.11154000  1
  C  C633  1  0.55430000  0.85779000  0.74440000  1
  C  C634  1  0.27230000  0.85937000  0.77860000  1
  C  C635  1  0.11710000  0.86096000  0.67780000  1
  C  C636  1  0.55492000  0.86453000  0.57604000  1
  C  C637  1  0.55196000  0.86653000  0.17594000  1
  C  C638  1  0.55730000  0.87259000  0.61800000  1
  C  C639  1  0.26380000  0.87730000  0.26720000  1
  C  C640  1  0.23800000  0.87910000  0.28300000  1
  C  C641  1  0.53576000  0.87919000  0.68892000  1
  C  C642  1  0.55315000  0.88059000  0.14858000  1
  C  C643  1  0.18316000  0.88290000  0.32220000  1
  C  C644  1  0.53633000  0.88360000  0.72686000  1
  C  C645  1  0.19010000  0.88661000  0.74440000  1
  C  C646  1  0.15286000  0.88675000  0.33290000  1
  C  C647  1  0.79846000  0.89389000  0.19574000  1
  C  C648  1  0.15543000  0.89617000  0.71886000  1
  C  C649  1  0.52073000  0.91923000  0.75206000  1
  C  C650  1  0.50630000  0.91923000  0.77860000  1
  C  C651  1  0.77295000  0.92293000  0.45386000  1
  C  C652  1  0.83410000  0.92653000  0.22620000  1
  C  C653  1  0.16309000  0.92861000  0.37962000  1
  C  C654  1  0.12741000  0.93930000  0.38200000  1
  C  C655  1  0.15595000  0.94007000  0.73230000  1
  C  C656  1  0.53184000  0.94378000  0.18368000  1
  C  C657  1  0.49290000  0.95307000  0.80120000  1
  C  C658  1  0.81098000  0.95431000  0.49162000  1
  C  C659  1  0.12090000  0.95500000  0.71700000  1
  C  C660  1  0.20449000  0.95514000  0.41688000  1
  C  C661  1  0.52612000  0.95828000  0.75424000  1
  C  C662  1  0.83902000  0.97185000  0.23904000  1
  C  C663  1  0.19127000  0.97327000  0.76974000  1
  C  C664  1  0.13547000  0.97888000  0.42396000  1
  C  C665  1  0.52920000  0.97988000  0.18340000  1
  C  C666  1  0.80613000  0.98380000  0.22066000  1
  C  C667  1  0.49242000  0.98643000  0.79904000  1
  C  C668  1  0.51055000  0.99015000  0.77710000  1
  C  C669  1  0.21211000  0.99429000  0.45738000  1
  C  C670  1  0.81947000  0.99607000  0.53534000  1
  C  C671  1  0.12270000  0.99660000  0.73280000  1
  N  N672  1  0.45337000  0.02129000  0.84014000  1
  N  N673  1  0.44218000  0.05590000  0.85396000  1
  N  N674  1  0.15892000  0.05928000  0.51596000  1
  N  N675  1  0.45334000  0.07780000  0.84068000  1
  N  N676  1  0.13332000  0.08864000  0.75744000  1
  N  N677  1  0.17649000  0.09852000  0.55704000  1
  N  N678  1  0.21922000  0.10769000  0.57638000  1
  N  N679  1  0.14801000  0.12903000  0.77232000  1
  N  N680  1  0.66880000  0.13332000  0.75744000  1
  N  N681  1  0.19062000  0.13994000  0.80188000  1
  N  N682  1  0.64329000  0.14801000  0.77232000  1
  N  N683  1  0.45668000  0.15892000  0.51596000  1
  N  N684  1  0.45852000  0.17649000  0.55704000  1
  N  N685  1  0.61323000  0.18115000  0.15986000  1
  N  N686  1  0.66194000  0.19062000  0.80188000  1
  N  N687  1  0.58822000  0.20194000  0.14604000  1
  N  N688  1  0.46869000  0.21922000  0.57638000  1
  N  N689  1  0.61266000  0.23712000  0.15932000  1
  N  N690  1  0.37588000  0.33120000  0.24256000  1
  N  N691  1  0.38874000  0.33806000  0.19812000  1
  N  N692  1  0.37569000  0.35671000  0.22768000  1
  N  N693  1  0.05928000  0.35704000  0.51596000  1
  N  N694  1  0.10769000  0.35716000  0.57638000  1
  N  N695  1  0.87097000  0.37569000  0.22768000  1
  N  N696  1  0.91136000  0.37588000  0.24256000  1
  N  N697  1  0.09852000  0.38055000  0.55704000  1
  N  N698  1  0.02129000  0.38677000  0.84014000  1
  N  N699  1  0.07780000  0.38734000  0.84068000  1
  N  N700  1  0.86006000  0.38874000  0.19812000  1
  N  N701  1  0.05590000  0.41178000  0.85396000  1
  N  N702  1  0.79806000  0.44218000  0.85396000  1
  N  N703  1  0.76288000  0.45334000  0.84068000  1
  N  N704  1  0.81885000  0.45337000  0.84014000  1
  N  N705  1  0.35704000  0.45668000  0.51596000  1
  N  N706  1  0.38055000  0.45852000  0.55704000  1
  N  N707  1  0.35716000  0.46869000  0.57638000  1
  N  N708  1  0.64284000  0.53131000  0.42362000  1
  N  N709  1  0.61945000  0.54148000  0.44296000  1
  N  N710  1  0.64296000  0.54332000  0.48404000  1
  N  N711  1  0.18115000  0.54663000  0.15986000  1
  N  N712  1  0.23712000  0.54666000  0.15932000  1
  N  N713  1  0.20194000  0.55782000  0.14604000  1
  N  N714  1  0.94410000  0.58822000  0.14604000  1
  N  N715  1  0.13994000  0.61126000  0.80188000  1
  N  N716  1  0.92220000  0.61266000  0.15932000  1
  N  N717  1  0.97871000  0.61323000  0.15986000  1
  N  N718  1  0.90148000  0.61945000  0.44296000  1
  N  N719  1  0.08864000  0.62412000  0.75744000  1
  N  N720  1  0.12903000  0.62431000  0.77232000  1
  N  N721  1  0.89231000  0.64284000  0.42362000  1
  N  N722  1  0.94072000  0.64296000  0.48404000  1
  N  N723  1  0.62431000  0.64329000  0.77232000  1
  N  N724  1  0.61126000  0.66194000  0.80188000  1
  N  N725  1  0.62412000  0.66880000  0.75744000  1
  N  N726  1  0.38734000  0.76288000  0.84068000  1
  N  N727  1  0.53131000  0.78078000  0.42362000  1
  N  N728  1  0.41178000  0.79806000  0.85396000  1
  N  N729  1  0.33806000  0.80938000  0.19812000  1
  N  N730  1  0.38677000  0.81885000  0.84014000  1
  N  N731  1  0.54148000  0.82351000  0.44296000  1
  N  N732  1  0.54332000  0.84108000  0.48404000  1
  N  N733  1  0.35671000  0.85199000  0.22768000  1
  N  N734  1  0.80938000  0.86006000  0.19812000  1
  N  N735  1  0.33120000  0.86668000  0.24256000  1
  N  N736  1  0.85199000  0.87097000  0.22768000  1
  N  N737  1  0.78078000  0.89231000  0.42362000  1
  N  N738  1  0.82351000  0.90148000  0.44296000  1
  N  N739  1  0.86668000  0.91136000  0.24256000  1
  N  N740  1  0.54666000  0.92220000  0.15932000  1
  N  N741  1  0.84108000  0.94072000  0.48404000  1
  N  N742  1  0.55782000  0.94410000  0.14604000  1
  N  N743  1  0.54663000  0.97871000  0.15986000  1
  O  O744  1  0.44592000  0.16276000  0.76800000  1
  O  O745  1  0.38348000  0.17166000  0.69502000  1
  O  O746  1  0.50981000  0.19230000  0.76176000  1
  O  O747  1  0.41290000  0.19495000  0.95054000  1
  O  O748  1  0.44822000  0.20192000  0.69078000  1
  O  O749  1  0.34370000  0.22488000  0.94928000  1
  O  O750  1  0.44947000  0.23012000  0.82170000  1
  O  O751  1  0.39454000  0.24161000  0.74884000  1
  O  O752  1  0.20192000  0.24256000  0.69078000  1
  O  O753  1  0.46236000  0.24441000  0.04946000  1
  O  O754  1  0.19230000  0.25195000  0.76176000  1
  O  O755  1  0.43129000  0.25287000  0.94944000  1
  O  O756  1  0.51932000  0.25838000  0.82292000  1
  O  O757  1  0.46612000  0.27180000  0.75256000  1
  O  O758  1  0.39442000  0.27560000  0.05072000  1
  O  O759  1  0.36390000  0.28260000  0.94992000  1
  O  O760  1  0.27180000  0.28644000  0.75256000  1
  O  O761  1  0.48185000  0.30343000  0.05056000  1
  O  O762  1  0.25838000  0.30360000  0.82292000  1
  O  O763  1  0.17166000  0.31154000  0.69502000  1
  O  O764  1  0.16276000  0.32208000  0.76800000  1
  O  O765  1  0.41398000  0.33268000  0.05008000  1
  O  O766  1  0.72440000  0.34370000  0.94928000  1
  O  O767  1  0.24161000  0.35430000  0.74884000  1
  O  O768  1  0.66732000  0.36390000  0.94992000  1
  O  O769  1  0.23012000  0.37223000  0.82170000  1
  O  O770  1  0.52336000  0.38348000  0.69502000  1
  O  O771  1  0.77512000  0.39442000  0.05072000  1
  O  O772  1  0.50723000  0.39454000  0.74884000  1
  O  O773  1  0.67792000  0.39476000  0.23200000  1
  O  O774  1  0.62777000  0.40842000  0.17830000  1
  O  O775  1  0.75559000  0.41290000  0.95054000  1
  O  O776  1  0.71740000  0.41398000  0.05008000  1
  O  O777  1  0.74805000  0.43054000  0.23824000  1
  O  O778  1  0.69657000  0.43129000  0.94944000  1
  O  O779  1  0.69640000  0.43546000  0.17708000  1
  O  O780  1  0.60524000  0.44592000  0.76800000  1
  O  O781  1  0.48886000  0.44822000  0.69078000  1
  O  O782  1  0.59158000  0.44947000  0.82170000  1
  O  O783  1  0.80505000  0.46236000  0.04946000  1
  O  O784  1  0.48076000  0.46612000  0.75256000  1
  O  O785  1  0.68846000  0.47664000  0.30498000  1
  O  O786  1  0.43546000  0.48068000  0.17708000  1
  O  O787  1  0.28644000  0.48076000  0.75256000  1
  O  O788  1  0.74713000  0.48185000  0.05056000  1
  O  O789  1  0.24256000  0.48886000  0.69078000  1
  O  O790  1  0.43054000  0.49019000  0.23824000  1
  O  O791  1  0.64570000  0.49277000  0.25116000  1
  O  O792  1  0.35430000  0.50723000  0.74884000  1
  O  O793  1  0.56946000  0.50981000  0.76176000  1
  O  O794  1  0.75744000  0.51114000  0.30922000  1
  O  O795  1  0.25287000  0.51815000  0.94944000  1
  O  O796  1  0.71356000  0.51924000  0.24744000  1
  O  O797  1  0.56454000  0.51932000  0.82292000  1
  O  O798  1  0.31154000  0.52336000  0.69502000  1
  O  O799  1  0.51924000  0.53388000  0.24744000  1
  O  O800  1  0.19495000  0.53764000  0.95054000  1
  O  O801  1  0.40842000  0.55053000  0.17830000  1
  O  O802  1  0.51114000  0.55178000  0.30922000  1
  O  O803  1  0.39476000  0.55408000  0.23200000  1
  O  O804  1  0.30360000  0.56454000  0.82292000  1
  O  O805  1  0.30343000  0.56871000  0.05056000  1
  O  O806  1  0.25195000  0.56946000  0.76176000  1
  O  O807  1  0.28260000  0.58602000  0.94992000  1
  O  O808  1  0.24441000  0.58710000  0.04946000  1
  O  O809  1  0.37223000  0.59158000  0.82170000  1
  O  O810  1  0.32208000  0.60524000  0.76800000  1
  O  O811  1  0.49277000  0.60546000  0.25116000  1
  O  O812  1  0.22488000  0.60558000  0.94928000  1
  O  O813  1  0.47664000  0.61652000  0.30498000  1
  O  O814  1  0.76988000  0.62777000  0.17830000  1
  O  O815  1  0.33268000  0.63610000  0.05008000  1
  O  O816  1  0.75839000  0.64570000  0.25116000  1
  O  O817  1  0.27560000  0.65630000  0.05072000  1
  O  O818  1  0.58602000  0.66732000  0.94992000  1
  O  O819  1  0.83724000  0.67792000  0.23200000  1
  O  O820  1  0.82834000  0.68846000  0.30498000  1
  O  O821  1  0.74162000  0.69640000  0.17708000  1
  O  O822  1  0.51815000  0.69657000  0.94944000  1
  O  O823  1  0.72820000  0.71356000  0.24744000  1
  O  O824  1  0.63610000  0.71740000  0.05008000  1
  O  O825  1  0.60558000  0.72440000  0.94928000  1
  O  O826  1  0.53388000  0.72820000  0.24744000  1
  O  O827  1  0.48068000  0.74162000  0.17708000  1
  O  O828  1  0.56871000  0.74713000  0.05056000  1
  O  O829  1  0.80770000  0.74805000  0.23824000  1
  O  O830  1  0.53764000  0.75559000  0.95054000  1
  O  O831  1  0.79808000  0.75744000  0.30922000  1
  O  O832  1  0.60546000  0.75839000  0.25116000  1
  O  O833  1  0.55053000  0.76988000  0.17830000  1
  O  O834  1  0.65630000  0.77512000  0.05072000  1
  O  O835  1  0.55178000  0.79808000  0.30922000  1
  O  O836  1  0.58710000  0.80505000  0.04946000  1
  O  O837  1  0.49019000  0.80770000  0.23824000  1
  O  O838  1  0.61652000  0.82834000  0.30498000  1
  O  O839  1  0.55408000  0.83724000  0.23200000  1
