# generated using pymatgen
data_NiH6(C5N2)2
_symmetry_space_group_name_H-M   'P 1'
_cell_length_a   18.54900000
_cell_length_b   18.54900000
_cell_length_c   18.54900000
_cell_angle_alpha   90.00000000
_cell_angle_beta   90.00000000
_cell_angle_gamma   90.00000000
_symmetry_Int_Tables_number   1
_chemical_formula_structural   NiH6(C5N2)2
_chemical_formula_sum   'Ni12 H72 C120 N48'
_cell_volume   6382.06912315
_cell_formula_units_Z   12
loop_
 _symmetry_equiv_pos_site_id
 _symmetry_equiv_pos_as_xyz
  1  'x, y, z'
loop_
 _atom_site_type_symbol
 _atom_site_label
 _atom_site_symmetry_multiplicity
 _atom_site_fract_x
 _atom_site_fract_y
 _atom_site_fract_z
 _atom_site_occupancy
  Ni  Ni0  1  0.00000000  0.38115000  0.50000000  1
  Ni  Ni1  1  0.00000000  0.50000000  0.38115000  1
  Ni  Ni2  1  0.00000000  0.50000000  0.61885000  1
  Ni  Ni3  1  0.00000000  0.61885000  0.50000000  1
  Ni  Ni4  1  0.38115000  0.00000000  0.50000000  1
  Ni  Ni5  1  0.38115000  0.50000000  0.00000000  1
  Ni  Ni6  1  0.50000000  0.00000000  0.38115000  1
  Ni  Ni7  1  0.50000000  0.00000000  0.61885000  1
  Ni  Ni8  1  0.50000000  0.38115000  0.00000000  1
  Ni  Ni9  1  0.50000000  0.61885000  0.00000000  1
  Ni  Ni10  1  0.61885000  0.00000000  0.50000000  1
  Ni  Ni11  1  0.61885000  0.50000000  0.00000000  1
  H  H12  1  0.14550000  0.28685000  0.43962000  1
  H  H13  1  0.14550000  0.28685000  0.56038000  1
  H  H14  1  0.14550000  0.43962000  0.28685000  1
  H  H15  1  0.14550000  0.43962000  0.71315000  1
  H  H16  1  0.14550000  0.56038000  0.28685000  1
  H  H17  1  0.14550000  0.56038000  0.71315000  1
  H  H18  1  0.14550000  0.71315000  0.43962000  1
  H  H19  1  0.14550000  0.71315000  0.56038000  1
  H  H20  1  0.22788000  0.22788000  0.38183000  1
  H  H21  1  0.22788000  0.22788000  0.61817000  1
  H  H22  1  0.22788000  0.38183000  0.22788000  1
  H  H23  1  0.22788000  0.38183000  0.77211000  1
  H  H24  1  0.22788000  0.61817000  0.22788000  1
  H  H25  1  0.22788000  0.61817000  0.77211000  1
  H  H26  1  0.22788000  0.77211000  0.38183000  1
  H  H27  1  0.22788000  0.77211000  0.61817000  1
  H  H28  1  0.28685000  0.14550000  0.43962000  1
  H  H29  1  0.28685000  0.14550000  0.56038000  1
  H  H30  1  0.28685000  0.43962000  0.14550000  1
  H  H31  1  0.28685000  0.43962000  0.85450000  1
  H  H32  1  0.28685000  0.56038000  0.14550000  1
  H  H33  1  0.28685000  0.56038000  0.85450000  1
  H  H34  1  0.28685000  0.85450000  0.43962000  1
  H  H35  1  0.28685000  0.85450000  0.56038000  1
  H  H36  1  0.38183000  0.22788000  0.22788000  1
  H  H37  1  0.38183000  0.22788000  0.77211000  1
  H  H38  1  0.38183000  0.77211000  0.22788000  1
  H  H39  1  0.38183000  0.77211000  0.77211000  1
  H  H40  1  0.43962000  0.14550000  0.28685000  1
  H  H41  1  0.43962000  0.14550000  0.71315000  1
  H  H42  1  0.43962000  0.28685000  0.14550000  1
  H  H43  1  0.43962000  0.28685000  0.85450000  1
  H  H44  1  0.43962000  0.71315000  0.14550000  1
  H  H45  1  0.43962000  0.71315000  0.85450000  1
  H  H46  1  0.43962000  0.85450000  0.28685000  1
  H  H47  1  0.43962000  0.85450000  0.71315000  1
  H  H48  1  0.56038000  0.14550000  0.28685000  1
  H  H49  1  0.56038000  0.14550000  0.71315000  1
  H  H50  1  0.56038000  0.28685000  0.14550000  1
  H  H51  1  0.56038000  0.28685000  0.85450000  1
  H  H52  1  0.56038000  0.71315000  0.14550000  1
  H  H53  1  0.56038000  0.71315000  0.85450000  1
  H  H54  1  0.56038000  0.85450000  0.28685000  1
  H  H55  1  0.56038000  0.85450000  0.71315000  1
  H  H56  1  0.61817000  0.22788000  0.22788000  1
  H  H57  1  0.61817000  0.22788000  0.77211000  1
  H  H58  1  0.61817000  0.77211000  0.22788000  1
  H  H59  1  0.61817000  0.77211000  0.77211000  1
  H  H60  1  0.71315000  0.14550000  0.43962000  1
  H  H61  1  0.71315000  0.14550000  0.56038000  1
  H  H62  1  0.71315000  0.43962000  0.14550000  1
  H  H63  1  0.71315000  0.43962000  0.85450000  1
  H  H64  1  0.71315000  0.56038000  0.14550000  1
  H  H65  1  0.71315000  0.56038000  0.85450000  1
  H  H66  1  0.71315000  0.85450000  0.43962000  1
  H  H67  1  0.71315000  0.85450000  0.56038000  1
  H  H68  1  0.77211000  0.22788000  0.38183000  1
  H  H69  1  0.77211000  0.22788000  0.61817000  1
  H  H70  1  0.77211000  0.38183000  0.22788000  1
  H  H71  1  0.77211000  0.38183000  0.77211000  1
  H  H72  1  0.77211000  0.61817000  0.22788000  1
  H  H73  1  0.77211000  0.61817000  0.77211000  1
  H  H74  1  0.77211000  0.77211000  0.38183000  1
  H  H75  1  0.77211000  0.77211000  0.61817000  1
  H  H76  1  0.85450000  0.28685000  0.43962000  1
  H  H77  1  0.85450000  0.28685000  0.56038000  1
  H  H78  1  0.85450000  0.43962000  0.28685000  1
  H  H79  1  0.85450000  0.43962000  0.71315000  1
  H  H80  1  0.85450000  0.56038000  0.28685000  1
  H  H81  1  0.85450000  0.56038000  0.71315000  1
  H  H82  1  0.85450000  0.71315000  0.43962000  1
  H  H83  1  0.85450000  0.71315000  0.56038000  1
  C  C84  1  0.13431000  0.32920000  0.41309000  1
  C  C85  1  0.13431000  0.32920000  0.58691000  1
  C  C86  1  0.13431000  0.41309000  0.32920000  1
  C  C87  1  0.13431000  0.41309000  0.67080000  1
  C  C88  1  0.13431000  0.58691000  0.32920000  1
  C  C89  1  0.13431000  0.58691000  0.67080000  1
  C  C90  1  0.13431000  0.67080000  0.41309000  1
  C  C91  1  0.13431000  0.67080000  0.58691000  1
  C  C92  1  0.16478000  0.34960000  0.34960000  1
  C  C93  1  0.16478000  0.34960000  0.65040000  1
  C  C94  1  0.16478000  0.65040000  0.34960000  1
  C  C95  1  0.16478000  0.65040000  0.65040000  1
  C  C96  1  0.22006000  0.31051000  0.31051000  1
  C  C97  1  0.22006000  0.31051000  0.68949000  1
  C  C98  1  0.22006000  0.68949000  0.31051000  1
  C  C99  1  0.22006000  0.68949000  0.68949000  1
  C  C100  1  0.24622000  0.24622000  0.33767000  1
  C  C101  1  0.24622000  0.24622000  0.66233000  1
  C  C102  1  0.24622000  0.33767000  0.24622000  1
  C  C103  1  0.24622000  0.33767000  0.75378000  1
  C  C104  1  0.24622000  0.66233000  0.24622000  1
  C  C105  1  0.24622000  0.66233000  0.75378000  1
  C  C106  1  0.24622000  0.75378000  0.33767000  1
  C  C107  1  0.24622000  0.75378000  0.66233000  1
  C  C108  1  0.31051000  0.22006000  0.31051000  1
  C  C109  1  0.31051000  0.22006000  0.68949000  1
  C  C110  1  0.31051000  0.31051000  0.22006000  1
  C  C111  1  0.31051000  0.31051000  0.77994000  1
  C  C112  1  0.31051000  0.68949000  0.22006000  1
  C  C113  1  0.31051000  0.68949000  0.77994000  1
  C  C114  1  0.31051000  0.77994000  0.31051000  1
  C  C115  1  0.31051000  0.77994000  0.68949000  1
  C  C116  1  0.32920000  0.13431000  0.41309000  1
  C  C117  1  0.32920000  0.13431000  0.58691000  1
  C  C118  1  0.32920000  0.41309000  0.13431000  1
  C  C119  1  0.32920000  0.41309000  0.86569000  1
  C  C120  1  0.32920000  0.58691000  0.13431000  1
  C  C121  1  0.32920000  0.58691000  0.86569000  1
  C  C122  1  0.32920000  0.86569000  0.41309000  1
  C  C123  1  0.32920000  0.86569000  0.58691000  1
  C  C124  1  0.33767000  0.24622000  0.24622000  1
  C  C125  1  0.33767000  0.24622000  0.75378000  1
  C  C126  1  0.33767000  0.75378000  0.24622000  1
  C  C127  1  0.33767000  0.75378000  0.75378000  1
  C  C128  1  0.34960000  0.16478000  0.34960000  1
  C  C129  1  0.34960000  0.16478000  0.65040000  1
  C  C130  1  0.34960000  0.34960000  0.16478000  1
  C  C131  1  0.34960000  0.34960000  0.83522000  1
  C  C132  1  0.34960000  0.65040000  0.16478000  1
  C  C133  1  0.34960000  0.65040000  0.83522000  1
  C  C134  1  0.34960000  0.83522000  0.34960000  1
  C  C135  1  0.34960000  0.83522000  0.65040000  1
  C  C136  1  0.41309000  0.13431000  0.32920000  1
  C  C137  1  0.41309000  0.13431000  0.67080000  1
  C  C138  1  0.41309000  0.32920000  0.13431000  1
  C  C139  1  0.41309000  0.32920000  0.86569000  1
  C  C140  1  0.41309000  0.67080000  0.13431000  1
  C  C141  1  0.41309000  0.67080000  0.86569000  1
  C  C142  1  0.41309000  0.86569000  0.32920000  1
  C  C143  1  0.41309000  0.86569000  0.67080000  1
  C  C144  1  0.58691000  0.13431000  0.32920000  1
  C  C145  1  0.58691000  0.13431000  0.67080000  1
  C  C146  1  0.58691000  0.32920000  0.13431000  1
  C  C147  1  0.58691000  0.32920000  0.86569000  1
  C  C148  1  0.58691000  0.67080000  0.13431000  1
  C  C149  1  0.58691000  0.67080000  0.86569000  1
  C  C150  1  0.58691000  0.86569000  0.32920000  1
  C  C151  1  0.58691000  0.86569000  0.67080000  1
  C  C152  1  0.65040000  0.16478000  0.34960000  1
  C  C153  1  0.65040000  0.16478000  0.65040000  1
  C  C154  1  0.65040000  0.34960000  0.16478000  1
  C  C155  1  0.65040000  0.34960000  0.83522000  1
  C  C156  1  0.65040000  0.65040000  0.16478000  1
  C  C157  1  0.65040000  0.65040000  0.83522000  1
  C  C158  1  0.65040000  0.83522000  0.34960000  1
  C  C159  1  0.65040000  0.83522000  0.65040000  1
  C  C160  1  0.66233000  0.24622000  0.24622000  1
  C  C161  1  0.66233000  0.24622000  0.75378000  1
  C  C162  1  0.66233000  0.75378000  0.24622000  1
  C  C163  1  0.66233000  0.75378000  0.75378000  1
  C  C164  1  0.67080000  0.13431000  0.41309000  1
  C  C165  1  0.67080000  0.13431000  0.58691000  1
  C  C166  1  0.67080000  0.41309000  0.13431000  1
  C  C167  1  0.67080000  0.41309000  0.86569000  1
  C  C168  1  0.67080000  0.58691000  0.13431000  1
  C  C169  1  0.67080000  0.58691000  0.86569000  1
  C  C170  1  0.67080000  0.86569000  0.41309000  1
  C  C171  1  0.67080000  0.86569000  0.58691000  1
  C  C172  1  0.68949000  0.22006000  0.31051000  1
  C  C173  1  0.68949000  0.22006000  0.68949000  1
  C  C174  1  0.68949000  0.31051000  0.22006000  1
  C  C175  1  0.68949000  0.31051000  0.77994000  1
  C  C176  1  0.68949000  0.68949000  0.22006000  1
  C  C177  1  0.68949000  0.68949000  0.77994000  1
  C  C178  1  0.68949000  0.77994000  0.31051000  1
  C  C179  1  0.68949000  0.77994000  0.68949000  1
  C  C180  1  0.75378000  0.24622000  0.33767000  1
  C  C181  1  0.75378000  0.24622000  0.66233000  1
  C  C182  1  0.75378000  0.33767000  0.24622000  1
  C  C183  1  0.75378000  0.33767000  0.75378000  1
  C  C184  1  0.75378000  0.66233000  0.24622000  1
  C  C185  1  0.75378000  0.66233000  0.75378000  1
  C  C186  1  0.75378000  0.75378000  0.33767000  1
  C  C187  1  0.75378000  0.75378000  0.66233000  1
  C  C188  1  0.77994000  0.31051000  0.31051000  1
  C  C189  1  0.77994000  0.31051000  0.68949000  1
  C  C190  1  0.77994000  0.68949000  0.31051000  1
  C  C191  1  0.77994000  0.68949000  0.68949000  1
  C  C192  1  0.83522000  0.34960000  0.34960000  1
  C  C193  1  0.83522000  0.34960000  0.65040000  1
  C  C194  1  0.83522000  0.65040000  0.34960000  1
  C  C195  1  0.83522000  0.65040000  0.65040000  1
  C  C196  1  0.86569000  0.32920000  0.41309000  1
  C  C197  1  0.86569000  0.32920000  0.58691000  1
  C  C198  1  0.86569000  0.41309000  0.32920000  1
  C  C199  1  0.86569000  0.41309000  0.67080000  1
  C  C200  1  0.86569000  0.58691000  0.32920000  1
  C  C201  1  0.86569000  0.58691000  0.67080000  1
  C  C202  1  0.86569000  0.67080000  0.41309000  1
  C  C203  1  0.86569000  0.67080000  0.58691000  1
  N  N204  1  0.08500000  0.38009000  0.43193000  1
  N  N205  1  0.08500000  0.38009000  0.56807000  1
  N  N206  1  0.08500000  0.43193000  0.38009000  1
  N  N207  1  0.08500000  0.43193000  0.61991000  1
  N  N208  1  0.08500000  0.56807000  0.38009000  1
  N  N209  1  0.08500000  0.56807000  0.61991000  1
  N  N210  1  0.08500000  0.61991000  0.43193000  1
  N  N211  1  0.08500000  0.61991000  0.56807000  1
  N  N212  1  0.38009000  0.08500000  0.43193000  1
  N  N213  1  0.38009000  0.08500000  0.56807000  1
  N  N214  1  0.38009000  0.43193000  0.08500000  1
  N  N215  1  0.38009000  0.43193000  0.91500000  1
  N  N216  1  0.38009000  0.56807000  0.08500000  1
  N  N217  1  0.38009000  0.56807000  0.91500000  1
  N  N218  1  0.38009000  0.91500000  0.43193000  1
  N  N219  1  0.38009000  0.91500000  0.56807000  1
  N  N220  1  0.43193000  0.08500000  0.38009000  1
  N  N221  1  0.43193000  0.08500000  0.61991000  1
  N  N222  1  0.43193000  0.38009000  0.08500000  1
  N  N223  1  0.43193000  0.38009000  0.91500000  1
  N  N224  1  0.43193000  0.61991000  0.08500000  1
  N  N225  1  0.43193000  0.61991000  0.91500000  1
  N  N226  1  0.43193000  0.91500000  0.38009000  1
  N  N227  1  0.43193000  0.91500000  0.61991000  1
  N  N228  1  0.56807000  0.08500000  0.38009000  1
  N  N229  1  0.56807000  0.08500000  0.61991000  1
  N  N230  1  0.56807000  0.38009000  0.08500000  1
  N  N231  1  0.56807000  0.38009000  0.91500000  1
  N  N232  1  0.56807000  0.61991000  0.08500000  1
  N  N233  1  0.56807000  0.61991000  0.91500000  1
  N  N234  1  0.56807000  0.91500000  0.38009000  1
  N  N235  1  0.56807000  0.91500000  0.61991000  1
  N  N236  1  0.61991000  0.08500000  0.43193000  1
  N  N237  1  0.61991000  0.08500000  0.56807000  1
  N  N238  1  0.61991000  0.43193000  0.08500000  1
  N  N239  1  0.61991000  0.43193000  0.91500000  1
  N  N240  1  0.61991000  0.56807000  0.08500000  1
  N  N241  1  0.61991000  0.56807000  0.91500000  1
  N  N242  1  0.61991000  0.91500000  0.43193000  1
  N  N243  1  0.61991000  0.91500000  0.56807000  1
  N  N244  1  0.91500000  0.38009000  0.43193000  1
  N  N245  1  0.91500000  0.38009000  0.56807000  1
  N  N246  1  0.91500000  0.43193000  0.38009000  1
  N  N247  1  0.91500000  0.43193000  0.61991000  1
  N  N248  1  0.91500000  0.56807000  0.38009000  1
  N  N249  1  0.91500000  0.56807000  0.61991000  1
  N  N250  1  0.91500000  0.61991000  0.43193000  1
  N  N251  1  0.91500000  0.61991000  0.56807000  1
