# generated using pymatgen
data_Zn7H28C44(N9O8)2
_symmetry_space_group_name_H-M   'P 1'
_cell_length_a   9.78100000
_cell_length_b   11.90500000
_cell_length_c   15.22000000
_cell_angle_alpha   96.50000000
_cell_angle_beta   99.07000000
_cell_angle_gamma   112.41000000
_symmetry_Int_Tables_number   1
_chemical_formula_structural   Zn7H28C44(N9O8)2
_chemical_formula_sum   'Zn7 H28 C44 N18 O16'
_cell_volume   1588.51225848
_cell_formula_units_Z   1
loop_
 _symmetry_equiv_pos_site_id
 _symmetry_equiv_pos_as_xyz
  1  'x, y, z'
loop_
 _atom_site_type_symbol
 _atom_site_label
 _atom_site_symmetry_multiplicity
 _atom_site_fract_x
 _atom_site_fract_y
 _atom_site_fract_z
 _atom_site_occupancy
  Zn  Zn0  1  0.01127000  0.42971000  0.70515000  1
  Zn  Zn1  1  0.10931000  0.31173000  0.32978000  1
  Zn  Zn2  1  0.43913000  0.60484000  0.07046000  1
  Zn  Zn3  1  0.50000000  0.50000000  0.50000000  1
  Zn  Zn4  1  0.56087000  0.39516000  0.92954000  1
  Zn  Zn5  1  0.89069000  0.68827000  0.67022000  1
  Zn  Zn6  1  0.98873000  0.57029000  0.29485000  1
  H  H7  1  0.07140000  0.67840000  0.51400000  1
  H  H8  1  0.17150000  0.56950000  0.90890000  1
  H  H9  1  0.17250000  0.63310000  0.14620000  1
  H  H10  1  0.19600000  0.98860000  0.33490000  1
  H  H11  1  0.27690000  0.96040000  0.05750000  1
  H  H12  1  0.29150000  0.34960000  0.76460000  1
  H  H13  1  0.29150000  0.91110000  0.57720000  1
  H  H14  1  0.30800000  0.99870000  0.82360000  1
  H  H15  1  0.31260000  0.53810000  0.64260000  1
  H  H16  1  0.34370000  0.16820000  0.10420000  1
  H  H17  1  0.34800000  0.40300000  0.20370000  1
  H  H18  1  0.37700000  0.75560000  0.58950000  1
  H  H19  1  0.42030000  0.70810000  0.80550000  1
  H  H20  1  0.46050000  0.11390000  0.60030000  1
  H  H21  1  0.53950000  0.88610000  0.39970000  1
  H  H22  1  0.57970000  0.29190000  0.19450000  1
  H  H23  1  0.62300000  0.24440000  0.41050000  1
  H  H24  1  0.65200000  0.59700000  0.79630000  1
  H  H25  1  0.65630000  0.83180000  0.89580000  1
  H  H26  1  0.68740000  0.46190000  0.35740000  1
  H  H27  1  0.69200000  0.00130000  0.17640000  1
  H  H28  1  0.70850000  0.08890000  0.42280000  1
  H  H29  1  0.70850000  0.65040000  0.23540000  1
  H  H30  1  0.72310000  0.03960000  0.94250000  1
  H  H31  1  0.80400000  0.01140000  0.66510000  1
  H  H32  1  0.82750000  0.36690000  0.85380000  1
  H  H33  1  0.82850000  0.43050000  0.09110000  1
  H  H34  1  0.92860000  0.32160000  0.48600000  1
  C  C35  1  0.03150000  0.37010000  0.50770000  1
  C  C36  1  0.18710000  0.76100000  0.74790000  1
  C  C37  1  0.19310000  0.57210000  0.17120000  1
  C  C38  1  0.22360000  0.52340000  0.89040000  1
  C  C39  1  0.23840000  0.78490000  0.35410000  1
  C  C40  1  0.23920000  0.48660000  0.59220000  1
  C  C41  1  0.28810000  0.44780000  0.20240000  1
  C  C42  1  0.28840000  0.40410000  0.81230000  1
  C  C43  1  0.29890000  0.00900000  0.35460000  1
  C  C44  1  0.33960000  0.84070000  0.80610000  1
  C  C45  1  0.34250000  0.23050000  0.36310000  1
  C  C46  1  0.34850000  0.91570000  0.36590000  1
  C  C47  1  0.37380000  0.01030000  0.09130000  1
  C  C48  1  0.37900000  0.96550000  0.83710000  1
  C  C49  1  0.39500000  0.93120000  0.59300000  1
  C  C50  1  0.39990000  0.13150000  0.37190000  1
  C  C51  1  0.41310000  0.13420000  0.12020000  1
  C  C52  1  0.43550000  0.82460000  0.08340000  1
  C  C53  1  0.44490000  0.79130000  0.82690000  1
  C  C54  1  0.44580000  0.83790000  0.60150000  1
  C  C55  1  0.47800000  0.95910000  0.11230000  1
  C  C56  1  0.49580000  0.05260000  0.60780000  1
  C  C57  1  0.50420000  0.94740000  0.39220000  1
  C  C58  1  0.52200000  0.04090000  0.88770000  1
  C  C59  1  0.55420000  0.16210000  0.39850000  1
  C  C60  1  0.55510000  0.20870000  0.17310000  1
  C  C61  1  0.56450000  0.17540000  0.91660000  1
  C  C62  1  0.58690000  0.86580000  0.87980000  1
  C  C63  1  0.60010000  0.86850000  0.62810000  1
  C  C64  1  0.60500000  0.06880000  0.40700000  1
  C  C65  1  0.62100000  0.03450000  0.16290000  1
  C  C66  1  0.62620000  0.98970000  0.90870000  1
  C  C67  1  0.65150000  0.08430000  0.63410000  1
  C  C68  1  0.65750000  0.76950000  0.63690000  1
  C  C69  1  0.66040000  0.15930000  0.19390000  1
  C  C70  1  0.70110000  0.99100000  0.64540000  1
  C  C71  1  0.71160000  0.59590000  0.18770000  1
  C  C72  1  0.71190000  0.55220000  0.79760000  1
  C  C73  1  0.76080000  0.51340000  0.40780000  1
  C  C74  1  0.76160000  0.21510000  0.64590000  1
  C  C75  1  0.77640000  0.47660000  0.10960000  1
  C  C76  1  0.80690000  0.42790000  0.82880000  1
  C  C77  1  0.81290000  0.23900000  0.25210000  1
  C  C78  1  0.96850000  0.62990000  0.49230000  1
  N  N79  1  0.09250000  0.43230000  0.59280000  1
  N  N80  1  0.12120000  0.51390000  0.22850000  1
  N  N81  1  0.13320000  0.38530000  0.45820000  1
  N  N82  1  0.18340000  0.43210000  0.24970000  1
  N  N83  1  0.18390000  0.45080000  0.80890000  1
  N  N84  1  0.27010000  0.46090000  0.51430000  1
  N  N85  1  0.29990000  0.53470000  0.15210000  1
  N  N86  1  0.34500000  0.52230000  0.94180000  1
  N  N87  1  0.38790000  0.44430000  0.89160000  1
  N  N88  1  0.61210000  0.55570000  0.10840000  1
  N  N89  1  0.65500000  0.47770000  0.05820000  1
  N  N90  1  0.70010000  0.46530000  0.84790000  1
  N  N91  1  0.72990000  0.53910000  0.48570000  1
  N  N92  1  0.81610000  0.54920000  0.19110000  1
  N  N93  1  0.81660000  0.56790000  0.75030000  1
  N  N94  1  0.86680000  0.61470000  0.54180000  1
  N  N95  1  0.87880000  0.48610000  0.77150000  1
  N  N96  1  0.90750000  0.56770000  0.40720000  1
  O  O97  1  0.09400000  0.81200000  0.73040000  1
  O  O98  1  0.10700000  0.75510000  0.30420000  1
  O  O99  1  0.15380000  0.65120000  0.71820000  1
  O  O100  1  0.20150000  0.19300000  0.33130000  1
  O  O101  1  0.27240000  0.70960000  0.39210000  1
  O  O102  1  0.30590000  0.75460000  0.04260000  1
  O  O103  1  0.42910000  0.34180000  0.38520000  1
  O  O104  1  0.46310000  0.21590000  0.89430000  1
  O  O105  1  0.53690000  0.78410000  0.10570000  1
  O  O106  1  0.57090000  0.65820000  0.61480000  1
  O  O107  1  0.69410000  0.24540000  0.95740000  1
  O  O108  1  0.72760000  0.29040000  0.60790000  1
  O  O109  1  0.79850000  0.80700000  0.66870000  1
  O  O110  1  0.84620000  0.34880000  0.28180000  1
  O  O111  1  0.89300000  0.24490000  0.69580000  1
  O  O112  1  0.90600000  0.18800000  0.26960000  1
