# generated using pymatgen
data_LuPH7C5NO7
_symmetry_space_group_name_H-M   'P 1'
_cell_length_a   8.90620000
_cell_length_b   8.94660000
_cell_length_c   15.53530000
_cell_angle_alpha   90.00000000
_cell_angle_beta   90.00000000
_cell_angle_gamma   90.00000000
_symmetry_Int_Tables_number   1
_chemical_formula_structural   LuPH7C5NO7
_chemical_formula_sum   'Lu4 P4 H28 C20 N4 O28'
_cell_volume   1237.85594963
_cell_formula_units_Z   4
loop_
 _symmetry_equiv_pos_site_id
 _symmetry_equiv_pos_as_xyz
  1  'x, y, z'
loop_
 _atom_site_type_symbol
 _atom_site_label
 _atom_site_symmetry_multiplicity
 _atom_site_fract_x
 _atom_site_fract_y
 _atom_site_fract_z
 _atom_site_occupancy
  Lu  Lu0  1  0.11178000  0.53214000  0.60491000  1
  Lu  Lu1  1  0.38822000  0.03214000  0.39509000  1
  Lu  Lu2  1  0.61178000  0.46786000  0.89509000  1
  Lu  Lu3  1  0.88822000  0.96786000  0.10491000  1
  P  P4  1  0.06669000  0.12683000  0.29390000  1
  P  P5  1  0.43331000  0.62683000  0.70610000  1
  P  P6  1  0.56669000  0.87317000  0.20610000  1
  P  P7  1  0.93331000  0.37317000  0.79390000  1
  H  H8  1  0.01210000  0.70780000  0.80560000  1
  H  H9  1  0.01750000  0.87920000  0.78360000  1
  H  H10  1  0.09710000  0.22960000  0.82380000  1
  H  H11  1  0.10850000  0.96020000  0.66560000  1
  H  H12  1  0.17530000  0.30390000  0.20380000  1
  H  H13  1  0.22080000  0.44220000  0.31270000  1
  H  H14  1  0.24950000  0.14700000  0.18770000  1
  H  H15  1  0.25050000  0.64700000  0.81230000  1
  H  H16  1  0.27920000  0.94220000  0.68730000  1
  H  H17  1  0.32470000  0.80390000  0.79620000  1
  H  H18  1  0.39150000  0.46020000  0.33440000  1
  H  H19  1  0.40290000  0.72960000  0.17620000  1
  H  H20  1  0.48250000  0.37920000  0.21640000  1
  H  H21  1  0.48790000  0.20780000  0.19440000  1
  H  H22  1  0.51210000  0.29220000  0.69440000  1
  H  H23  1  0.51750000  0.12080000  0.71640000  1
  H  H24  1  0.59710000  0.77040000  0.67620000  1
  H  H25  1  0.60850000  0.03980000  0.83440000  1
  H  H26  1  0.67530000  0.69610000  0.29620000  1
  H  H27  1  0.72080000  0.55780000  0.18730000  1
  H  H28  1  0.74950000  0.85300000  0.31230000  1
  H  H29  1  0.75050000  0.35300000  0.68770000  1
  H  H30  1  0.77920000  0.05780000  0.81270000  1
  H  H31  1  0.82470000  0.19610000  0.70380000  1
  H  H32  1  0.89150000  0.53980000  0.16560000  1
  H  H33  1  0.90290000  0.27040000  0.32380000  1
  H  H34  1  0.98250000  0.62080000  0.28360000  1
  H  H35  1  0.98790000  0.79220000  0.30560000  1
  C  C36  1  0.01870000  0.77950000  0.75890000  1
  C  C37  1  0.11480000  0.73970000  0.19850000  1
  C  C38  1  0.19350000  0.89280000  0.66130000  1
  C  C39  1  0.21420000  0.21510000  0.23190000  1
  C  C40  1  0.22670000  0.86580000  0.56800000  1
  C  C41  1  0.27330000  0.36580000  0.43200000  1
  C  C42  1  0.28580000  0.71510000  0.76810000  1
  C  C43  1  0.30650000  0.39280000  0.33870000  1
  C  C44  1  0.38520000  0.23970000  0.80150000  1
  C  C45  1  0.48130000  0.27950000  0.24110000  1
  C  C46  1  0.51870000  0.22050000  0.74110000  1
  C  C47  1  0.61480000  0.26030000  0.30150000  1
  C  C48  1  0.69350000  0.10720000  0.83870000  1
  C  C49  1  0.71420000  0.78490000  0.26810000  1
  C  C50  1  0.72670000  0.13420000  0.93200000  1
  C  C51  1  0.77330000  0.63420000  0.06800000  1
  C  C52  1  0.78580000  0.28490000  0.73190000  1
  C  C53  1  0.80650000  0.60720000  0.16130000  1
  C  C54  1  0.88520000  0.76030000  0.69850000  1
  C  C55  1  0.98130000  0.72050000  0.25890000  1
  N  N56  1  0.15980000  0.75640000  0.71070000  1
  N  N57  1  0.34020000  0.25640000  0.28930000  1
  N  N58  1  0.65980000  0.24360000  0.78930000  1
  N  N59  1  0.84020000  0.74360000  0.21070000  1
  O  O60  1  0.01740000  0.25030000  0.84740000  1
  O  O61  1  0.03900000  0.45070000  0.73340000  1
  O  O62  1  0.09600000  0.81250000  0.12930000  1
  O  O63  1  0.14660000  0.02480000  0.35560000  1
  O  O64  1  0.18480000  0.74320000  0.53440000  1
  O  O65  1  0.20860000  0.46910000  0.47190000  1
  O  O66  1  0.23810000  0.68470000  0.22210000  1
  O  O67  1  0.26190000  0.18470000  0.77790000  1
  O  O68  1  0.29140000  0.96910000  0.52810000  1
  O  O69  1  0.31520000  0.24320000  0.46560000  1
  O  O70  1  0.35340000  0.52480000  0.64440000  1
  O  O71  1  0.40400000  0.31250000  0.87070000  1
  O  O72  1  0.46100000  0.95070000  0.26660000  1
  O  O73  1  0.48260000  0.75030000  0.15260000  1
  O  O74  1  0.51740000  0.74970000  0.65260000  1
  O  O75  1  0.53900000  0.54930000  0.76660000  1
  O  O76  1  0.59600000  0.18750000  0.37070000  1
  O  O77  1  0.64660000  0.97520000  0.14440000  1
  O  O78  1  0.68480000  0.25680000  0.96560000  1
  O  O79  1  0.70860000  0.53090000  0.02810000  1
  O  O80  1  0.73810000  0.31530000  0.27790000  1
  O  O81  1  0.76190000  0.81530000  0.72210000  1
  O  O82  1  0.79140000  0.03090000  0.97190000  1
  O  O83  1  0.81520000  0.75680000  0.03440000  1
  O  O84  1  0.85340000  0.47520000  0.85560000  1
  O  O85  1  0.90400000  0.68750000  0.62930000  1
  O  O86  1  0.96100000  0.04930000  0.23340000  1
  O  O87  1  0.98260000  0.24970000  0.34740000  1
