# generated using pymatgen
data_CoH7C13NO4
_symmetry_space_group_name_H-M   'P 1'
_cell_length_a   11.05000000
_cell_length_b   11.05000000
_cell_length_c   27.77200000
_cell_angle_alpha   90.00000000
_cell_angle_beta   90.00000000
_cell_angle_gamma   120.00000000
_symmetry_Int_Tables_number   1
_chemical_formula_structural   CoH7C13NO4
_chemical_formula_sum   'Co6 H42 C78 N6 O24'
_cell_volume   2936.71867059
_cell_formula_units_Z   6
loop_
 _symmetry_equiv_pos_site_id
 _symmetry_equiv_pos_as_xyz
  1  'x, y, z'
loop_
 _atom_site_type_symbol
 _atom_site_label
 _atom_site_symmetry_multiplicity
 _atom_site_fract_x
 _atom_site_fract_y
 _atom_site_fract_z
 _atom_site_occupancy
  Co  Co0  1  0.92301000  0.75378000  0.02925000  1
  Co  Co1  1  0.83077000  0.07699000  0.69592000  1
  Co  Co2  1  0.75378000  0.92301000  0.97075000  1
  Co  Co3  1  0.24622000  0.16923000  0.36258000  1
  Co  Co4  1  0.16923000  0.24622000  0.63742000  1
  Co  Co5  1  0.07699000  0.83077000  0.30408000  1
  H  H6  1  0.99720000  0.29530000  0.50637000  1
  H  H7  1  0.94320000  0.50080000  0.00073000  1
  H  H8  1  0.90360000  0.35210000  0.44147000  1
  H  H9  1  0.84270000  0.50620000  0.40647000  1
  H  H10  1  0.80670000  0.45430000  0.91640000  1
  H  H11  1  0.79320000  0.25360000  0.77690000  1
  H  H12  1  0.75400000  0.30690000  0.85070000  1
  H  H13  1  0.74640000  0.53960000  0.11023000  1
  H  H14  1  0.70470000  0.70190000  0.83970000  1
  H  H15  1  0.70190000  0.70470000  0.16030000  1
  H  H16  1  0.69310000  0.44710000  0.18403000  1
  H  H17  1  0.66350000  0.15730000  0.07313000  1
  H  H18  1  0.64790000  0.55150000  0.77480000  1
  H  H19  1  0.64760000  0.19330000  0.58307000  1
  H  H20  1  0.55760000  0.05680000  0.66740000  1
  H  H21  1  0.55290000  0.24600000  0.51737000  1
  H  H22  1  0.55150000  0.64790000  0.22520000  1
  H  H23  1  0.54570000  0.35240000  0.24973000  1
  H  H24  1  0.53960000  0.74640000  0.88977000  1
  H  H25  1  0.50620000  0.84270000  0.59353000  1
  H  H26  1  0.50080000  0.94320000  0.99927000  1
  H  H27  1  0.49920000  0.44240000  0.33407000  1
  H  H28  1  0.49380000  0.33650000  0.73980000  1
  H  H29  1  0.46040000  0.20680000  0.44357000  1
  H  H30  1  0.45430000  0.80670000  0.08360000  1
  H  H31  1  0.44850000  0.09640000  0.10813000  1
  H  H32  1  0.44710000  0.69310000  0.81597000  1
  H  H33  1  0.44240000  0.49920000  0.66593000  1
  H  H34  1  0.35240000  0.54570000  0.75027000  1
  H  H35  1  0.35210000  0.90360000  0.55853000  1
  H  H36  1  0.33650000  0.49380000  0.26020000  1
  H  H37  1  0.30690000  0.75400000  0.14930000  1
  H  H38  1  0.29810000  0.00280000  0.17303000  1
  H  H39  1  0.29530000  0.99720000  0.49363000  1
  H  H40  1  0.25360000  0.79320000  0.22310000  1
  H  H41  1  0.24600000  0.55290000  0.48263000  1
  H  H42  1  0.20680000  0.46040000  0.55643000  1
  H  H43  1  0.19330000  0.64760000  0.41693000  1
  H  H44  1  0.15730000  0.66350000  0.92687000  1
  H  H45  1  0.09640000  0.44850000  0.89187000  1
  H  H46  1  0.05680000  0.55760000  0.33260000  1
  H  H47  1  0.00280000  0.29810000  0.82697000  1
  C  C48  1  0.91030000  0.28900000  0.50917000  1
  C  C49  1  0.90270000  0.21990000  0.59619000  1
  C  C50  1  0.87550000  0.45890000  0.02455000  1
  C  C51  1  0.85320000  0.32070000  0.46998000  1
  C  C52  1  0.83670000  0.24690000  0.55382000  1
  C  C53  1  0.83200000  0.22430000  0.99511000  1
  C  C54  1  0.80260000  0.31160000  0.02909000  1
  C  C55  1  0.78010000  0.68280000  0.92952000  1
  C  C56  1  0.77570000  0.60770000  0.32845000  1
  C  C57  1  0.77260000  0.47290000  0.88837000  1
  C  C58  1  0.76000000  0.48070000  0.08977000  1
  C  C59  1  0.75310000  0.58980000  0.88715000  1
  C  C60  1  0.74680000  0.45620000  0.40141000  1
  C  C61  1  0.74230000  0.38440000  0.84878000  1
  C  C62  1  0.72070000  0.24000000  0.75644000  1
  C  C63  1  0.71820000  0.30530000  0.47337000  1
  C  C64  1  0.71100000  0.62130000  0.84250000  1
  C  C65  1  0.70940000  0.25320000  0.06807000  1
  C  C66  1  0.70030000  0.22740000  0.55504000  1
  C  C67  1  0.69470000  0.41290000  0.80670000  1
  C  C68  1  0.68840000  0.49100000  0.36243000  1
  C  C69  1  0.68580000  0.33700000  0.09872000  1
  C  C70  1  0.68280000  0.78010000  0.07048000  1
  C  C71  1  0.67930000  0.53250000  0.80331000  1
  C  C72  1  0.66300000  0.34880000  0.43206000  1
  C  C73  1  0.65120000  0.31420000  0.76539000  1
  C  C74  1  0.64210000  0.25770000  0.51545000  1
  C  C75  1  0.62130000  0.71100000  0.15750000  1
  C  C76  1  0.61560000  0.35790000  0.18211000  1
  C  C77  1  0.60770000  0.77570000  0.67155000  1
  C  C78  1  0.58980000  0.75310000  0.11285000  1
  C  C79  1  0.58710000  0.28180000  0.14003000  1
  C  C80  1  0.58340000  0.12450000  0.69122000  1
  C  C81  1  0.54380000  0.29060000  0.73474000  1
  C  C82  1  0.54110000  0.41660000  0.35789000  1
  C  C83  1  0.53250000  0.67930000  0.19669000  1
  C  C84  1  0.52710000  0.29970000  0.22170000  1
  C  C85  1  0.51930000  0.27930000  0.42311000  1
  C  C86  1  0.50900000  0.19740000  0.69576000  1
  C  C87  1  0.49100000  0.68840000  0.63757000  1
  C  C88  1  0.48070000  0.76000000  0.91023000  1
  C  C89  1  0.47290000  0.77260000  0.11163000  1
  C  C90  1  0.46750000  0.14680000  0.13664000  1
  C  C91  1  0.45890000  0.87550000  0.97545000  1
  C  C92  1  0.45620000  0.74680000  0.59859000  1
  C  C93  1  0.41660000  0.54110000  0.64211000  1
  C  C94  1  0.41290000  0.69470000  0.19330000  1
  C  C95  1  0.41020000  0.16330000  0.22048000  1
  C  C96  1  0.39230000  0.16800000  0.66178000  1
  C  C97  1  0.38440000  0.74230000  0.15122000  1
  C  C98  1  0.37870000  0.08970000  0.17583000  1
  C  C99  1  0.35790000  0.61560000  0.81789000  1
  C  C100  1  0.34880000  0.66300000  0.56794000  1
  C  C101  1  0.33700000  0.68580000  0.90128000  1
  C  C102  1  0.32070000  0.85320000  0.53002000  1
  C  C103  1  0.31720000  0.09730000  0.26285000  1
  C  C104  1  0.31420000  0.65120000  0.23461000  1
  C  C105  1  0.31160000  0.80260000  0.97091000  1
  C  C106  1  0.30530000  0.71820000  0.52663000  1
  C  C107  1  0.29970000  0.52710000  0.77830000  1
  C  C108  1  0.29060000  0.54380000  0.26526000  1
  C  C109  1  0.28900000  0.91030000  0.49083000  1
  C  C110  1  0.28180000  0.58710000  0.85997000  1
  C  C111  1  0.27930000  0.51930000  0.57689000  1
  C  C112  1  0.25770000  0.64210000  0.48455000  1
  C  C113  1  0.25320000  0.70940000  0.93193000  1
  C  C114  1  0.24690000  0.83670000  0.44618000  1
  C  C115  1  0.24000000  0.72070000  0.24356000  1
  C  C116  1  0.22740000  0.70030000  0.44496000  1
  C  C117  1  0.22430000  0.83200000  0.00489000  1
  C  C118  1  0.21990000  0.90270000  0.40381000  1
  C  C119  1  0.19740000  0.50900000  0.30424000  1
  C  C120  1  0.16800000  0.39230000  0.33822000  1
  C  C121  1  0.16330000  0.41020000  0.77952000  1
  C  C122  1  0.14680000  0.46750000  0.86336000  1
  C  C123  1  0.12450000  0.58340000  0.30878000  1
  C  C124  1  0.09730000  0.31720000  0.73715000  1
  C  C125  1  0.08970000  0.37870000  0.82417000  1
  N  N126  1  0.84970000  0.53750000  0.05311000  1
  N  N127  1  0.68780000  0.15030000  0.71978000  1
  N  N128  1  0.53750000  0.84970000  0.94689000  1
  N  N129  1  0.46250000  0.31220000  0.38645000  1
  N  N130  1  0.31220000  0.46250000  0.61355000  1
  N  N131  1  0.15030000  0.68780000  0.28022000  1
  O  O132  1  0.97460000  0.22070000  0.74186000  1
  O  O133  1  0.90720000  0.28180000  0.96016000  1
  O  O134  1  0.90360000  0.67750000  0.33840000  1
  O  O135  1  0.83210000  0.18130000  0.63405000  1
  O  O136  1  0.81870000  0.65080000  0.96738000  1
  O  O137  1  0.77930000  0.75390000  0.07519000  1
  O  O138  1  0.77390000  0.09640000  0.00506000  1
  O  O139  1  0.75390000  0.77930000  0.92481000  1
  O  O140  1  0.71820000  0.62540000  0.29350000  1
  O  O141  1  0.67750000  0.90360000  0.66160000  1
  O  O142  1  0.65080000  0.81870000  0.03262000  1
  O  O143  1  0.62540000  0.71820000  0.70650000  1
  O  O144  1  0.37460000  0.09280000  0.62683000  1
  O  O145  1  0.34920000  0.16790000  0.30071000  1
  O  O146  1  0.32250000  0.22610000  0.67173000  1
  O  O147  1  0.28180000  0.90720000  0.03984000  1
  O  O148  1  0.24610000  0.02540000  0.40852000  1
  O  O149  1  0.22610000  0.32250000  0.32827000  1
  O  O150  1  0.22070000  0.97460000  0.25814000  1
  O  O151  1  0.18130000  0.83210000  0.36595000  1
  O  O152  1  0.16790000  0.34920000  0.69929000  1
  O  O153  1  0.09640000  0.77390000  0.99494000  1
  O  O154  1  0.09280000  0.37460000  0.37317000  1
  O  O155  1  0.02540000  0.24610000  0.59148000  1
