# generated using pymatgen
data_TbH6(C2O)6
_symmetry_space_group_name_H-M   'P 1'
_cell_length_a   10.76220000
_cell_length_b   11.30380000
_cell_length_c   26.22400000
_cell_angle_alpha   85.08600000
_cell_angle_beta   88.09200000
_cell_angle_gamma   62.22500000
_symmetry_Int_Tables_number   1
_chemical_formula_structural   TbH6(C2O)6
_chemical_formula_sum   'Tb6 H36 C72 O36'
_cell_volume   2812.22729001
_cell_formula_units_Z   6
loop_
 _symmetry_equiv_pos_site_id
 _symmetry_equiv_pos_as_xyz
  1  'x, y, z'
loop_
 _atom_site_type_symbol
 _atom_site_label
 _atom_site_symmetry_multiplicity
 _atom_site_fract_x
 _atom_site_fract_y
 _atom_site_fract_z
 _atom_site_occupancy
  Tb  Tb0  1  0.34386000  0.84636000  0.24189000  1
  Tb  Tb1  1  0.37952000  0.03628000  0.06044000  1
  Tb  Tb2  1  0.41127000  0.61743000  0.39962000  1
  Tb  Tb3  1  0.58873000  0.38257000  0.60038000  1
  Tb  Tb4  1  0.62048000  0.96372000  0.93956000  1
  Tb  Tb5  1  0.65614000  0.15364000  0.75811000  1
  H  H6  1  0.01730000  0.69110000  0.39490000  1
  H  H7  1  0.03860000  0.00350000  0.04990000  1
  H  H8  1  0.06050000  0.64780000  0.53250000  1
  H  H9  1  0.07180000  0.75330000  0.17130000  1
  H  H10  1  0.08560000  0.15770000  0.74840000  1
  H  H11  1  0.13270000  0.37400000  0.43640000  1
  H  H12  1  0.14540000  0.22780000  0.84660000  1
  H  H13  1  0.17130000  0.98570000  0.97270000  1
  H  H14  1  0.18390000  0.33250000  0.59690000  1
  H  H15  1  0.29250000  0.17190000  0.74010000  1
  H  H16  1  0.33310000  0.35810000  0.14750000  1
  H  H17  1  0.36190000  0.06520000  0.42700000  1
  H  H18  1  0.36970000  0.51520000  0.18780000  1
  H  H19  1  0.40610000  0.22020000  0.46590000  1
  H  H20  1  0.43250000  0.12130000  0.27770000  1
  H  H21  1  0.44770000  0.41100000  0.07570000  1
  H  H22  1  0.45480000  0.61210000  0.07330000  1
  H  H23  1  0.46110000  0.27700000  0.31770000  1
  H  H24  1  0.53890000  0.72300000  0.68230000  1
  H  H25  1  0.54520000  0.38790000  0.92670000  1
  H  H26  1  0.55230000  0.58900000  0.92430000  1
  H  H27  1  0.56750000  0.87870000  0.72230000  1
  H  H28  1  0.59390000  0.77980000  0.53410000  1
  H  H29  1  0.63030000  0.48480000  0.81220000  1
  H  H30  1  0.63810000  0.93480000  0.57300000  1
  H  H31  1  0.66690000  0.64190000  0.85250000  1
  H  H32  1  0.70750000  0.82810000  0.25990000  1
  H  H33  1  0.81610000  0.66750000  0.40310000  1
  H  H34  1  0.82870000  0.01430000  0.02730000  1
  H  H35  1  0.85460000  0.77220000  0.15340000  1
  H  H36  1  0.86730000  0.62600000  0.56360000  1
  H  H37  1  0.91440000  0.84230000  0.25160000  1
  H  H38  1  0.92820000  0.24670000  0.82870000  1
  H  H39  1  0.93950000  0.35220000  0.46750000  1
  H  H40  1  0.96140000  0.99650000  0.95010000  1
  H  H41  1  0.98270000  0.30890000  0.60510000  1
  C  C42  1  0.00240000  0.95540000  0.07010000  1
  C  C43  1  0.00930000  0.23960000  0.67850000  1
  C  C44  1  0.02110000  0.80770000  0.14290000  1
  C  C45  1  0.03700000  0.58750000  0.51870000  1
  C  C46  1  0.04300000  0.28500000  0.63300000  1
  C  C47  1  0.07670000  0.87720000  0.11250000  1
  C  C48  1  0.08000000  0.42660000  0.46220000  1
  C  C49  1  0.10400000  0.19460000  0.71790000  1
  C  C50  1  0.10850000  0.18230000  0.86800000  1
  C  C51  1  0.11660000  0.51430000  0.48020000  1
  C  C52  1  0.12400000  0.03600000  0.94300000  1
  C  C53  1  0.12590000  0.76640000  0.31660000  1
  C  C54  1  0.16500000  0.29800000  0.62780000  1
  C  C55  1  0.18310000  0.10450000  0.91100000  1
  C  C56  1  0.20980000  0.87720000  0.12800000  1
  C  C57  1  0.22850000  0.20320000  0.71310000  1
  C  C58  1  0.23100000  0.53520000  0.45660000  1
  C  C59  1  0.25710000  0.25840000  0.66790000  1
  C  C60  1  0.33000000  0.08160000  0.92270000  1
  C  C61  1  0.36300000  0.34100000  0.18150000  1
  C  C62  1  0.37090000  0.11790000  0.18180000  1
  C  C63  1  0.38240000  0.43610000  0.20610000  1
  C  C64  1  0.38800000  0.22250000  0.20810000  1
  C  C65  1  0.38970000  0.27570000  0.66360000  1
  C  C66  1  0.41700000  0.03880000  0.45650000  1
  C  C67  1  0.42050000  0.41420000  0.25720000  1
  C  C68  1  0.42130000  0.20000000  0.25950000  1
  C  C69  1  0.43780000  0.81070000  0.45330000  1
  C  C70  1  0.43800000  0.29320000  0.28310000  1
  C  C71  1  0.44250000  0.51790000  0.28140000  1
  C  C72  1  0.44400000  0.13160000  0.47950000  1
  C  C73  1  0.46860000  0.44660000  0.04530000  1
  C  C74  1  0.47130000  0.90980000  0.47740000  1
  C  C75  1  0.47300000  0.56620000  0.04390000  1
  C  C76  1  0.48800000  0.24700000  0.00130000  1
  C  C77  1  0.49480000  0.38050000  0.00240000  1
  C  C78  1  0.50520000  0.61950000  0.99760000  1
  C  C79  1  0.51200000  0.75300000  0.99870000  1
  C  C80  1  0.52700000  0.43380000  0.95610000  1
  C  C81  1  0.52870000  0.09020000  0.52260000  1
  C  C82  1  0.53140000  0.55340000  0.95470000  1
  C  C83  1  0.55600000  0.86840000  0.52050000  1
  C  C84  1  0.55750000  0.48210000  0.71860000  1
  C  C85  1  0.56200000  0.70680000  0.71690000  1
  C  C86  1  0.56220000  0.18930000  0.54670000  1
  C  C87  1  0.57870000  0.80000000  0.74050000  1
  C  C88  1  0.57950000  0.58580000  0.74280000  1
  C  C89  1  0.58300000  0.96120000  0.54350000  1
  C  C90  1  0.61030000  0.72430000  0.33640000  1
  C  C91  1  0.61200000  0.77750000  0.79190000  1
  C  C92  1  0.61760000  0.56390000  0.79390000  1
  C  C93  1  0.62910000  0.88210000  0.81820000  1
  C  C94  1  0.63700000  0.65900000  0.81850000  1
  C  C95  1  0.67000000  0.91840000  0.07730000  1
  C  C96  1  0.74290000  0.74160000  0.33210000  1
  C  C97  1  0.76900000  0.46480000  0.54340000  1
  C  C98  1  0.77150000  0.79680000  0.28690000  1
  C  C99  1  0.79020000  0.12280000  0.87200000  1
  C  C100  1  0.81690000  0.89550000  0.08900000  1
  C  C101  1  0.83500000  0.70200000  0.37220000  1
  C  C102  1  0.87410000  0.23360000  0.68340000  1
  C  C103  1  0.87600000  0.96400000  0.05700000  1
  C  C104  1  0.88340000  0.48570000  0.51980000  1
  C  C105  1  0.89150000  0.81770000  0.13200000  1
  C  C106  1  0.89600000  0.80540000  0.28210000  1
  C  C107  1  0.92000000  0.57340000  0.53780000  1
  C  C108  1  0.92330000  0.12280000  0.88750000  1
  C  C109  1  0.95700000  0.71500000  0.36700000  1
  C  C110  1  0.96300000  0.41250000  0.48130000  1
  C  C111  1  0.97890000  0.19230000  0.85710000  1
  C  C112  1  0.99070000  0.76040000  0.32150000  1
  C  C113  1  0.99760000  0.04460000  0.92990000  1
  O  O114  1  0.15690000  0.80330000  0.27430000  1
  O  O115  1  0.20530000  0.73570000  0.35560000  1
  O  O116  1  0.24360000  0.95210000  0.10080000  1
  O  O117  1  0.25350000  0.62730000  0.47120000  1
  O  O118  1  0.27320000  0.80630000  0.16570000  1
  O  O119  1  0.30110000  0.46890000  0.42170000  1
  O  O120  1  0.33510000  0.14370000  0.13490000  1
  O  O121  1  0.35550000  0.84770000  0.41490000  1
  O  O122  1  0.37030000  0.04920000  0.97000000  1
  O  O123  1  0.38960000  0.35860000  0.62920000  1
  O  O124  1  0.39610000  0.00940000  0.20580000  1
  O  O125  1  0.40560000  0.09010000  0.88790000  1
  O  O126  1  0.42500000  0.22010000  0.03840000  1
  O  O127  1  0.43700000  0.61350000  0.25500000  1
  O  O128  1  0.45220000  0.82330000  0.03570000  1
  O  O129  1  0.46650000  0.49690000  0.32920000  1
  O  O130  1  0.48500000  0.20900000  0.69460000  1
  O  O131  1  0.49300000  0.69040000  0.47290000  1
  O  O132  1  0.50700000  0.30960000  0.52710000  1
  O  O133  1  0.51500000  0.79100000  0.30540000  1
  O  O134  1  0.53350000  0.50310000  0.67080000  1
  O  O135  1  0.54780000  0.17670000  0.96430000  1
  O  O136  1  0.56300000  0.38650000  0.74500000  1
  O  O137  1  0.57500000  0.77990000  0.96160000  1
  O  O138  1  0.59440000  0.90990000  0.11210000  1
  O  O139  1  0.60390000  0.99060000  0.79420000  1
  O  O140  1  0.61040000  0.64140000  0.37080000  1
  O  O141  1  0.62970000  0.95080000  0.03000000  1
  O  O142  1  0.64450000  0.15230000  0.58510000  1
  O  O143  1  0.66490000  0.85630000  0.86510000  1
  O  O144  1  0.69890000  0.53110000  0.57830000  1
  O  O145  1  0.72680000  0.19370000  0.83430000  1
  O  O146  1  0.74650000  0.37270000  0.52880000  1
  O  O147  1  0.75640000  0.04790000  0.89920000  1
  O  O148  1  0.79470000  0.26430000  0.64440000  1
  O  O149  1  0.84310000  0.19670000  0.72570000  1
