# generated using pymatgen
data_ErP4H8Ru2(C2O7)2
_symmetry_space_group_name_H-M   'P 1'
_cell_length_a   9.53210000
_cell_length_b   9.53210000
_cell_length_c   15.45100000
_cell_angle_alpha   92.86510000
_cell_angle_beta   92.86510000
_cell_angle_gamma   99.04120000
_symmetry_Int_Tables_number   1
_chemical_formula_structural   ErP4H8Ru2(C2O7)2
_chemical_formula_sum   'Er2 P8 H16 Ru4 C8 O28'
_cell_volume   1382.33377820
_cell_formula_units_Z   2
loop_
 _symmetry_equiv_pos_site_id
 _symmetry_equiv_pos_as_xyz
  1  'x, y, z'
loop_
 _atom_site_type_symbol
 _atom_site_label
 _atom_site_symmetry_multiplicity
 _atom_site_fract_x
 _atom_site_fract_y
 _atom_site_fract_z
 _atom_site_occupancy
  Er  Er0  1  0.01086000  0.98914000  0.25000000  1
  Er  Er1  1  0.98914000  0.01086000  0.75000000  1
  P  P2  1  0.65165000  0.97627000  0.15429000  1
  P  P3  1  0.64607000  0.95509000  0.85404000  1
  P  P4  1  0.97627000  0.65165000  0.65429000  1
  P  P5  1  0.95509000  0.64607000  0.35404000  1
  P  P6  1  0.04491000  0.35393000  0.64596000  1
  P  P7  1  0.02373000  0.34835000  0.34571000  1
  P  P8  1  0.35393000  0.04491000  0.14596000  1
  P  P9  1  0.34835000  0.02373000  0.84571000  1
  H  H10  1  0.36840000  0.87380000  0.68350000  1
  H  H11  1  0.52800000  0.84100000  0.68570000  1
  H  H12  1  0.42040000  0.82960000  0.23250000  1
  H  H13  1  0.42100000  0.77480000  0.75500000  1
  H  H14  1  0.12620000  0.63160000  0.81650000  1
  H  H15  1  0.17040000  0.57960000  0.26750000  1
  H  H16  1  0.22520000  0.57900000  0.74500000  1
  H  H17  1  0.84100000  0.52800000  0.18570000  1
  H  H18  1  0.15900000  0.47200000  0.81430000  1
  H  H19  1  0.77480000  0.42100000  0.25500000  1
  H  H20  1  0.82960000  0.42040000  0.73250000  1
  H  H21  1  0.87380000  0.36840000  0.18350000  1
  H  H22  1  0.57900000  0.22520000  0.24500000  1
  H  H23  1  0.57960000  0.17040000  0.76750000  1
  H  H24  1  0.47200000  0.15900000  0.31430000  1
  H  H25  1  0.63160000  0.12620000  0.31650000  1
  Ru  Ru26  1  0.45432000  0.87836000  0.99810000  1
  Ru  Ru27  1  0.12164000  0.54568000  0.50190000  1
  Ru  Ru28  1  0.87836000  0.45432000  0.49810000  1
  Ru  Ru29  1  0.54568000  0.12164000  0.00190000  1
  C  C30  1  0.49530000  0.98330000  0.78030000  1
  C  C31  1  0.44940000  0.85780000  0.72130000  1
  C  C32  1  0.14220000  0.55060000  0.77870000  1
  C  C33  1  0.01670000  0.50470000  0.71970000  1
  C  C34  1  0.98330000  0.49530000  0.28030000  1
  C  C35  1  0.85780000  0.44940000  0.22130000  1
  C  C36  1  0.55060000  0.14220000  0.27870000  1
  C  C37  1  0.50470000  0.01670000  0.21970000  1
  O  O38  1  0.77260000  0.95500000  0.21480000  1
  O  O39  1  0.76690000  0.92590000  0.80050000  1
  O  O40  1  0.30890000  0.90970000  0.08610000  1
  O  O41  1  0.45070000  0.90010000  0.26740000  1
  O  O42  1  0.30870000  0.89570000  0.90130000  1
  O  O43  1  0.59440000  0.84180000  0.09420000  1
  O  O44  1  0.59140000  0.83220000  0.91040000  1
  O  O45  1  0.95500000  0.77260000  0.71480000  1
  O  O46  1  0.92590000  0.76690000  0.30050000  1
  O  O47  1  0.10430000  0.69130000  0.59870000  1
  O  O48  1  0.09030000  0.69110000  0.41390000  1
  O  O49  1  0.84180000  0.59440000  0.59420000  1
  O  O50  1  0.83220000  0.59140000  0.41040000  1
  O  O51  1  0.09990000  0.54930000  0.23260000  1
  O  O52  1  0.90010000  0.45070000  0.76740000  1
  O  O53  1  0.16780000  0.40860000  0.58960000  1
  O  O54  1  0.15820000  0.40560000  0.40580000  1
  O  O55  1  0.90970000  0.30890000  0.58610000  1
  O  O56  1  0.89570000  0.30870000  0.40130000  1
  O  O57  1  0.07410000  0.23310000  0.69950000  1
  O  O58  1  0.04500000  0.22740000  0.28520000  1
  O  O59  1  0.40860000  0.16780000  0.08960000  1
  O  O60  1  0.40560000  0.15820000  0.90580000  1
  O  O61  1  0.69130000  0.10430000  0.09870000  1
  O  O62  1  0.54930000  0.09990000  0.73260000  1
  O  O63  1  0.69110000  0.09030000  0.91390000  1
  O  O64  1  0.23310000  0.07410000  0.19950000  1
  O  O65  1  0.22740000  0.04500000  0.78520000  1
