# generated using pymatgen
data_Eu2H24C26O17
_symmetry_space_group_name_H-M   'P 1'
_cell_length_a   11.93100000
_cell_length_b   12.48500000
_cell_length_c   12.54900000
_cell_angle_alpha   90.00000000
_cell_angle_beta   98.63000000
_cell_angle_gamma   90.00000000
_symmetry_Int_Tables_number   1
_chemical_formula_structural   Eu2H24C26O17
_chemical_formula_sum   'Eu4 H48 C52 O34'
_cell_volume   1848.11656478
_cell_formula_units_Z   2
loop_
 _symmetry_equiv_pos_site_id
 _symmetry_equiv_pos_as_xyz
  1  'x, y, z'
loop_
 _atom_site_type_symbol
 _atom_site_label
 _atom_site_symmetry_multiplicity
 _atom_site_fract_x
 _atom_site_fract_y
 _atom_site_fract_z
 _atom_site_occupancy
  Eu  Eu0  1  0.36023000  0.77079000  0.81338000  1
  Eu  Eu1  1  0.37220000  0.05415000  0.13224000  1
  Eu  Eu2  1  0.62780000  0.55415000  0.86776000  1
  Eu  Eu3  1  0.63977000  0.27079000  0.18662000  1
  H  H4  1  0.00100000  0.96510000  0.92960000  1
  H  H5  1  0.00630000  0.93730000  0.24910000  1
  H  H6  1  0.11070000  0.15840000  0.75450000  1
  H  H7  1  0.13040000  0.03610000  0.77870000  1
  H  H8  1  0.14730000  0.11930000  0.87330000  1
  H  H9  1  0.14820000  0.76860000  0.13240000  1
  H  H10  1  0.14860000  0.64540000  0.15640000  1
  H  H11  1  0.16750000  0.68650000  0.04240000  1
  H  H12  1  0.20420000  0.84370000  0.58940000  1
  H  H13  1  0.23720000  0.89590000  0.68760000  1
  H  H14  1  0.28690000  0.39580000  0.95360000  1
  H  H15  1  0.29990000  0.47240000  0.59240000  1
  H  H16  1  0.30230000  0.19350000  0.80330000  1
  H  H17  1  0.30720000  0.36380000  0.31960000  1
  H  H18  1  0.32250000  0.34940000  0.60900000  1
  H  H19  1  0.32260000  0.48680000  0.30140000  1
  H  H20  1  0.32490000  0.09870000  0.48530000  1
  H  H21  1  0.34170000  0.63450000  0.14580000  1
  H  H22  1  0.35740000  0.72100000  0.46880000  1
  H  H23  1  0.36240000  0.38020000  0.80000000  1
  H  H24  1  0.36420000  0.44680000  0.12450000  1
  H  H25  1  0.42170000  0.43160000  0.63900000  1
  H  H26  1  0.42620000  0.40910000  0.30420000  1
  H  H27  1  0.47930000  0.17140000  0.78380000  1
  H  H28  1  0.52070000  0.67140000  0.21620000  1
  H  H29  1  0.57380000  0.90910000  0.69580000  1
  H  H30  1  0.57830000  0.93160000  0.36100000  1
  H  H31  1  0.63580000  0.94680000  0.87550000  1
  H  H32  1  0.63760000  0.88020000  0.20000000  1
  H  H33  1  0.64260000  0.22100000  0.53120000  1
  H  H34  1  0.65830000  0.13450000  0.85420000  1
  H  H35  1  0.67510000  0.59870000  0.51470000  1
  H  H36  1  0.67740000  0.98680000  0.69860000  1
  H  H37  1  0.67750000  0.84940000  0.39100000  1
  H  H38  1  0.69280000  0.86380000  0.68040000  1
  H  H39  1  0.69770000  0.69350000  0.19670000  1
  H  H40  1  0.70010000  0.97240000  0.40760000  1
  H  H41  1  0.71310000  0.89580000  0.04640000  1
  H  H42  1  0.76280000  0.39590000  0.31240000  1
  H  H43  1  0.79580000  0.34370000  0.41060000  1
  H  H44  1  0.83250000  0.18650000  0.95760000  1
  H  H45  1  0.85140000  0.14540000  0.84360000  1
  H  H46  1  0.85180000  0.26860000  0.86760000  1
  H  H47  1  0.85270000  0.61930000  0.12670000  1
  H  H48  1  0.86960000  0.53610000  0.22130000  1
  H  H49  1  0.88930000  0.65840000  0.24550000  1
  H  H50  1  0.99370000  0.43730000  0.75090000  1
  H  H51  1  0.99900000  0.46510000  0.07040000  1
  C  C52  1  0.02150000  0.95290000  0.09080000  1
  C  C53  1  0.03350000  0.43440000  0.82050000  1
  C  C54  1  0.03650000  0.45080000  0.01210000  1
  C  C55  1  0.14550000  0.97880000  0.10890000  1
  C  C56  1  0.14800000  0.41160000  0.83780000  1
  C  C57  1  0.15160000  0.42720000  0.02870000  1
  C  C58  1  0.15560000  0.10720000  0.79940000  1
  C  C59  1  0.18150000  0.70110000  0.11840000  1
  C  C60  1  0.20930000  0.40920000  0.94240000  1
  C  C61  1  0.27910000  0.11950000  0.78600000  1
  C  C62  1  0.30970000  0.70530000  0.15650000  1
  C  C63  1  0.31280000  0.42770000  0.75180000  1
  C  C64  1  0.31690000  0.40020000  0.16220000  1
  C  C65  1  0.32870000  0.54230000  0.79090000  1
  C  C66  1  0.33690000  0.28410000  0.13540000  1
  C  C67  1  0.34190000  0.41950000  0.63740000  1
  C  C68  1  0.34590000  0.41650000  0.28290000  1
  C  C69  1  0.35660000  0.04410000  0.86120000  1
  C  C70  1  0.36910000  0.78700000  0.09560000  1
  C  C71  1  0.38730000  0.12990000  0.64110000  1
  C  C72  1  0.38740000  0.12500000  0.53100000  1
  C  C73  1  0.42090000  0.69660000  0.44130000  1
  C  C74  1  0.42240000  0.69540000  0.33120000  1
  C  C75  1  0.48130000  0.16640000  0.71020000  1
  C  C76  1  0.48420000  0.16080000  0.48990000  1
  C  C77  1  0.48600000  0.15870000  0.37170000  1
  C  C78  1  0.51400000  0.65870000  0.62830000  1
  C  C79  1  0.51580000  0.66080000  0.51010000  1
  C  C80  1  0.51870000  0.66640000  0.28980000  1
  C  C81  1  0.57760000  0.19540000  0.66880000  1
  C  C82  1  0.57910000  0.19660000  0.55870000  1
  C  C83  1  0.61260000  0.62500000  0.46900000  1
  C  C84  1  0.61270000  0.62990000  0.35890000  1
  C  C85  1  0.63090000  0.28700000  0.90440000  1
  C  C86  1  0.64340000  0.54410000  0.13880000  1
  C  C87  1  0.65410000  0.91650000  0.71710000  1
  C  C88  1  0.65810000  0.91950000  0.36260000  1
  C  C89  1  0.66310000  0.78410000  0.86460000  1
  C  C90  1  0.67130000  0.04230000  0.20910000  1
  C  C91  1  0.68310000  0.90020000  0.83780000  1
  C  C92  1  0.68720000  0.92770000  0.24820000  1
  C  C93  1  0.69030000  0.20530000  0.84350000  1
  C  C94  1  0.72090000  0.61950000  0.21400000  1
  C  C95  1  0.79070000  0.90920000  0.05760000  1
  C  C96  1  0.81850000  0.20110000  0.88160000  1
  C  C97  1  0.84440000  0.60720000  0.20060000  1
  C  C98  1  0.84840000  0.92720000  0.97130000  1
  C  C99  1  0.85200000  0.91160000  0.16220000  1
  C  C100  1  0.85450000  0.47880000  0.89110000  1
  C  C101  1  0.96350000  0.95080000  0.98790000  1
  C  C102  1  0.96650000  0.93440000  0.17950000  1
  C  C103  1  0.97850000  0.45290000  0.90920000  1
  O  O104  1  0.19650000  0.00240000  0.20120000  1
  O  O105  1  0.19800000  0.39510000  0.74760000  1
  O  O106  1  0.19850000  0.97740000  0.02750000  1
  O  O107  1  0.20120000  0.42880000  0.13430000  1
  O  O108  1  0.24500000  0.83890000  0.65150000  1
  O  O109  1  0.25070000  0.60890000  0.76800000  1
  O  O110  1  0.25730000  0.21810000  0.12300000  1
  O  O111  1  0.28810000  0.09990000  0.67640000  1
  O  O112  1  0.32330000  0.72660000  0.26880000  1
  O  O113  1  0.37440000  0.76260000  0.99890000  1
  O  O114  1  0.38130000  0.95460000  0.82750000  1
  O  O115  1  0.38950000  0.08000000  0.95470000  1
  O  O116  1  0.40690000  0.87110000  0.14020000  1
  O  O117  1  0.41440000  0.10240000  0.31360000  1
  O  O118  1  0.42470000  0.56940000  0.84450000  1
  O  O119  1  0.43770000  0.71360000  0.66280000  1
  O  O120  1  0.43790000  0.25480000  0.12980000  1
  O  O121  1  0.56210000  0.75480000  0.87020000  1
  O  O122  1  0.56230000  0.21360000  0.33720000  1
  O  O123  1  0.57530000  0.06940000  0.15550000  1
  O  O124  1  0.58560000  0.60240000  0.68640000  1
  O  O125  1  0.59310000  0.37110000  0.85980000  1
  O  O126  1  0.61050000  0.58000000  0.04530000  1
  O  O127  1  0.61870000  0.45460000  0.17250000  1
  O  O128  1  0.62560000  0.26260000  0.00110000  1
  O  O129  1  0.67670000  0.22660000  0.73120000  1
  O  O130  1  0.71190000  0.59990000  0.32360000  1
  O  O131  1  0.74270000  0.71810000  0.87700000  1
  O  O132  1  0.74930000  0.10890000  0.23200000  1
  O  O133  1  0.75500000  0.33890000  0.34850000  1
  O  O134  1  0.79880000  0.92880000  0.86570000  1
  O  O135  1  0.80150000  0.47740000  0.97250000  1
  O  O136  1  0.80200000  0.89510000  0.25240000  1
  O  O137  1  0.80350000  0.50240000  0.79880000  1
