# generated using pymatgen
data_Zn8H72C99O38
_symmetry_space_group_name_H-M   'P 1'
_cell_length_a   23.96470000
_cell_length_b   23.96470000
_cell_length_c   23.96470000
_cell_angle_alpha   90.00000000
_cell_angle_beta   90.00000000
_cell_angle_gamma   90.00000000
_symmetry_Int_Tables_number   1
_chemical_formula_structural   Zn8H72C99O38
_chemical_formula_sum   'Zn32 H288 C396 O152'
_cell_volume   13763.09127449
_cell_formula_units_Z   4
loop_
 _symmetry_equiv_pos_site_id
 _symmetry_equiv_pos_as_xyz
  1  'x, y, z'
loop_
 _atom_site_type_symbol
 _atom_site_label
 _atom_site_symmetry_multiplicity
 _atom_site_fract_x
 _atom_site_fract_y
 _atom_site_fract_z
 _atom_site_occupancy
  Zn  Zn0  1  0.08743000  0.19621000  0.87132000  1
  Zn  Zn1  1  0.08743000  0.80379000  0.12868000  1
  Zn  Zn2  1  0.12868000  0.08743000  0.80379000  1
  Zn  Zn3  1  0.12868000  0.91257000  0.19621000  1
  Zn  Zn4  1  0.19621000  0.12868000  0.91257000  1
  Zn  Zn5  1  0.19621000  0.87132000  0.08743000  1
  Zn  Zn6  1  0.19636000  0.19636000  0.80364000  1
  Zn  Zn7  1  0.19636000  0.80364000  0.19636000  1
  Zn  Zn8  1  0.30317000  0.30317000  0.69683000  1
  Zn  Zn9  1  0.30317000  0.69683000  0.30317000  1
  Zn  Zn10  1  0.30362000  0.41248000  0.62838000  1
  Zn  Zn11  1  0.30362000  0.58752000  0.37162000  1
  Zn  Zn12  1  0.37162000  0.30362000  0.58752000  1
  Zn  Zn13  1  0.37162000  0.69638000  0.41248000  1
  Zn  Zn14  1  0.41248000  0.37162000  0.69638000  1
  Zn  Zn15  1  0.41248000  0.62838000  0.30362000  1
  Zn  Zn16  1  0.58752000  0.37162000  0.30362000  1
  Zn  Zn17  1  0.58752000  0.62838000  0.69638000  1
  Zn  Zn18  1  0.62838000  0.30362000  0.41248000  1
  Zn  Zn19  1  0.62838000  0.69638000  0.58752000  1
  Zn  Zn20  1  0.69638000  0.41248000  0.37162000  1
  Zn  Zn21  1  0.69638000  0.58752000  0.62838000  1
  Zn  Zn22  1  0.69683000  0.30317000  0.30317000  1
  Zn  Zn23  1  0.69683000  0.69683000  0.69683000  1
  Zn  Zn24  1  0.80364000  0.19636000  0.19636000  1
  Zn  Zn25  1  0.80364000  0.80364000  0.80364000  1
  Zn  Zn26  1  0.80379000  0.12868000  0.08743000  1
  Zn  Zn27  1  0.80379000  0.87132000  0.91257000  1
  Zn  Zn28  1  0.87132000  0.08743000  0.19621000  1
  Zn  Zn29  1  0.87132000  0.91257000  0.80379000  1
  Zn  Zn30  1  0.91257000  0.19621000  0.12868000  1
  Zn  Zn31  1  0.91257000  0.80379000  0.87132000  1
  H  H32  1  0.02130000  0.04980000  0.24270000  1
  H  H33  1  0.02130000  0.95020000  0.75730000  1
  H  H34  1  0.03050000  0.29420000  0.71330000  1
  H  H35  1  0.03050000  0.70580000  0.28670000  1
  H  H36  1  0.03260000  0.29150000  0.10800000  1
  H  H37  1  0.03260000  0.70850000  0.89200000  1
  H  H38  1  0.03630000  0.34440000  0.23760000  1
  H  H39  1  0.03630000  0.65560000  0.76240000  1
  H  H40  1  0.03700000  0.45210000  0.66360000  1
  H  H41  1  0.03700000  0.54790000  0.33640000  1
  H  H42  1  0.04980000  0.24270000  0.02130000  1
  H  H43  1  0.04980000  0.75730000  0.97870000  1
  H  H44  1  0.05030000  0.46600000  0.83040000  1
  H  H45  1  0.05030000  0.53400000  0.16960000  1
  H  H46  1  0.05140000  0.21370000  0.24450000  1
  H  H47  1  0.05140000  0.78630000  0.75550000  1
  H  H48  1  0.06010000  0.37090000  0.86020000  1
  H  H49  1  0.06010000  0.62910000  0.13980000  1
  H  H50  1  0.06320000  0.46130000  0.23880000  1
  H  H51  1  0.06320000  0.53870000  0.76120000  1
  H  H52  1  0.06670000  0.42640000  0.18340000  1
  H  H53  1  0.06670000  0.57360000  0.81660000  1
  H  H54  1  0.07370000  0.31980000  0.28530000  1
  H  H55  1  0.07370000  0.68020000  0.71470000  1
  H  H56  1  0.10800000  0.03260000  0.29150000  1
  H  H57  1  0.10800000  0.96740000  0.70850000  1
  H  H58  1  0.12960000  0.42760000  0.32180000  1
  H  H59  1  0.12960000  0.57240000  0.67820000  1
  H  H60  1  0.13040000  0.28530000  0.69600000  1
  H  H61  1  0.13040000  0.71470000  0.30400000  1
  H  H62  1  0.13520000  0.44490000  0.65070000  1
  H  H63  1  0.13520000  0.55510000  0.34930000  1
  H  H64  1  0.13980000  0.06010000  0.62910000  1
  H  H65  1  0.13980000  0.93990000  0.37090000  1
  H  H66  1  0.14510000  0.19510000  0.28760000  1
  H  H67  1  0.14510000  0.80490000  0.71240000  1
  H  H68  1  0.15840000  0.31730000  0.22370000  1
  H  H69  1  0.15840000  0.68270000  0.77630000  1
  H  H70  1  0.16960000  0.05030000  0.53400000  1
  H  H71  1  0.16960000  0.94970000  0.46600000  1
  H  H72  1  0.17110000  0.36950000  0.18510000  1
  H  H73  1  0.17110000  0.63050000  0.81490000  1
  H  H74  1  0.17790000  0.43120000  0.27730000  1
  H  H75  1  0.17790000  0.56880000  0.72270000  1
  H  H76  1  0.18340000  0.06670000  0.42640000  1
  H  H77  1  0.18340000  0.93330000  0.57360000  1
  H  H78  1  0.18510000  0.17110000  0.36950000  1
  H  H79  1  0.18510000  0.82890000  0.63050000  1
  H  H80  1  0.18980000  0.44690000  0.37320000  1
  H  H81  1  0.18980000  0.55310000  0.62680000  1
  H  H82  1  0.19510000  0.28760000  0.14510000  1
  H  H83  1  0.19510000  0.71240000  0.85490000  1
  H  H84  1  0.19590000  0.21530000  0.63090000  1
  H  H85  1  0.19590000  0.78470000  0.36910000  1
  H  H86  1  0.20890000  0.46650000  0.78420000  1
  H  H87  1  0.20890000  0.53350000  0.21580000  1
  H  H88  1  0.21370000  0.24450000  0.05140000  1
  H  H89  1  0.21370000  0.75550000  0.94860000  1
  H  H90  1  0.21530000  0.36910000  0.80410000  1
  H  H91  1  0.21530000  0.63090000  0.19590000  1
  H  H92  1  0.21580000  0.20890000  0.53350000  1
  H  H93  1  0.21580000  0.79110000  0.46650000  1
  H  H94  1  0.22300000  0.28500000  0.36600000  1
  H  H95  1  0.22300000  0.71500000  0.63400000  1
  H  H96  1  0.22370000  0.15840000  0.31730000  1
  H  H97  1  0.22370000  0.84160000  0.68270000  1
  H  H98  1  0.23760000  0.03630000  0.34440000  1
  H  H99  1  0.23760000  0.96370000  0.65560000  1
  H  H100  1  0.23880000  0.06320000  0.46130000  1
  H  H101  1  0.23880000  0.93680000  0.53870000  1
  H  H102  1  0.24270000  0.02130000  0.04980000  1
  H  H103  1  0.24270000  0.97870000  0.95020000  1
  H  H104  1  0.24450000  0.05140000  0.21370000  1
  H  H105  1  0.24450000  0.94860000  0.78630000  1
  H  H106  1  0.25160000  0.45670000  0.45440000  1
  H  H107  1  0.25160000  0.54330000  0.54560000  1
  H  H108  1  0.27400000  0.29070000  0.45330000  1
  H  H109  1  0.27400000  0.70930000  0.54670000  1
  H  H110  1  0.27730000  0.17790000  0.43120000  1
  H  H111  1  0.27730000  0.82210000  0.56880000  1
  H  H112  1  0.28500000  0.36600000  0.22300000  1
  H  H113  1  0.28500000  0.63400000  0.77700000  1
  H  H114  1  0.28530000  0.07370000  0.31980000  1
  H  H115  1  0.28530000  0.30400000  0.86960000  1
  H  H116  1  0.28530000  0.69600000  0.13040000  1
  H  H117  1  0.28530000  0.92630000  0.68020000  1
  H  H118  1  0.28670000  0.03050000  0.70580000  1
  H  H119  1  0.28670000  0.96950000  0.29420000  1
  H  H120  1  0.28760000  0.14510000  0.19510000  1
  H  H121  1  0.28760000  0.85490000  0.80490000  1
  H  H122  1  0.29070000  0.45330000  0.27400000  1
  H  H123  1  0.29070000  0.54670000  0.72600000  1
  H  H124  1  0.29150000  0.10800000  0.03260000  1
  H  H125  1  0.29150000  0.89200000  0.96740000  1
  H  H126  1  0.29420000  0.28670000  0.96950000  1
  H  H127  1  0.29420000  0.71330000  0.03050000  1
  H  H128  1  0.30400000  0.13040000  0.71470000  1
  H  H129  1  0.30400000  0.86960000  0.28530000  1
  H  H130  1  0.31730000  0.22370000  0.15840000  1
  H  H131  1  0.31730000  0.77630000  0.84160000  1
  H  H132  1  0.31980000  0.28530000  0.07370000  1
  H  H133  1  0.31980000  0.71470000  0.92630000  1
  H  H134  1  0.32180000  0.12960000  0.42760000  1
  H  H135  1  0.32180000  0.87040000  0.57240000  1
  H  H136  1  0.33640000  0.03700000  0.54790000  1
  H  H137  1  0.33640000  0.96300000  0.45210000  1
  H  H138  1  0.34440000  0.23760000  0.03630000  1
  H  H139  1  0.34440000  0.76240000  0.96370000  1
  H  H140  1  0.34930000  0.13520000  0.55510000  1
  H  H141  1  0.34930000  0.86480000  0.44490000  1
  H  H142  1  0.36600000  0.22300000  0.28500000  1
  H  H143  1  0.36600000  0.77700000  0.71500000  1
  H  H144  1  0.36910000  0.19590000  0.78470000  1
  H  H145  1  0.36910000  0.80410000  0.21530000  1
  H  H146  1  0.36950000  0.18510000  0.17110000  1
  H  H147  1  0.36950000  0.81490000  0.82890000  1
  H  H148  1  0.37090000  0.13980000  0.93990000  1
  H  H149  1  0.37090000  0.86020000  0.06010000  1
  H  H150  1  0.37320000  0.18980000  0.44690000  1
  H  H151  1  0.37320000  0.81020000  0.55310000  1
  H  H152  1  0.42640000  0.18340000  0.06670000  1
  H  H153  1  0.42640000  0.81660000  0.93330000  1
  H  H154  1  0.42760000  0.32180000  0.12960000  1
  H  H155  1  0.42760000  0.67820000  0.87040000  1
  H  H156  1  0.43120000  0.27730000  0.17790000  1
  H  H157  1  0.43120000  0.72270000  0.82210000  1
  H  H158  1  0.44490000  0.34930000  0.86480000  1
  H  H159  1  0.44490000  0.65070000  0.13520000  1
  H  H160  1  0.44690000  0.37320000  0.18980000  1
  H  H161  1  0.44690000  0.62680000  0.81020000  1
  H  H162  1  0.45210000  0.33640000  0.96300000  1
  H  H163  1  0.45210000  0.66360000  0.03700000  1
  H  H164  1  0.45330000  0.27400000  0.29070000  1
  H  H165  1  0.45330000  0.72600000  0.70930000  1
  H  H166  1  0.45440000  0.25160000  0.45670000  1
  H  H167  1  0.45440000  0.74840000  0.54330000  1
  H  H168  1  0.45670000  0.45440000  0.25160000  1
  H  H169  1  0.45670000  0.54560000  0.74840000  1
  H  H170  1  0.46130000  0.23880000  0.06320000  1
  H  H171  1  0.46130000  0.76120000  0.93680000  1
  H  H172  1  0.46600000  0.16960000  0.94970000  1
  H  H173  1  0.46600000  0.83040000  0.05030000  1
  H  H174  1  0.46650000  0.21580000  0.79110000  1
  H  H175  1  0.46650000  0.78420000  0.20890000  1
  H  H176  1  0.53350000  0.21580000  0.20890000  1
  H  H177  1  0.53350000  0.78420000  0.79110000  1
  H  H178  1  0.53400000  0.16960000  0.05030000  1
  H  H179  1  0.53400000  0.83040000  0.94970000  1
  H  H180  1  0.53870000  0.23880000  0.93680000  1
  H  H181  1  0.53870000  0.76120000  0.06320000  1
  H  H182  1  0.54330000  0.45440000  0.74840000  1
  H  H183  1  0.54330000  0.54560000  0.25160000  1
  H  H184  1  0.54560000  0.25160000  0.54330000  1
  H  H185  1  0.54560000  0.74840000  0.45670000  1
  H  H186  1  0.54670000  0.27400000  0.70930000  1
  H  H187  1  0.54670000  0.72600000  0.29070000  1
  H  H188  1  0.54790000  0.33640000  0.03700000  1
  H  H189  1  0.54790000  0.66360000  0.96300000  1
  H  H190  1  0.55310000  0.37320000  0.81020000  1
  H  H191  1  0.55310000  0.62680000  0.18980000  1
  H  H192  1  0.55510000  0.34930000  0.13520000  1
  H  H193  1  0.55510000  0.65070000  0.86480000  1
  H  H194  1  0.56880000  0.27730000  0.82210000  1
  H  H195  1  0.56880000  0.72270000  0.17790000  1
  H  H196  1  0.57240000  0.32180000  0.87040000  1
  H  H197  1  0.57240000  0.67820000  0.12960000  1
  H  H198  1  0.57360000  0.18340000  0.93330000  1
  H  H199  1  0.57360000  0.81660000  0.06670000  1
  H  H200  1  0.62680000  0.18980000  0.55310000  1
  H  H201  1  0.62680000  0.81020000  0.44690000  1
  H  H202  1  0.62910000  0.13980000  0.06010000  1
  H  H203  1  0.62910000  0.86020000  0.93990000  1
  H  H204  1  0.63050000  0.18510000  0.82890000  1
  H  H205  1  0.63050000  0.81490000  0.17110000  1
  H  H206  1  0.63090000  0.19590000  0.21530000  1
  H  H207  1  0.63090000  0.80410000  0.78470000  1
  H  H208  1  0.63400000  0.22300000  0.71500000  1
  H  H209  1  0.63400000  0.77700000  0.28500000  1
  H  H210  1  0.65070000  0.13520000  0.44490000  1
  H  H211  1  0.65070000  0.86480000  0.55510000  1
  H  H212  1  0.65560000  0.23760000  0.96370000  1
  H  H213  1  0.65560000  0.76240000  0.03630000  1
  H  H214  1  0.66360000  0.03700000  0.45210000  1
  H  H215  1  0.66360000  0.96300000  0.54790000  1
  H  H216  1  0.67820000  0.12960000  0.57240000  1
  H  H217  1  0.67820000  0.87040000  0.42760000  1
  H  H218  1  0.68020000  0.28530000  0.92630000  1
  H  H219  1  0.68020000  0.71470000  0.07370000  1
  H  H220  1  0.68270000  0.22370000  0.84160000  1
  H  H221  1  0.68270000  0.77630000  0.15840000  1
  H  H222  1  0.69600000  0.13040000  0.28530000  1
  H  H223  1  0.69600000  0.86960000  0.71470000  1
  H  H224  1  0.70580000  0.28670000  0.03050000  1
  H  H225  1  0.70580000  0.71330000  0.96950000  1
  H  H226  1  0.70850000  0.10800000  0.96740000  1
  H  H227  1  0.70850000  0.89200000  0.03260000  1
  H  H228  1  0.70930000  0.45330000  0.72600000  1
  H  H229  1  0.70930000  0.54670000  0.27400000  1
  H  H230  1  0.71240000  0.14510000  0.80490000  1
  H  H231  1  0.71240000  0.85490000  0.19510000  1
  H  H232  1  0.71330000  0.03050000  0.29420000  1
  H  H233  1  0.71330000  0.96950000  0.70580000  1
  H  H234  1  0.71470000  0.07370000  0.68020000  1
  H  H235  1  0.71470000  0.30400000  0.13040000  1
  H  H236  1  0.71470000  0.69600000  0.86960000  1
  H  H237  1  0.71470000  0.92630000  0.31980000  1
  H  H238  1  0.71500000  0.36600000  0.77700000  1
  H  H239  1  0.71500000  0.63400000  0.22300000  1
  H  H240  1  0.72270000  0.17790000  0.56880000  1
  H  H241  1  0.72270000  0.82210000  0.43120000  1
  H  H242  1  0.72600000  0.29070000  0.54670000  1
  H  H243  1  0.72600000  0.70930000  0.45330000  1
  H  H244  1  0.74840000  0.45670000  0.54560000  1
  H  H245  1  0.74840000  0.54330000  0.45440000  1
  H  H246  1  0.75550000  0.05140000  0.78630000  1
  H  H247  1  0.75550000  0.94860000  0.21370000  1
  H  H248  1  0.75730000  0.02130000  0.95020000  1
  H  H249  1  0.75730000  0.97870000  0.04980000  1
  H  H250  1  0.76120000  0.06320000  0.53870000  1
  H  H251  1  0.76120000  0.93680000  0.46130000  1
  H  H252  1  0.76240000  0.03630000  0.65560000  1
  H  H253  1  0.76240000  0.96370000  0.34440000  1
  H  H254  1  0.77630000  0.15840000  0.68270000  1
  H  H255  1  0.77630000  0.84160000  0.31730000  1
  H  H256  1  0.77700000  0.28500000  0.63400000  1
  H  H257  1  0.77700000  0.71500000  0.36600000  1
  H  H258  1  0.78420000  0.20890000  0.46650000  1
  H  H259  1  0.78420000  0.79110000  0.53350000  1
  H  H260  1  0.78470000  0.36910000  0.19590000  1
  H  H261  1  0.78470000  0.63090000  0.80410000  1
  H  H262  1  0.78630000  0.24450000  0.94860000  1
  H  H263  1  0.78630000  0.75550000  0.05140000  1
  H  H264  1  0.79110000  0.46650000  0.21580000  1
  H  H265  1  0.79110000  0.53350000  0.78420000  1
  H  H266  1  0.80410000  0.21530000  0.36910000  1
  H  H267  1  0.80410000  0.78470000  0.63090000  1
  H  H268  1  0.80490000  0.28760000  0.85490000  1
  H  H269  1  0.80490000  0.71240000  0.14510000  1
  H  H270  1  0.81020000  0.44690000  0.62680000  1
  H  H271  1  0.81020000  0.55310000  0.37320000  1
  H  H272  1  0.81490000  0.17110000  0.63050000  1
  H  H273  1  0.81490000  0.82890000  0.36950000  1
  H  H274  1  0.81660000  0.06670000  0.57360000  1
  H  H275  1  0.81660000  0.93330000  0.42640000  1
  H  H276  1  0.82210000  0.43120000  0.72270000  1
  H  H277  1  0.82210000  0.56880000  0.27730000  1
  H  H278  1  0.82890000  0.36950000  0.81490000  1
  H  H279  1  0.82890000  0.63050000  0.18510000  1
  H  H280  1  0.83040000  0.05030000  0.46600000  1
  H  H281  1  0.83040000  0.94970000  0.53400000  1
  H  H282  1  0.84160000  0.31730000  0.77630000  1
  H  H283  1  0.84160000  0.68270000  0.22370000  1
  H  H284  1  0.85490000  0.19510000  0.71240000  1
  H  H285  1  0.85490000  0.80490000  0.28760000  1
  H  H286  1  0.86020000  0.06010000  0.37090000  1
  H  H287  1  0.86020000  0.93990000  0.62910000  1
  H  H288  1  0.86480000  0.44490000  0.34930000  1
  H  H289  1  0.86480000  0.55510000  0.65070000  1
  H  H290  1  0.86960000  0.28530000  0.30400000  1
  H  H291  1  0.86960000  0.71470000  0.69600000  1
  H  H292  1  0.87040000  0.42760000  0.67820000  1
  H  H293  1  0.87040000  0.57240000  0.32180000  1
  H  H294  1  0.89200000  0.03260000  0.70850000  1
  H  H295  1  0.89200000  0.96740000  0.29150000  1
  H  H296  1  0.92630000  0.31980000  0.71470000  1
  H  H297  1  0.92630000  0.68020000  0.28530000  1
  H  H298  1  0.93330000  0.42640000  0.81660000  1
  H  H299  1  0.93330000  0.57360000  0.18340000  1
  H  H300  1  0.93680000  0.46130000  0.76120000  1
  H  H301  1  0.93680000  0.53870000  0.23880000  1
  H  H302  1  0.93990000  0.37090000  0.13980000  1
  H  H303  1  0.93990000  0.62910000  0.86020000  1
  H  H304  1  0.94860000  0.21370000  0.75550000  1
  H  H305  1  0.94860000  0.78630000  0.24450000  1
  H  H306  1  0.94970000  0.46600000  0.16960000  1
  H  H307  1  0.94970000  0.53400000  0.83040000  1
  H  H308  1  0.95020000  0.24270000  0.97870000  1
  H  H309  1  0.95020000  0.75730000  0.02130000  1
  H  H310  1  0.96300000  0.45210000  0.33640000  1
  H  H311  1  0.96300000  0.54790000  0.66360000  1
  H  H312  1  0.96370000  0.34440000  0.76240000  1
  H  H313  1  0.96370000  0.65560000  0.23760000  1
  H  H314  1  0.96740000  0.29150000  0.89200000  1
  H  H315  1  0.96740000  0.70850000  0.10800000  1
  H  H316  1  0.96950000  0.29420000  0.28670000  1
  H  H317  1  0.96950000  0.70580000  0.71330000  1
  H  H318  1  0.97870000  0.04980000  0.75730000  1
  H  H319  1  0.97870000  0.95020000  0.24270000  1
  C  C320  1  0.01710000  0.13040000  0.80200000  1
  C  C321  1  0.01710000  0.86960000  0.19800000  1
  C  C322  1  0.02640000  0.37330000  0.68830000  1
  C  C323  1  0.02640000  0.62670000  0.31170000  1
  C  C324  1  0.03710000  0.13170000  0.23060000  1
  C  C325  1  0.03710000  0.86830000  0.76940000  1
  C  C326  1  0.04630000  0.07850000  0.25010000  1
  C  C327  1  0.04630000  0.92150000  0.74990000  1
  C  C328  1  0.05110000  0.32410000  0.69950000  1
  C  C329  1  0.05110000  0.67590000  0.30050000  1
  C  C330  1  0.05530000  0.41850000  0.67040000  1
  C  C331  1  0.05530000  0.58150000  0.32960000  1
  C  C332  1  0.05970000  0.35420000  0.26920000  1
  C  C333  1  0.05970000  0.64580000  0.73080000  1
  C  C334  1  0.06490000  0.17770000  0.25020000  1
  C  C335  1  0.06490000  0.82230000  0.74980000  1
  C  C336  1  0.06870000  0.28280000  0.09660000  1
  C  C337  1  0.06870000  0.71720000  0.90340000  1
  C  C338  1  0.07850000  0.25010000  0.04630000  1
  C  C339  1  0.07850000  0.74990000  0.95370000  1
  C  C340  1  0.08440000  0.44770000  0.82830000  1
  C  C341  1  0.08440000  0.55230000  0.17170000  1
  C  C342  1  0.08780000  0.43920000  0.21550000  1
  C  C343  1  0.08780000  0.56080000  0.78450000  1
  C  C344  1  0.08940000  0.38900000  0.84230000  1
  C  C345  1  0.08940000  0.61100000  0.15770000  1
  C  C346  1  0.09660000  0.06870000  0.28280000  1
  C  C347  1  0.09660000  0.93130000  0.71720000  1
  C  C348  1  0.10940000  0.38930000  0.24830000  1
  C  C349  1  0.10940000  0.61070000  0.75170000  1
  C  C350  1  0.11220000  0.31890000  0.68940000  1
  C  C351  1  0.11220000  0.68110000  0.31060000  1
  C  C352  1  0.11430000  0.30060000  0.12690000  1
  C  C353  1  0.11430000  0.69940000  0.87310000  1
  C  C354  1  0.11480000  0.41390000  0.66190000  1
  C  C355  1  0.11480000  0.58610000  0.33810000  1
  C  C356  1  0.11890000  0.16700000  0.28160000  1
  C  C357  1  0.11890000  0.83300000  0.71840000  1
  C  C358  1  0.12690000  0.11430000  0.30060000  1
  C  C359  1  0.12690000  0.88570000  0.69940000  1
  C  C360  1  0.13040000  0.19800000  0.98290000  1
  C  C361  1  0.13040000  0.80200000  0.01710000  1
  C  C362  1  0.13050000  0.47460000  0.81220000  1
  C  C363  1  0.13050000  0.52540000  0.18780000  1
  C  C364  1  0.13170000  0.23060000  0.03710000  1
  C  C365  1  0.13170000  0.76940000  0.96290000  1
  C  C366  1  0.13710000  0.35970000  0.82920000  1
  C  C367  1  0.13710000  0.64030000  0.17080000  1
  C  C368  1  0.13800000  0.29710000  0.83480000  1
  C  C369  1  0.13800000  0.70290000  0.16520000  1
  C  C370  1  0.14110000  0.36430000  0.67010000  1
  C  C371  1  0.14110000  0.63570000  0.32990000  1
  C  C372  1  0.14220000  0.34940000  0.20510000  1
  C  C373  1  0.14220000  0.65060000  0.79490000  1
  C  C374  1  0.14910000  0.40730000  0.29270000  1
  C  C375  1  0.14910000  0.59270000  0.70730000  1
  C  C376  1  0.15770000  0.08940000  0.61100000  1
  C  C377  1  0.15770000  0.91060000  0.38900000  1
  C  C378  1  0.16520000  0.13800000  0.70290000  1
  C  C379  1  0.16520000  0.86200000  0.29710000  1
  C  C380  1  0.16700000  0.28160000  0.11890000  1
  C  C381  1  0.16700000  0.71840000  0.88110000  1
  C  C382  1  0.17080000  0.13710000  0.64030000  1
  C  C383  1  0.17080000  0.86290000  0.35970000  1
  C  C384  1  0.17170000  0.08440000  0.55230000  1
  C  C385  1  0.17170000  0.91560000  0.44770000  1
  C  C386  1  0.17770000  0.25020000  0.06490000  1
  C  C387  1  0.17770000  0.74980000  0.93510000  1
  C  C388  1  0.17880000  0.44740000  0.79950000  1
  C  C389  1  0.17880000  0.55260000  0.20050000  1
  C  C390  1  0.18190000  0.38800000  0.81030000  1
  C  C391  1  0.18190000  0.61200000  0.18970000  1
  C  C392  1  0.18780000  0.13050000  0.52540000  1
  C  C393  1  0.18780000  0.86950000  0.47460000  1
  C  C394  1  0.18970000  0.18190000  0.61200000  1
  C  C395  1  0.18970000  0.81810000  0.38800000  1
  C  C396  1  0.19800000  0.01710000  0.86960000  1
  C  C397  1  0.19800000  0.98290000  0.13040000  1
  C  C398  1  0.19940000  0.36530000  0.36520000  1
  C  C399  1  0.19940000  0.63470000  0.63480000  1
  C  C400  1  0.20050000  0.17880000  0.55260000  1
  C  C401  1  0.20050000  0.82120000  0.44740000  1
  C  C402  1  0.20250000  0.36120000  0.66680000  1
  C  C403  1  0.20250000  0.63880000  0.33320000  1
  C  C404  1  0.20510000  0.14220000  0.34940000  1
  C  C405  1  0.20510000  0.85780000  0.65060000  1
  C  C406  1  0.20700000  0.41570000  0.38850000  1
  C  C407  1  0.20700000  0.58430000  0.61150000  1
  C  C408  1  0.21550000  0.08780000  0.43920000  1
  C  C409  1  0.21550000  0.91220000  0.56080000  1
  C  C410  1  0.22560000  0.31860000  0.38520000  1
  C  C411  1  0.22560000  0.68140000  0.61480000  1
  C  C412  1  0.23060000  0.03710000  0.13170000  1
  C  C413  1  0.23060000  0.96290000  0.86830000  1
  C  C414  1  0.24340000  0.42180000  0.43950000  1
  C  C415  1  0.24340000  0.57820000  0.56050000  1
  C  C416  1  0.24830000  0.10940000  0.38930000  1
  C  C417  1  0.24830000  0.89060000  0.61070000  1
  C  C418  1  0.25010000  0.04630000  0.07850000  1
  C  C419  1  0.25010000  0.95370000  0.92150000  1
  C  C420  1  0.25020000  0.06490000  0.17770000  1
  C  C421  1  0.25020000  0.93510000  0.82230000  1
  C  C422  1  0.25800000  0.32250000  0.43780000  1
  C  C423  1  0.25800000  0.67750000  0.56220000  1
  C  C424  1  0.26430000  0.37330000  0.46360000  1
  C  C425  1  0.26430000  0.62670000  0.53640000  1
  C  C426  1  0.26920000  0.05970000  0.35420000  1
  C  C427  1  0.26920000  0.94030000  0.64580000  1
  C  C428  1  0.28160000  0.11890000  0.16700000  1
  C  C429  1  0.28160000  0.88110000  0.83300000  1
  C  C430  1  0.28280000  0.09660000  0.06870000  1
  C  C431  1  0.28280000  0.90340000  0.93130000  1
  C  C432  1  0.29270000  0.14910000  0.40730000  1
  C  C433  1  0.29270000  0.85090000  0.59270000  1
  C  C434  1  0.29630000  0.36900000  0.51800000  1
  C  C435  1  0.29630000  0.63100000  0.48200000  1
  C  C436  1  0.29710000  0.16520000  0.86200000  1
  C  C437  1  0.29710000  0.83480000  0.13800000  1
  C  C438  1  0.30050000  0.05110000  0.67590000  1
  C  C439  1  0.30050000  0.94890000  0.32410000  1
  C  C440  1  0.30060000  0.12690000  0.11430000  1
  C  C441  1  0.30060000  0.87310000  0.88570000  1
  C  C442  1  0.31060000  0.11220000  0.68110000  1
  C  C443  1  0.31060000  0.88780000  0.31890000  1
  C  C444  1  0.31170000  0.02640000  0.62670000  1
  C  C445  1  0.31170000  0.97360000  0.37330000  1
  C  C446  1  0.31860000  0.38520000  0.22560000  1
  C  C447  1  0.31860000  0.61480000  0.77440000  1
  C  C448  1  0.31890000  0.31060000  0.88780000  1
  C  C449  1  0.31890000  0.68940000  0.11220000  1
  C  C450  1  0.32250000  0.43780000  0.25800000  1
  C  C451  1  0.32250000  0.56220000  0.74200000  1
  C  C452  1  0.32410000  0.30050000  0.94890000  1
  C  C453  1  0.32410000  0.69950000  0.05110000  1
  C  C454  1  0.32960000  0.05530000  0.58150000  1
  C  C455  1  0.32960000  0.94470000  0.41850000  1
  C  C456  1  0.32990000  0.14110000  0.63570000  1
  C  C457  1  0.32990000  0.85890000  0.36430000  1
  C  C458  1  0.33320000  0.20250000  0.63880000  1
  C  C459  1  0.33320000  0.79750000  0.36120000  1
  C  C460  1  0.33810000  0.11480000  0.58610000  1
  C  C461  1  0.33810000  0.88520000  0.41390000  1
  C  C462  1  0.34940000  0.20510000  0.14220000  1
  C  C463  1  0.34940000  0.79490000  0.85780000  1
  C  C464  1  0.35420000  0.26920000  0.05970000  1
  C  C465  1  0.35420000  0.73080000  0.94030000  1
  C  C466  1  0.35970000  0.17080000  0.86290000  1
  C  C467  1  0.35970000  0.82920000  0.13710000  1
  C  C468  1  0.36120000  0.33320000  0.79750000  1
  C  C469  1  0.36120000  0.66680000  0.20250000  1
  C  C470  1  0.36430000  0.32990000  0.85890000  1
  C  C471  1  0.36430000  0.67010000  0.14110000  1
  C  C472  1  0.36520000  0.19940000  0.36530000  1
  C  C473  1  0.36520000  0.80060000  0.63470000  1
  C  C474  1  0.36530000  0.36520000  0.19940000  1
  C  C475  1  0.36530000  0.63480000  0.80060000  1
  C  C476  1  0.36900000  0.48200000  0.70370000  1
  C  C477  1  0.36900000  0.51800000  0.29630000  1
  C  C478  1  0.37330000  0.31170000  0.97360000  1
  C  C479  1  0.37330000  0.46360000  0.26430000  1
  C  C480  1  0.37330000  0.53640000  0.73570000  1
  C  C481  1  0.37330000  0.68830000  0.02640000  1
  C  C482  1  0.38520000  0.22560000  0.31860000  1
  C  C483  1  0.38520000  0.77440000  0.68140000  1
  C  C484  1  0.38800000  0.18970000  0.81810000  1
  C  C485  1  0.38800000  0.81030000  0.18190000  1
  C  C486  1  0.38850000  0.20700000  0.41570000  1
  C  C487  1  0.38850000  0.79300000  0.58430000  1
  C  C488  1  0.38900000  0.15770000  0.91060000  1
  C  C489  1  0.38900000  0.84230000  0.08940000  1
  C  C490  1  0.38930000  0.24830000  0.10940000  1
  C  C491  1  0.38930000  0.75170000  0.89060000  1
  C  C492  1  0.40730000  0.29270000  0.14910000  1
  C  C493  1  0.40730000  0.70730000  0.85090000  1
  C  C494  1  0.41390000  0.33810000  0.88520000  1
  C  C495  1  0.41390000  0.66190000  0.11480000  1
  C  C496  1  0.41570000  0.38850000  0.20700000  1
  C  C497  1  0.41570000  0.61150000  0.79300000  1
  C  C498  1  0.41850000  0.32960000  0.94470000  1
  C  C499  1  0.41850000  0.67040000  0.05530000  1
  C  C500  1  0.42180000  0.43950000  0.24340000  1
  C  C501  1  0.42180000  0.56050000  0.75660000  1
  C  C502  1  0.43780000  0.25800000  0.32250000  1
  C  C503  1  0.43780000  0.74200000  0.67750000  1
  C  C504  1  0.43920000  0.21550000  0.08780000  1
  C  C505  1  0.43920000  0.78450000  0.91220000  1
  C  C506  1  0.43950000  0.24340000  0.42180000  1
  C  C507  1  0.43950000  0.75660000  0.57820000  1
  C  C508  1  0.44740000  0.20050000  0.82120000  1
  C  C509  1  0.44740000  0.79950000  0.17880000  1
  C  C510  1  0.44770000  0.17170000  0.91560000  1
  C  C511  1  0.44770000  0.82830000  0.08440000  1
  C  C512  1  0.46360000  0.26430000  0.37330000  1
  C  C513  1  0.46360000  0.73570000  0.62670000  1
  C  C514  1  0.47460000  0.18780000  0.86950000  1
  C  C515  1  0.47460000  0.81220000  0.13050000  1
  C  C516  1  0.48200000  0.29630000  0.63100000  1
  C  C517  1  0.48200000  0.70370000  0.36900000  1
  C  C518  1  0.51800000  0.29630000  0.36900000  1
  C  C519  1  0.51800000  0.70370000  0.63100000  1
  C  C520  1  0.52540000  0.18780000  0.13050000  1
  C  C521  1  0.52540000  0.81220000  0.86950000  1
  C  C522  1  0.53640000  0.26430000  0.62670000  1
  C  C523  1  0.53640000  0.73570000  0.37330000  1
  C  C524  1  0.55230000  0.17170000  0.08440000  1
  C  C525  1  0.55230000  0.82830000  0.91560000  1
  C  C526  1  0.55260000  0.20050000  0.17880000  1
  C  C527  1  0.55260000  0.79950000  0.82120000  1
  C  C528  1  0.56050000  0.24340000  0.57820000  1
  C  C529  1  0.56050000  0.75660000  0.42180000  1
  C  C530  1  0.56080000  0.21550000  0.91220000  1
  C  C531  1  0.56080000  0.78450000  0.08780000  1
  C  C532  1  0.56220000  0.25800000  0.67750000  1
  C  C533  1  0.56220000  0.74200000  0.32250000  1
  C  C534  1  0.57820000  0.43950000  0.75660000  1
  C  C535  1  0.57820000  0.56050000  0.24340000  1
  C  C536  1  0.58150000  0.32960000  0.05530000  1
  C  C537  1  0.58150000  0.67040000  0.94470000  1
  C  C538  1  0.58430000  0.38850000  0.79300000  1
  C  C539  1  0.58430000  0.61150000  0.20700000  1
  C  C540  1  0.58610000  0.33810000  0.11480000  1
  C  C541  1  0.58610000  0.66190000  0.88520000  1
  C  C542  1  0.59270000  0.29270000  0.85090000  1
  C  C543  1  0.59270000  0.70730000  0.14910000  1
  C  C544  1  0.61070000  0.24830000  0.89060000  1
  C  C545  1  0.61070000  0.75170000  0.10940000  1
  C  C546  1  0.61100000  0.15770000  0.08940000  1
  C  C547  1  0.61100000  0.84230000  0.91060000  1
  C  C548  1  0.61150000  0.20700000  0.58430000  1
  C  C549  1  0.61150000  0.79300000  0.41570000  1
  C  C550  1  0.61200000  0.18970000  0.18190000  1
  C  C551  1  0.61200000  0.81030000  0.81810000  1
  C  C552  1  0.61480000  0.22560000  0.68140000  1
  C  C553  1  0.61480000  0.77440000  0.31860000  1
  C  C554  1  0.62670000  0.31170000  0.02640000  1
  C  C555  1  0.62670000  0.46360000  0.73570000  1
  C  C556  1  0.62670000  0.53640000  0.26430000  1
  C  C557  1  0.62670000  0.68830000  0.97360000  1
  C  C558  1  0.63100000  0.48200000  0.29630000  1
  C  C559  1  0.63100000  0.51800000  0.70370000  1
  C  C560  1  0.63470000  0.36520000  0.80060000  1
  C  C561  1  0.63470000  0.63480000  0.19940000  1
  C  C562  1  0.63480000  0.19940000  0.63470000  1
  C  C563  1  0.63480000  0.80060000  0.36530000  1
  C  C564  1  0.63570000  0.32990000  0.14110000  1
  C  C565  1  0.63570000  0.67010000  0.85890000  1
  C  C566  1  0.63880000  0.33320000  0.20250000  1
  C  C567  1  0.63880000  0.66680000  0.79750000  1
  C  C568  1  0.64030000  0.17080000  0.13710000  1
  C  C569  1  0.64030000  0.82920000  0.86290000  1
  C  C570  1  0.64580000  0.26920000  0.94030000  1
  C  C571  1  0.64580000  0.73080000  0.05970000  1
  C  C572  1  0.65060000  0.20510000  0.85780000  1
  C  C573  1  0.65060000  0.79490000  0.14220000  1
  C  C574  1  0.66190000  0.11480000  0.41390000  1
  C  C575  1  0.66190000  0.88520000  0.58610000  1
  C  C576  1  0.66680000  0.20250000  0.36120000  1
  C  C577  1  0.66680000  0.79750000  0.63880000  1
  C  C578  1  0.67010000  0.14110000  0.36430000  1
  C  C579  1  0.67010000  0.85890000  0.63570000  1
  C  C580  1  0.67040000  0.05530000  0.41850000  1
  C  C581  1  0.67040000  0.94470000  0.58150000  1
  C  C582  1  0.67590000  0.30050000  0.05110000  1
  C  C583  1  0.67590000  0.69950000  0.94890000  1
  C  C584  1  0.67750000  0.43780000  0.74200000  1
  C  C585  1  0.67750000  0.56220000  0.25800000  1
  C  C586  1  0.68110000  0.31060000  0.11220000  1
  C  C587  1  0.68110000  0.68940000  0.88780000  1
  C  C588  1  0.68140000  0.38520000  0.77440000  1
  C  C589  1  0.68140000  0.61480000  0.22560000  1
  C  C590  1  0.68830000  0.02640000  0.37330000  1
  C  C591  1  0.68830000  0.97360000  0.62670000  1
  C  C592  1  0.68940000  0.11220000  0.31890000  1
  C  C593  1  0.68940000  0.88780000  0.68110000  1
  C  C594  1  0.69940000  0.12690000  0.88570000  1
  C  C595  1  0.69940000  0.87310000  0.11430000  1
  C  C596  1  0.69950000  0.05110000  0.32410000  1
  C  C597  1  0.69950000  0.94890000  0.67590000  1
  C  C598  1  0.70290000  0.16520000  0.13800000  1
  C  C599  1  0.70290000  0.83480000  0.86200000  1
  C  C600  1  0.70370000  0.36900000  0.48200000  1
  C  C601  1  0.70370000  0.63100000  0.51800000  1
  C  C602  1  0.70730000  0.14910000  0.59270000  1
  C  C603  1  0.70730000  0.85090000  0.40730000  1
  C  C604  1  0.71720000  0.09660000  0.93130000  1
  C  C605  1  0.71720000  0.90340000  0.06870000  1
  C  C606  1  0.71840000  0.11890000  0.83300000  1
  C  C607  1  0.71840000  0.88110000  0.16700000  1
  C  C608  1  0.73080000  0.05970000  0.64580000  1
  C  C609  1  0.73080000  0.94030000  0.35420000  1
  C  C610  1  0.73570000  0.37330000  0.53640000  1
  C  C611  1  0.73570000  0.62670000  0.46360000  1
  C  C612  1  0.74200000  0.32250000  0.56220000  1
  C  C613  1  0.74200000  0.67750000  0.43780000  1
  C  C614  1  0.74980000  0.06490000  0.82230000  1
  C  C615  1  0.74980000  0.93510000  0.17770000  1
  C  C616  1  0.74990000  0.04630000  0.92150000  1
  C  C617  1  0.74990000  0.95370000  0.07850000  1
  C  C618  1  0.75170000  0.10940000  0.61070000  1
  C  C619  1  0.75170000  0.89060000  0.38930000  1
  C  C620  1  0.75660000  0.42180000  0.56050000  1
  C  C621  1  0.75660000  0.57820000  0.43950000  1
  C  C622  1  0.76940000  0.03710000  0.86830000  1
  C  C623  1  0.76940000  0.96290000  0.13170000  1
  C  C624  1  0.77440000  0.31860000  0.61480000  1
  C  C625  1  0.77440000  0.68140000  0.38520000  1
  C  C626  1  0.78450000  0.08780000  0.56080000  1
  C  C627  1  0.78450000  0.91220000  0.43920000  1
  C  C628  1  0.79300000  0.41570000  0.61150000  1
  C  C629  1  0.79300000  0.58430000  0.38850000  1
  C  C630  1  0.79490000  0.14220000  0.65060000  1
  C  C631  1  0.79490000  0.85780000  0.34940000  1
  C  C632  1  0.79750000  0.36120000  0.33320000  1
  C  C633  1  0.79750000  0.63880000  0.66680000  1
  C  C634  1  0.79950000  0.17880000  0.44740000  1
  C  C635  1  0.79950000  0.82120000  0.55260000  1
  C  C636  1  0.80060000  0.36530000  0.63480000  1
  C  C637  1  0.80060000  0.63470000  0.36520000  1
  C  C638  1  0.80200000  0.01710000  0.13040000  1
  C  C639  1  0.80200000  0.98290000  0.86960000  1
  C  C640  1  0.81030000  0.18190000  0.38800000  1
  C  C641  1  0.81030000  0.81810000  0.61200000  1
  C  C642  1  0.81220000  0.13050000  0.47460000  1
  C  C643  1  0.81220000  0.86950000  0.52540000  1
  C  C644  1  0.81810000  0.38800000  0.18970000  1
  C  C645  1  0.81810000  0.61200000  0.81030000  1
  C  C646  1  0.82120000  0.44740000  0.20050000  1
  C  C647  1  0.82120000  0.55260000  0.79950000  1
  C  C648  1  0.82230000  0.25020000  0.93510000  1
  C  C649  1  0.82230000  0.74980000  0.06490000  1
  C  C650  1  0.82830000  0.08440000  0.44770000  1
  C  C651  1  0.82830000  0.91560000  0.55230000  1
  C  C652  1  0.82920000  0.13710000  0.35970000  1
  C  C653  1  0.82920000  0.86290000  0.64030000  1
  C  C654  1  0.83300000  0.28160000  0.88110000  1
  C  C655  1  0.83300000  0.71840000  0.11890000  1
  C  C656  1  0.83480000  0.13800000  0.29710000  1
  C  C657  1  0.83480000  0.86200000  0.70290000  1
  C  C658  1  0.84230000  0.08940000  0.38900000  1
  C  C659  1  0.84230000  0.91060000  0.61100000  1
  C  C660  1  0.85090000  0.40730000  0.70730000  1
  C  C661  1  0.85090000  0.59270000  0.29270000  1
  C  C662  1  0.85780000  0.34940000  0.79490000  1
  C  C663  1  0.85780000  0.65060000  0.20510000  1
  C  C664  1  0.85890000  0.36430000  0.32990000  1
  C  C665  1  0.85890000  0.63570000  0.67010000  1
  C  C666  1  0.86200000  0.29710000  0.16520000  1
  C  C667  1  0.86200000  0.70290000  0.83480000  1
  C  C668  1  0.86290000  0.35970000  0.17080000  1
  C  C669  1  0.86290000  0.64030000  0.82920000  1
  C  C670  1  0.86830000  0.23060000  0.96290000  1
  C  C671  1  0.86830000  0.76940000  0.03710000  1
  C  C672  1  0.86950000  0.47460000  0.18780000  1
  C  C673  1  0.86950000  0.52540000  0.81220000  1
  C  C674  1  0.86960000  0.19800000  0.01710000  1
  C  C675  1  0.86960000  0.80200000  0.98290000  1
  C  C676  1  0.87310000  0.11430000  0.69940000  1
  C  C677  1  0.87310000  0.88570000  0.30060000  1
  C  C678  1  0.88110000  0.16700000  0.71840000  1
  C  C679  1  0.88110000  0.83300000  0.28160000  1
  C  C680  1  0.88520000  0.41390000  0.33810000  1
  C  C681  1  0.88520000  0.58610000  0.66190000  1
  C  C682  1  0.88570000  0.30060000  0.87310000  1
  C  C683  1  0.88570000  0.69940000  0.12690000  1
  C  C684  1  0.88780000  0.31890000  0.31060000  1
  C  C685  1  0.88780000  0.68110000  0.68940000  1
  C  C686  1  0.89060000  0.38930000  0.75170000  1
  C  C687  1  0.89060000  0.61070000  0.24830000  1
  C  C688  1  0.90340000  0.06870000  0.71720000  1
  C  C689  1  0.90340000  0.93130000  0.28280000  1
  C  C690  1  0.91060000  0.38900000  0.15770000  1
  C  C691  1  0.91060000  0.61100000  0.84230000  1
  C  C692  1  0.91220000  0.43920000  0.78450000  1
  C  C693  1  0.91220000  0.56080000  0.21550000  1
  C  C694  1  0.91560000  0.44770000  0.17170000  1
  C  C695  1  0.91560000  0.55230000  0.82830000  1
  C  C696  1  0.92150000  0.25010000  0.95370000  1
  C  C697  1  0.92150000  0.74990000  0.04630000  1
  C  C698  1  0.93130000  0.28280000  0.90340000  1
  C  C699  1  0.93130000  0.71720000  0.09660000  1
  C  C700  1  0.93510000  0.17770000  0.74980000  1
  C  C701  1  0.93510000  0.82230000  0.25020000  1
  C  C702  1  0.94030000  0.35420000  0.73080000  1
  C  C703  1  0.94030000  0.64580000  0.26920000  1
  C  C704  1  0.94470000  0.41850000  0.32960000  1
  C  C705  1  0.94470000  0.58150000  0.67040000  1
  C  C706  1  0.94890000  0.32410000  0.30050000  1
  C  C707  1  0.94890000  0.67590000  0.69950000  1
  C  C708  1  0.95370000  0.07850000  0.74990000  1
  C  C709  1  0.95370000  0.92150000  0.25010000  1
  C  C710  1  0.96290000  0.13170000  0.76940000  1
  C  C711  1  0.96290000  0.86830000  0.23060000  1
  C  C712  1  0.97360000  0.37330000  0.31170000  1
  C  C713  1  0.97360000  0.62670000  0.68830000  1
  C  C714  1  0.98290000  0.13040000  0.19800000  1
  C  C715  1  0.98290000  0.86960000  0.80200000  1
  O  O716  1  0.01870000  0.18220000  0.83060000  1
  O  O717  1  0.01870000  0.81780000  0.16940000  1
  O  O718  1  0.03030000  0.37930000  0.30530000  1
  O  O719  1  0.03030000  0.62070000  0.69470000  1
  O  O720  1  0.04520000  0.08620000  0.80290000  1
  O  O721  1  0.04520000  0.91380000  0.19710000  1
  O  O722  1  0.08620000  0.19710000  0.95480000  1
  O  O723  1  0.08620000  0.80290000  0.04520000  1
  O  O724  1  0.09830000  0.27430000  0.85320000  1
  O  O725  1  0.09830000  0.72570000  0.14680000  1
  O  O726  1  0.09990000  0.33480000  0.17120000  1
  O  O727  1  0.09990000  0.66520000  0.82880000  1
  O  O728  1  0.12970000  0.47000000  0.19860000  1
  O  O729  1  0.12970000  0.53000000  0.80140000  1
  O  O730  1  0.14680000  0.09830000  0.72570000  1
  O  O731  1  0.14680000  0.90170000  0.27430000  1
  O  O732  1  0.15190000  0.15190000  0.84810000  1
  O  O733  1  0.15190000  0.84810000  0.15190000  1
  O  O734  1  0.16940000  0.01870000  0.81780000  1
  O  O735  1  0.16940000  0.98130000  0.18220000  1
  O  O736  1  0.17120000  0.09990000  0.33480000  1
  O  O737  1  0.17120000  0.90010000  0.66520000  1
  O  O738  1  0.17220000  0.35850000  0.31380000  1
  O  O739  1  0.17220000  0.64150000  0.68620000  1
  O  O740  1  0.18060000  0.18450000  0.72470000  1
  O  O741  1  0.18060000  0.81550000  0.27530000  1
  O  O742  1  0.18220000  0.16940000  0.98130000  1
  O  O743  1  0.18220000  0.83060000  0.01870000  1
  O  O744  1  0.18450000  0.27530000  0.81940000  1
  O  O745  1  0.18450000  0.72470000  0.18060000  1
  O  O746  1  0.19710000  0.04520000  0.91380000  1
  O  O747  1  0.19710000  0.95480000  0.08620000  1
  O  O748  1  0.19860000  0.12970000  0.47000000  1
  O  O749  1  0.19860000  0.87030000  0.53000000  1
  O  O750  1  0.22460000  0.31760000  0.68090000  1
  O  O751  1  0.22460000  0.68240000  0.31910000  1
  O  O752  1  0.22540000  0.40280000  0.64690000  1
  O  O753  1  0.22540000  0.59720000  0.35310000  1
  O  O754  1  0.27430000  0.14680000  0.90170000  1
  O  O755  1  0.27430000  0.85320000  0.09830000  1
  O  O756  1  0.27530000  0.18060000  0.81550000  1
  O  O757  1  0.27530000  0.81940000  0.18450000  1
  O  O758  1  0.30090000  0.41560000  0.54870000  1
  O  O759  1  0.30090000  0.58440000  0.45130000  1
  O  O760  1  0.30530000  0.03030000  0.37930000  1
  O  O761  1  0.30530000  0.96970000  0.62070000  1
  O  O762  1  0.31380000  0.17220000  0.35850000  1
  O  O763  1  0.31380000  0.82780000  0.64150000  1
  O  O764  1  0.31760000  0.31910000  0.77540000  1
  O  O765  1  0.31760000  0.68090000  0.22460000  1
  O  O766  1  0.31870000  0.48220000  0.66720000  1
  O  O767  1  0.31870000  0.51780000  0.33280000  1
  O  O768  1  0.31910000  0.22460000  0.68240000  1
  O  O769  1  0.31910000  0.77540000  0.31760000  1
  O  O770  1  0.33280000  0.31870000  0.51780000  1
  O  O771  1  0.33280000  0.68130000  0.48220000  1
  O  O772  1  0.33480000  0.17120000  0.09990000  1
  O  O773  1  0.33480000  0.82880000  0.90010000  1
  O  O774  1  0.34880000  0.34880000  0.65120000  1
  O  O775  1  0.34880000  0.65120000  0.34880000  1
  O  O776  1  0.35310000  0.22540000  0.59720000  1
  O  O777  1  0.35310000  0.77460000  0.40280000  1
  O  O778  1  0.35850000  0.31380000  0.17220000  1
  O  O779  1  0.35850000  0.68620000  0.82780000  1
  O  O780  1  0.37930000  0.30530000  0.03030000  1
  O  O781  1  0.37930000  0.69470000  0.96970000  1
  O  O782  1  0.40280000  0.35310000  0.77460000  1
  O  O783  1  0.40280000  0.64690000  0.22540000  1
  O  O784  1  0.41560000  0.45130000  0.69910000  1
  O  O785  1  0.41560000  0.54870000  0.30090000  1
  O  O786  1  0.45130000  0.30090000  0.58440000  1
  O  O787  1  0.45130000  0.69910000  0.41560000  1
  O  O788  1  0.47000000  0.19860000  0.12970000  1
  O  O789  1  0.47000000  0.80140000  0.87030000  1
  O  O790  1  0.48220000  0.33280000  0.68130000  1
  O  O791  1  0.48220000  0.66720000  0.31870000  1
  O  O792  1  0.51780000  0.33280000  0.31870000  1
  O  O793  1  0.51780000  0.66720000  0.68130000  1
  O  O794  1  0.53000000  0.19860000  0.87030000  1
  O  O795  1  0.53000000  0.80140000  0.12970000  1
  O  O796  1  0.54870000  0.30090000  0.41560000  1
  O  O797  1  0.54870000  0.69910000  0.58440000  1
  O  O798  1  0.58440000  0.45130000  0.30090000  1
  O  O799  1  0.58440000  0.54870000  0.69910000  1
  O  O800  1  0.59720000  0.35310000  0.22540000  1
  O  O801  1  0.59720000  0.64690000  0.77460000  1
  O  O802  1  0.62070000  0.30530000  0.96970000  1
  O  O803  1  0.62070000  0.69470000  0.03030000  1
  O  O804  1  0.64150000  0.31380000  0.82780000  1
  O  O805  1  0.64150000  0.68620000  0.17220000  1
  O  O806  1  0.64690000  0.22540000  0.40280000  1
  O  O807  1  0.64690000  0.77460000  0.59720000  1
  O  O808  1  0.65120000  0.34880000  0.34880000  1
  O  O809  1  0.65120000  0.65120000  0.65120000  1
  O  O810  1  0.66520000  0.17120000  0.90010000  1
  O  O811  1  0.66520000  0.82880000  0.09990000  1
  O  O812  1  0.66720000  0.31870000  0.48220000  1
  O  O813  1  0.66720000  0.68130000  0.51780000  1
  O  O814  1  0.68090000  0.22460000  0.31760000  1
  O  O815  1  0.68090000  0.77540000  0.68240000  1
  O  O816  1  0.68130000  0.48220000  0.33280000  1
  O  O817  1  0.68130000  0.51780000  0.66720000  1
  O  O818  1  0.68240000  0.31910000  0.22460000  1
  O  O819  1  0.68240000  0.68090000  0.77540000  1
  O  O820  1  0.68620000  0.17220000  0.64150000  1
  O  O821  1  0.68620000  0.82780000  0.35850000  1
  O  O822  1  0.69470000  0.03030000  0.62070000  1
  O  O823  1  0.69470000  0.96970000  0.37930000  1
  O  O824  1  0.69910000  0.41560000  0.45130000  1
  O  O825  1  0.69910000  0.58440000  0.54870000  1
  O  O826  1  0.72470000  0.18060000  0.18450000  1
  O  O827  1  0.72470000  0.81940000  0.81550000  1
  O  O828  1  0.72570000  0.14680000  0.09830000  1
  O  O829  1  0.72570000  0.85320000  0.90170000  1
  O  O830  1  0.77460000  0.40280000  0.35310000  1
  O  O831  1  0.77460000  0.59720000  0.64690000  1
  O  O832  1  0.77540000  0.31760000  0.31910000  1
  O  O833  1  0.77540000  0.68240000  0.68090000  1
  O  O834  1  0.80140000  0.12970000  0.53000000  1
  O  O835  1  0.80140000  0.87030000  0.47000000  1
  O  O836  1  0.80290000  0.04520000  0.08620000  1
  O  O837  1  0.80290000  0.95480000  0.91380000  1
  O  O838  1  0.81550000  0.27530000  0.18060000  1
  O  O839  1  0.81550000  0.72470000  0.81940000  1
  O  O840  1  0.81780000  0.16940000  0.01870000  1
  O  O841  1  0.81780000  0.83060000  0.98130000  1
  O  O842  1  0.81940000  0.18450000  0.27530000  1
  O  O843  1  0.81940000  0.81550000  0.72470000  1
  O  O844  1  0.82780000  0.35850000  0.68620000  1
  O  O845  1  0.82780000  0.64150000  0.31380000  1
  O  O846  1  0.82880000  0.09990000  0.66520000  1
  O  O847  1  0.82880000  0.90010000  0.33480000  1
  O  O848  1  0.83060000  0.01870000  0.18220000  1
  O  O849  1  0.83060000  0.98130000  0.81780000  1
  O  O850  1  0.84810000  0.15190000  0.15190000  1
  O  O851  1  0.84810000  0.84810000  0.84810000  1
  O  O852  1  0.85320000  0.09830000  0.27430000  1
  O  O853  1  0.85320000  0.90170000  0.72570000  1
  O  O854  1  0.87030000  0.47000000  0.80140000  1
  O  O855  1  0.87030000  0.53000000  0.19860000  1
  O  O856  1  0.90010000  0.33480000  0.82880000  1
  O  O857  1  0.90010000  0.66520000  0.17120000  1
  O  O858  1  0.90170000  0.27430000  0.14680000  1
  O  O859  1  0.90170000  0.72570000  0.85320000  1
  O  O860  1  0.91380000  0.19710000  0.04520000  1
  O  O861  1  0.91380000  0.80290000  0.95480000  1
  O  O862  1  0.95480000  0.08620000  0.19710000  1
  O  O863  1  0.95480000  0.91380000  0.80290000  1
  O  O864  1  0.96970000  0.37930000  0.69470000  1
  O  O865  1  0.96970000  0.62070000  0.30530000  1
  O  O866  1  0.98130000  0.18220000  0.16940000  1
  O  O867  1  0.98130000  0.81780000  0.83060000  1
