# generated using pymatgen
data_Cu2H24C19(NO)6
_symmetry_space_group_name_H-M   'P 1'
_cell_length_a   13.04100000
_cell_length_b   14.41100000
_cell_length_c   16.30700000
_cell_angle_alpha   90.00000000
_cell_angle_beta   90.00000000
_cell_angle_gamma   90.00000000
_symmetry_Int_Tables_number   1
_chemical_formula_structural   Cu2H24C19(NO)6
_chemical_formula_sum   'Cu8 H96 C76 N24 O24'
_cell_volume   3064.63730826
_cell_formula_units_Z   4
loop_
 _symmetry_equiv_pos_site_id
 _symmetry_equiv_pos_as_xyz
  1  'x, y, z'
loop_
 _atom_site_type_symbol
 _atom_site_label
 _atom_site_symmetry_multiplicity
 _atom_site_fract_x
 _atom_site_fract_y
 _atom_site_fract_z
 _atom_site_occupancy
  Cu  Cu0  1  0.05982000  0.53698000  0.91402000  1
  Cu  Cu1  1  0.20991000  0.29449000  0.66033000  1
  Cu  Cu2  1  0.29009000  0.70551000  0.16033000  1
  Cu  Cu3  1  0.44018000  0.46302000  0.41402000  1
  Cu  Cu4  1  0.55982000  0.96302000  0.08598000  1
  Cu  Cu5  1  0.70991000  0.20551000  0.33967000  1
  Cu  Cu6  1  0.79009000  0.79449000  0.83967000  1
  Cu  Cu7  1  0.94018000  0.03698000  0.58598000  1
  H  H8  1  0.00090000  0.84490000  0.59890000  1
  H  H9  1  0.00250000  0.84560000  0.02700000  1
  H  H10  1  0.02040000  0.82880000  0.19570000  1
  H  H11  1  0.02200000  0.23060000  0.32800000  1
  H  H12  1  0.02670000  0.66870000  0.67160000  1
  H  H13  1  0.04440000  0.02780000  0.78430000  1
  H  H14  1  0.04640000  0.25450000  0.93870000  1
  H  H15  1  0.06040000  0.41800000  0.52420000  1
  H  H16  1  0.06500000  0.78490000  0.53730000  1
  H  H17  1  0.06760000  0.19190000  0.09060000  1
  H  H18  1  0.07580000  0.41150000  0.42900000  1
  H  H19  1  0.07920000  0.41740000  0.26190000  1
  H  H20  1  0.08360000  0.76440000  0.13690000  1
  H  H21  1  0.08450000  0.58590000  0.62970000  1
  H  H22  1  0.09740000  0.22760000  0.17790000  1
  H  H23  1  0.09850000  0.58180000  0.47160000  1
  H  H24  1  0.12240000  0.53520000  0.09350000  1
  H  H25  1  0.13470000  0.63800000  0.70390000  1
  H  H26  1  0.14160000  0.67780000  0.50080000  1
  H  H27  1  0.14870000  0.26070000  0.44480000  1
  H  H28  1  0.15670000  0.49220000  0.22980000  1
  H  H29  1  0.19140000  0.38850000  0.23860000  1
  H  H30  1  0.21650000  0.60170000  0.46700000  1
  H  H31  1  0.22830000  0.36500000  0.83380000  1
  H  H32  1  0.27170000  0.63500000  0.33380000  1
  H  H33  1  0.28350000  0.39830000  0.96700000  1
  H  H34  1  0.30860000  0.61150000  0.73860000  1
  H  H35  1  0.34330000  0.50780000  0.72980000  1
  H  H36  1  0.35130000  0.73930000  0.94480000  1
  H  H37  1  0.35840000  0.32220000  0.00080000  1
  H  H38  1  0.36530000  0.36200000  0.20390000  1
  H  H39  1  0.37760000  0.46480000  0.59350000  1
  H  H40  1  0.40150000  0.41820000  0.97160000  1
  H  H41  1  0.40260000  0.77240000  0.67790000  1
  H  H42  1  0.41550000  0.41410000  0.12970000  1
  H  H43  1  0.41640000  0.23560000  0.63690000  1
  H  H44  1  0.42080000  0.58260000  0.76190000  1
  H  H45  1  0.42420000  0.58850000  0.92900000  1
  H  H46  1  0.43240000  0.80810000  0.59060000  1
  H  H47  1  0.43500000  0.21510000  0.03730000  1
  H  H48  1  0.43960000  0.58200000  0.02420000  1
  H  H49  1  0.45360000  0.74550000  0.43870000  1
  H  H50  1  0.45560000  0.97220000  0.28430000  1
  H  H51  1  0.47330000  0.33130000  0.17160000  1
  H  H52  1  0.47800000  0.76940000  0.82800000  1
  H  H53  1  0.47960000  0.17120000  0.69570000  1
  H  H54  1  0.49750000  0.15440000  0.52700000  1
  H  H55  1  0.49910000  0.15510000  0.09890000  1
  H  H56  1  0.50090000  0.65510000  0.40110000  1
  H  H57  1  0.50250000  0.65440000  0.97300000  1
  H  H58  1  0.52040000  0.67120000  0.80430000  1
  H  H59  1  0.52200000  0.26940000  0.67200000  1
  H  H60  1  0.52670000  0.83130000  0.32840000  1
  H  H61  1  0.54440000  0.47220000  0.21570000  1
  H  H62  1  0.54640000  0.24550000  0.06130000  1
  H  H63  1  0.56040000  0.08200000  0.47580000  1
  H  H64  1  0.56500000  0.71510000  0.46270000  1
  H  H65  1  0.56760000  0.30810000  0.90940000  1
  H  H66  1  0.57580000  0.08850000  0.57100000  1
  H  H67  1  0.57920000  0.08260000  0.73810000  1
  H  H68  1  0.58360000  0.73560000  0.86310000  1
  H  H69  1  0.58450000  0.91410000  0.37030000  1
  H  H70  1  0.59740000  0.27240000  0.82210000  1
  H  H71  1  0.59850000  0.91820000  0.52840000  1
  H  H72  1  0.62240000  0.96480000  0.90650000  1
  H  H73  1  0.63470000  0.86200000  0.29610000  1
  H  H74  1  0.64160000  0.82220000  0.49920000  1
  H  H75  1  0.64870000  0.23930000  0.55520000  1
  H  H76  1  0.65670000  0.00780000  0.77020000  1
  H  H77  1  0.69140000  0.11150000  0.76140000  1
  H  H78  1  0.71650000  0.89830000  0.53300000  1
  H  H79  1  0.72830000  0.13500000  0.16620000  1
  H  H80  1  0.77170000  0.86500000  0.66620000  1
  H  H81  1  0.78350000  0.10170000  0.03300000  1
  H  H82  1  0.80860000  0.88850000  0.26140000  1
  H  H83  1  0.84330000  0.99220000  0.27020000  1
  H  H84  1  0.85130000  0.76070000  0.05520000  1
  H  H85  1  0.85840000  0.17780000  0.99920000  1
  H  H86  1  0.86530000  0.13800000  0.79610000  1
  H  H87  1  0.87760000  0.03520000  0.40650000  1
  H  H88  1  0.90150000  0.08180000  0.02840000  1
  H  H89  1  0.90260000  0.72760000  0.32210000  1
  H  H90  1  0.91550000  0.08590000  0.87030000  1
  H  H91  1  0.91640000  0.26440000  0.36310000  1
  H  H92  1  0.92080000  0.91740000  0.23810000  1
  H  H93  1  0.92420000  0.91150000  0.07100000  1
  H  H94  1  0.93240000  0.69190000  0.40940000  1
  H  H95  1  0.93500000  0.28490000  0.96270000  1
  H  H96  1  0.93960000  0.91800000  0.97580000  1
  H  H97  1  0.95360000  0.75450000  0.56130000  1
  H  H98  1  0.95560000  0.52780000  0.71570000  1
  H  H99  1  0.97330000  0.16870000  0.82840000  1
  H  H100  1  0.97800000  0.73060000  0.17200000  1
  H  H101  1  0.97960000  0.32880000  0.30430000  1
  H  H102  1  0.99750000  0.34560000  0.47300000  1
  H  H103  1  0.99910000  0.34490000  0.90110000  1
  C  C104  1  0.00250000  0.30660000  0.94910000  1
  C  C105  1  0.02010000  0.54920000  0.74000000  1
  C  C106  1  0.03880000  0.76580000  0.18370000  1
  C  C107  1  0.04400000  0.36140000  0.01840000  1
  C  C108  1  0.04920000  0.23580000  0.13320000  1
  C  C109  1  0.05690000  0.71100000  0.33580000  1
  C  C110  1  0.06230000  0.37670000  0.47800000  1
  C  C111  1  0.06290000  0.33280000  0.09930000  1
  C  C112  1  0.06710000  0.15630000  0.66900000  1
  C  C113  1  0.07120000  0.61670000  0.68090000  1
  C  C114  1  0.07200000  0.18410000  0.57880000  1
  C  C115  1  0.08870000  0.46590000  0.75440000  1
  C  C116  1  0.09210000  0.72480000  0.25550000  1
  C  C117  1  0.10100000  0.41000000  0.13830000  1
  C  C118  1  0.13520000  0.42870000  0.22500000  1
  C  C119  1  0.13620000  0.66710000  0.37510000  1
  C  C120  1  0.14730000  0.30470000  0.49070000  1
  C  C121  1  0.14940000  0.62850000  0.46170000  1
  C  C122  1  0.24900000  0.64550000  0.99810000  1
  C  C123  1  0.25100000  0.35450000  0.49810000  1
  C  C124  1  0.35060000  0.37150000  0.96170000  1
  C  C125  1  0.35270000  0.69530000  0.99070000  1
  C  C126  1  0.36380000  0.33290000  0.87510000  1
  C  C127  1  0.36480000  0.57130000  0.72500000  1
  C  C128  1  0.39900000  0.59000000  0.63830000  1
  C  C129  1  0.40790000  0.27520000  0.75550000  1
  C  C130  1  0.41130000  0.53410000  0.25440000  1
  C  C131  1  0.42800000  0.81590000  0.07880000  1
  C  C132  1  0.42880000  0.38330000  0.18090000  1
  C  C133  1  0.43290000  0.84370000  0.16900000  1
  C  C134  1  0.43710000  0.66720000  0.59930000  1
  C  C135  1  0.43770000  0.62330000  0.97800000  1
  C  C136  1  0.44310000  0.28900000  0.83580000  1
  C  C137  1  0.45080000  0.76420000  0.63320000  1
  C  C138  1  0.45600000  0.63860000  0.51840000  1
  C  C139  1  0.46120000  0.23420000  0.68370000  1
  C  C140  1  0.47990000  0.45080000  0.24000000  1
  C  C141  1  0.49750000  0.69340000  0.44910000  1
  C  C142  1  0.50250000  0.19340000  0.05090000  1
  C  C143  1  0.52010000  0.95080000  0.26000000  1
  C  C144  1  0.53880000  0.73420000  0.81630000  1
  C  C145  1  0.54400000  0.13860000  0.98160000  1
  C  C146  1  0.54920000  0.26420000  0.86680000  1
  C  C147  1  0.55690000  0.78900000  0.66420000  1
  C  C148  1  0.56230000  0.12330000  0.52200000  1
  C  C149  1  0.56290000  0.16720000  0.90070000  1
  C  C150  1  0.56710000  0.34370000  0.33100000  1
  C  C151  1  0.57120000  0.88330000  0.31910000  1
  C  C152  1  0.57200000  0.31590000  0.42120000  1
  C  C153  1  0.58870000  0.03410000  0.24560000  1
  C  C154  1  0.59210000  0.77520000  0.74450000  1
  C  C155  1  0.60100000  0.09000000  0.86170000  1
  C  C156  1  0.63520000  0.07130000  0.77500000  1
  C  C157  1  0.63620000  0.83290000  0.62490000  1
  C  C158  1  0.64730000  0.19530000  0.50930000  1
  C  C159  1  0.64940000  0.87150000  0.53830000  1
  C  C160  1  0.74900000  0.85450000  0.00190000  1
  C  C161  1  0.75100000  0.14550000  0.50190000  1
  C  C162  1  0.85060000  0.12850000  0.03830000  1
  C  C163  1  0.85270000  0.80470000  0.00930000  1
  C  C164  1  0.86380000  0.16710000  0.12490000  1
  C  C165  1  0.86480000  0.92870000  0.27500000  1
  C  C166  1  0.89900000  0.91000000  0.36170000  1
  C  C167  1  0.90790000  0.22480000  0.24450000  1
  C  C168  1  0.91130000  0.96590000  0.74560000  1
  C  C169  1  0.92800000  0.68410000  0.92120000  1
  C  C170  1  0.92880000  0.11670000  0.81910000  1
  C  C171  1  0.93290000  0.65630000  0.83100000  1
  C  C172  1  0.93710000  0.83280000  0.40070000  1
  C  C173  1  0.93770000  0.87670000  0.02200000  1
  C  C174  1  0.94310000  0.21100000  0.16420000  1
  C  C175  1  0.95080000  0.73580000  0.36680000  1
  C  C176  1  0.95600000  0.86140000  0.48160000  1
  C  C177  1  0.96120000  0.26580000  0.31630000  1
  C  C178  1  0.97990000  0.04920000  0.76000000  1
  C  C179  1  0.99750000  0.80660000  0.55090000  1
  N  N180  1  0.00180000  0.09180000  0.68150000  1
  N  N181  1  0.06930000  0.45100000  0.00930000  1
  N  N182  1  0.10260000  0.47960000  0.08300000  1
  N  N183  1  0.13070000  0.25550000  0.56780000  1
  N  N184  1  0.18870000  0.69330000  0.24840000  1
  N  N185  1  0.21320000  0.65920000  0.32210000  1
  N  N186  1  0.28680000  0.34080000  0.82210000  1
  N  N187  1  0.31130000  0.30670000  0.74840000  1
  N  N188  1  0.36930000  0.74450000  0.06780000  1
  N  N189  1  0.39740000  0.52040000  0.58300000  1
  N  N190  1  0.43070000  0.54900000  0.50930000  1
  N  N191  1  0.49820000  0.90820000  0.18150000  1
  N  N192  1  0.50180000  0.40820000  0.31850000  1
  N  N193  1  0.56930000  0.04900000  0.99070000  1
  N  N194  1  0.60260000  0.02040000  0.91700000  1
  N  N195  1  0.63070000  0.24450000  0.43220000  1
  N  N196  1  0.68870000  0.80670000  0.75160000  1
  N  N197  1  0.71320000  0.84080000  0.67790000  1
  N  N198  1  0.78680000  0.15920000  0.17790000  1
  N  N199  1  0.81130000  0.19330000  0.25160000  1
  N  N200  1  0.86930000  0.75550000  0.93220000  1
  N  N201  1  0.89740000  0.97960000  0.41700000  1
  N  N202  1  0.93070000  0.95100000  0.49070000  1
  N  N203  1  0.99820000  0.59180000  0.81850000  1
  O  O204  1  0.02070000  0.13730000  0.52660000  1
  O  O205  1  0.11350000  0.44890000  0.82930000  1
  O  O206  1  0.12080000  0.42150000  0.69540000  1
  O  O207  1  0.12630000  0.19720000  0.71980000  1
  O  O208  1  0.20910000  0.64270000  0.07130000  1
  O  O209  1  0.21230000  0.60760000  0.93750000  1
  O  O210  1  0.28770000  0.39240000  0.43750000  1
  O  O211  1  0.29090000  0.35730000  0.57130000  1
  O  O212  1  0.37370000  0.80280000  0.21980000  1
  O  O213  1  0.37920000  0.57850000  0.19540000  1
  O  O214  1  0.38650000  0.55110000  0.32930000  1
  O  O215  1  0.47930000  0.86270000  0.02660000  1
  O  O216  1  0.52070000  0.36270000  0.47340000  1
  O  O217  1  0.61350000  0.05110000  0.17070000  1
  O  O218  1  0.62080000  0.07850000  0.30460000  1
  O  O219  1  0.62630000  0.30280000  0.28020000  1
  O  O220  1  0.70910000  0.85730000  0.92870000  1
  O  O221  1  0.71230000  0.89240000  0.06250000  1
  O  O222  1  0.78770000  0.10760000  0.56250000  1
  O  O223  1  0.79090000  0.14270000  0.42870000  1
  O  O224  1  0.87370000  0.69720000  0.78020000  1
  O  O225  1  0.87920000  0.92150000  0.80460000  1
  O  O226  1  0.88650000  0.94890000  0.67070000  1
  O  O227  1  0.97930000  0.63730000  0.97340000  1
