# generated using pymatgen
data_Cd3H14(C5O2)6
_symmetry_space_group_name_H-M   'P 1'
_cell_length_a   7.87330000
_cell_length_b   10.14320000
_cell_length_c   13.52800000
_cell_angle_alpha   68.35500000
_cell_angle_beta   79.64500000
_cell_angle_gamma   70.70200000
_symmetry_Int_Tables_number   1
_chemical_formula_structural   Cd3H14(C5O2)6
_chemical_formula_sum   'Cd3 H14 C30 O12'
_cell_volume   945.68873017
_cell_formula_units_Z   1
loop_
 _symmetry_equiv_pos_site_id
 _symmetry_equiv_pos_as_xyz
  1  'x, y, z'
loop_
 _atom_site_type_symbol
 _atom_site_label
 _atom_site_symmetry_multiplicity
 _atom_site_fract_x
 _atom_site_fract_y
 _atom_site_fract_z
 _atom_site_occupancy
  Cd  Cd0  1  0.17333000  0.34410000  0.45664000  1
  Cd  Cd1  1  0.50000000  0.00000000  0.50000000  1
  Cd  Cd2  1  0.82667000  0.65590000  0.54336000  1
  H  H3  1  0.06430000  0.24070000  0.98730000  1
  H  H4  1  0.11270000  0.29610000  0.80310000  1
  H  H5  1  0.14670000  0.86820000  0.44350000  1
  H  H6  1  0.16970000  0.18430000  0.15810000  1
  H  H7  1  0.20250000  0.77710000  0.17130000  1
  H  H8  1  0.39770000  0.83320000  0.02680000  1
  H  H9  1  0.44910000  0.88810000  0.84340000  1
  H  H10  1  0.55090000  0.11190000  0.15660000  1
  H  H11  1  0.60230000  0.16680000  0.97320000  1
  H  H12  1  0.79750000  0.22290000  0.82870000  1
  H  H13  1  0.83030000  0.81570000  0.84190000  1
  H  H14  1  0.85330000  0.13180000  0.55650000  1
  H  H15  1  0.88730000  0.70390000  0.19690000  1
  H  H16  1  0.93570000  0.75930000  0.01270000  1
  C  C17  1  0.14020000  0.16940000  0.95900000  1
  C  C18  1  0.15680000  0.15020000  0.36150000  1
  C  C19  1  0.15770000  0.89790000  0.36950000  1
  C  C20  1  0.16020000  0.04230000  0.30930000  1
  C  C21  1  0.16210000  0.64540000  0.37590000  1
  C  C22  1  0.17100000  0.20290000  0.84820000  1
  C  C23  1  0.17210000  0.79750000  0.31740000  1
  C  C24  1  0.17380000  0.08660000  0.19770000  1
  C  C25  1  0.19100000  0.84420000  0.20560000  1
  C  C26  1  0.19310000  0.98770000  0.14490000  1
  C  C27  1  0.22370000  0.02890000  0.02580000  1
  C  C28  1  0.28740000  0.09850000  0.80550000  1
  C  C29  1  0.31510000  0.13230000  0.68520000  1
  C  C30  1  0.33950000  0.92660000  0.98190000  1
  C  C31  1  0.37190000  0.95920000  0.87160000  1
  C  C32  1  0.62810000  0.04080000  0.12840000  1
  C  C33  1  0.66050000  0.07340000  0.01810000  1
  C  C34  1  0.68490000  0.86770000  0.31480000  1
  C  C35  1  0.71260000  0.90150000  0.19450000  1
  C  C36  1  0.77630000  0.97110000  0.97420000  1
  C  C37  1  0.80690000  0.01230000  0.85510000  1
  C  C38  1  0.80900000  0.15580000  0.79440000  1
  C  C39  1  0.82620000  0.91340000  0.80230000  1
  C  C40  1  0.82790000  0.20250000  0.68260000  1
  C  C41  1  0.82900000  0.79710000  0.15180000  1
  C  C42  1  0.83790000  0.35460000  0.62410000  1
  C  C43  1  0.83980000  0.95770000  0.69070000  1
  C  C44  1  0.84230000  0.10210000  0.63050000  1
  C  C45  1  0.84320000  0.84980000  0.63850000  1
  C  C46  1  0.85980000  0.83060000  0.04100000  1
  O  O47  1  0.11610000  0.28390000  0.31380000  1
  O  O48  1  0.11890000  0.60330000  0.47890000  1
  O  O49  1  0.20150000  0.09960000  0.45830000  1
  O  O50  1  0.20220000  0.55330000  0.32770000  1
  O  O51  1  0.23430000  0.25640000  0.62800000  1
  O  O52  1  0.41940000  0.02860000  0.65460000  1
  O  O53  1  0.58060000  0.97140000  0.34540000  1
  O  O54  1  0.76570000  0.74360000  0.37200000  1
  O  O55  1  0.79780000  0.44670000  0.67230000  1
  O  O56  1  0.79850000  0.90040000  0.54170000  1
  O  O57  1  0.88110000  0.39670000  0.52110000  1
  O  O58  1  0.88390000  0.71610000  0.68620000  1
