# generated using pymatgen
data_MnH6(C3O)4
_symmetry_space_group_name_H-M   'P 1'
_cell_length_a   12.28300000
_cell_length_b   13.38600000
_cell_length_c   13.93100000
_cell_angle_alpha   102.14000000
_cell_angle_beta   101.47000000
_cell_angle_gamma   95.13000000
_symmetry_Int_Tables_number   1
_chemical_formula_structural   MnH6(C3O)4
_chemical_formula_sum   'Mn6 H36 C72 O24'
_cell_volume   2173.90838376
_cell_formula_units_Z   6
loop_
 _symmetry_equiv_pos_site_id
 _symmetry_equiv_pos_as_xyz
  1  'x, y, z'
loop_
 _atom_site_type_symbol
 _atom_site_label
 _atom_site_symmetry_multiplicity
 _atom_site_fract_x
 _atom_site_fract_y
 _atom_site_fract_z
 _atom_site_occupancy
  Mn  Mn0  1  0.00000000  0.00000000  0.00000000  1
  Mn  Mn1  1  0.00000000  0.50000000  0.50000000  1
  Mn  Mn2  1  0.08690000  0.75711000  0.60780000  1
  Mn  Mn3  1  0.10143000  0.11659000  0.24925000  1
  Mn  Mn4  1  0.89857000  0.88341000  0.75075000  1
  Mn  Mn5  1  0.91310000  0.24289000  0.39220000  1
  H  H6  1  0.02620000  0.30560000  0.91250000  1
  H  H7  1  0.03060000  0.42420000  0.79660000  1
  H  H8  1  0.20300000  0.40000000  0.20120000  1
  H  H9  1  0.20510000  0.12490000  0.94890000  1
  H  H10  1  0.21880000  0.70450000  0.89720000  1
  H  H11  1  0.22510000  0.45410000  0.61990000  1
  H  H12  1  0.24270000  0.51140000  0.37160000  1
  H  H13  1  0.26010000  0.87190000  0.01740000  1
  H  H14  1  0.27270000  0.55250000  0.17130000  1
  H  H15  1  0.27970000  0.67150000  0.05370000  1
  H  H16  1  0.31510000  0.90800000  0.75340000  1
  H  H17  1  0.33760000  0.24860000  0.41620000  1
  H  H18  1  0.38630000  0.20410000  0.01940000  1
  H  H19  1  0.38770000  0.45650000  0.30060000  1
  H  H20  1  0.40660000  0.79520000  0.96680000  1
  H  H21  1  0.40720000  0.52800000  0.69890000  1
  H  H22  1  0.45700000  0.74160000  0.57770000  1
  H  H23  1  0.47850000  0.08990000  0.23400000  1
  H  H24  1  0.52150000  0.91010000  0.76600000  1
  H  H25  1  0.54300000  0.25840000  0.42230000  1
  H  H26  1  0.59280000  0.47200000  0.30110000  1
  H  H27  1  0.59340000  0.20480000  0.03320000  1
  H  H28  1  0.61230000  0.54350000  0.69940000  1
  H  H29  1  0.61370000  0.79590000  0.98060000  1
  H  H30  1  0.66240000  0.75140000  0.58380000  1
  H  H31  1  0.68490000  0.09200000  0.24660000  1
  H  H32  1  0.72030000  0.32850000  0.94630000  1
  H  H33  1  0.72730000  0.44750000  0.82870000  1
  H  H34  1  0.73990000  0.12810000  0.98260000  1
  H  H35  1  0.75730000  0.48860000  0.62840000  1
  H  H36  1  0.77490000  0.54590000  0.38010000  1
  H  H37  1  0.78120000  0.29550000  0.10280000  1
  H  H38  1  0.79490000  0.87510000  0.05110000  1
  H  H39  1  0.79700000  0.60000000  0.79880000  1
  H  H40  1  0.96940000  0.57580000  0.20340000  1
  H  H41  1  0.97380000  0.69440000  0.08750000  1
  C  C42  1  0.06970000  0.23593000  0.08111000  1
  C  C43  1  0.07490000  0.35663000  0.96502000  1
  C  C44  1  0.08040000  0.47404000  0.84937000  1
  C  C45  1  0.08693000  0.58856000  0.72932000  1
  C  C46  1  0.10740000  0.33713000  0.05836000  1
  C  C47  1  0.11300000  0.45213000  0.94573000  1
  C  C48  1  0.11940000  0.56570000  0.83143000  1
  C  C49  1  0.12664000  0.95562000  0.80338000  1
  C  C50  1  0.14757000  0.30340000  0.45409000  1
  C  C51  1  0.18130000  0.41290000  0.13610000  1
  C  C52  1  0.18830000  0.52640000  0.02360000  1
  C  C53  1  0.19310000  0.64020000  0.90950000  1
  C  C54  1  0.22150000  0.50360000  0.11870000  1
  C  C55  1  0.22830000  0.62120000  0.00260000  1
  C  C56  1  0.24212000  0.66725000  0.52766000  1
  C  C57  1  0.24395000  0.00681000  0.84549000  1
  C  C58  1  0.25994000  0.03905000  0.16182000  1
  C  C59  1  0.26482000  0.34578000  0.50811000  1
  C  C60  1  0.26565000  0.09679000  0.92491000  1
  C  C61  1  0.28593000  0.42883000  0.59415000  1
  C  C62  1  0.31675000  0.54643000  0.39878000  1
  C  C63  1  0.33063000  0.96648000  0.80867000  1
  C  C64  1  0.33521000  0.90059000  0.05033000  1
  C  C65  1  0.33701000  0.63264000  0.48200000  1
  C  C66  1  0.35249000  0.30647000  0.47196000  1
  C  C67  1  0.35621000  0.98969000  0.13095000  1
  C  C68  1  0.37292000  0.14314000  0.96707000  1
  C  C69  1  0.39382000  0.47307000  0.64056000  1
  C  C70  1  0.40279000  0.51337000  0.35742000  1
  C  C71  1  0.42200000  0.85571000  0.01976000  1
  C  C72  1  0.44292000  0.01172000  0.85272000  1
  C  C73  1  0.44417000  0.68316000  0.52265000  1
  C  C74  1  0.46417000  0.35132000  0.51695000  1
  C  C75  1  0.46491000  0.10148000  0.93373000  1
  C  C76  1  0.46492000  0.03139000  0.17892000  1
  C  C77  1  0.48576000  0.43725000  0.60193000  1
  C  C78  1  0.51424000  0.56275000  0.39807000  1
  C  C79  1  0.53508000  0.96861000  0.82108000  1
  C  C80  1  0.53509000  0.89852000  0.06627000  1
  C  C81  1  0.53583000  0.64868000  0.48305000  1
  C  C82  1  0.55583000  0.31684000  0.47735000  1
  C  C83  1  0.55708000  0.98828000  0.14728000  1
  C  C84  1  0.57800000  0.14429000  0.98024000  1
  C  C85  1  0.59721000  0.48663000  0.64258000  1
  C  C86  1  0.60618000  0.52693000  0.35944000  1
  C  C87  1  0.62708000  0.85686000  0.03293000  1
  C  C88  1  0.64379000  0.01031000  0.86905000  1
  C  C89  1  0.64751000  0.69353000  0.52804000  1
  C  C90  1  0.66299000  0.36736000  0.51800000  1
  C  C91  1  0.66479000  0.09941000  0.94967000  1
  C  C92  1  0.66937000  0.03352000  0.19133000  1
  C  C93  1  0.68325000  0.45357000  0.60122000  1
  C  C94  1  0.71407000  0.57117000  0.40585000  1
  C  C95  1  0.73435000  0.90321000  0.07509000  1
  C  C96  1  0.73518000  0.65422000  0.49189000  1
  C  C97  1  0.74006000  0.96095000  0.83818000  1
  C  C98  1  0.75605000  0.99319000  0.15451000  1
  C  C99  1  0.75788000  0.33275000  0.47234000  1
  C  C100  1  0.77170000  0.37880000  0.99740000  1
  C  C101  1  0.77850000  0.49640000  0.88130000  1
  C  C102  1  0.80690000  0.35980000  0.09050000  1
  C  C103  1  0.81170000  0.47360000  0.97640000  1
  C  C104  1  0.81870000  0.58710000  0.86390000  1
  C  C105  1  0.85243000  0.69660000  0.54591000  1
  C  C106  1  0.87336000  0.04438000  0.19662000  1
  C  C107  1  0.88060000  0.43430000  0.16857000  1
  C  C108  1  0.88700000  0.54787000  0.05427000  1
  C  C109  1  0.89260000  0.66287000  0.94164000  1
  C  C110  1  0.91307000  0.41144000  0.27068000  1
  C  C111  1  0.91960000  0.52596000  0.15063000  1
  C  C112  1  0.92510000  0.64337000  0.03498000  1
  C  C113  1  0.93030000  0.76407000  0.91889000  1
  O  O114  1  0.02478000  0.16153000  0.00750000  1
  O  O115  1  0.04018000  0.51304000  0.65669000  1
  O  O116  1  0.05360000  0.97462000  0.85500000  1
  O  O117  1  0.06831000  0.35285000  0.47447000  1
  O  O118  1  0.08929000  0.23406000  0.17271000  1
  O  O119  1  0.09946000  0.89672000  0.71669000  1
  O  O120  1  0.11250000  0.67947000  0.72380000  1
  O  O121  1  0.12730000  0.21842000  0.39101000  1
  O  O122  1  0.14930000  0.60830000  0.50239000  1
  O  O123  1  0.16227000  0.00827000  0.10538000  1
  O  O124  1  0.25660000  0.75452000  0.58739000  1
  O  O125  1  0.27715000  0.10655000  0.24275000  1
  O  O126  1  0.72285000  0.89345000  0.75725000  1
  O  O127  1  0.74340000  0.24548000  0.41261000  1
  O  O128  1  0.83773000  0.99173000  0.89462000  1
  O  O129  1  0.85070000  0.39170000  0.49761000  1
  O  O130  1  0.87270000  0.78158000  0.60899000  1
  O  O131  1  0.88750000  0.32053000  0.27620000  1
  O  O132  1  0.90054000  0.10328000  0.28331000  1
  O  O133  1  0.91071000  0.76594000  0.82729000  1
  O  O134  1  0.93169000  0.64715000  0.52553000  1
  O  O135  1  0.94640000  0.02538000  0.14500000  1
  O  O136  1  0.95982000  0.48696000  0.34331000  1
  O  O137  1  0.97522000  0.83847000  0.99250000  1
