# generated using pymatgen
data_Dy2Mn3H18C42(NO4)6
_symmetry_space_group_name_H-M   'P 1'
_cell_length_a   15.27700000
_cell_length_b   15.27700000
_cell_length_c   15.77600000
_cell_angle_alpha   90.00000000
_cell_angle_beta   90.00000000
_cell_angle_gamma   120.00000000
_symmetry_Int_Tables_number   1
_chemical_formula_structural   Dy2Mn3H18C42(NO4)6
_chemical_formula_sum   'Dy4 Mn6 H36 C84 N12 O48'
_cell_volume   3188.62676021
_cell_formula_units_Z   2
loop_
 _symmetry_equiv_pos_site_id
 _symmetry_equiv_pos_as_xyz
  1  'x, y, z'
loop_
 _atom_site_type_symbol
 _atom_site_label
 _atom_site_symmetry_multiplicity
 _atom_site_fract_x
 _atom_site_fract_y
 _atom_site_fract_z
 _atom_site_occupancy
  Dy  Dy0  1  0.66666667  0.33333333  0.75000000  1
  Dy  Dy1  1  0.66666667  0.33333333  0.25000000  1
  Dy  Dy2  1  0.33333333  0.66666667  0.75000000  1
  Dy  Dy3  1  0.33333333  0.66666667  0.25000000  1
  Mn  Mn4  1  1.00000000  0.50000000  0.00000000  1
  Mn  Mn5  1  1.00000000  0.50000000  0.50000000  1
  Mn  Mn6  1  0.50000000  0.50000000  0.00000000  1
  Mn  Mn7  1  0.50000000  0.50000000  0.50000000  1
  Mn  Mn8  1  0.50000000  0.00000000  0.00000000  1
  Mn  Mn9  1  0.50000000  0.00000000  0.50000000  1
  H  H10  1  0.94380000  0.23300000  0.65560000  1
  H  H11  1  0.94380000  0.23300000  0.34440000  1
  H  H12  1  0.94380000  0.71080000  0.84440000  1
  H  H13  1  0.94380000  0.71080000  0.15560000  1
  H  H14  1  0.89995000  0.10005000  0.75000000  1
  H  H15  1  0.89995000  0.10005000  0.25000000  1
  H  H16  1  0.89995000  0.79990000  0.75000000  1
  H  H17  1  0.89995000  0.79990000  0.25000000  1
  H  H18  1  0.79990000  0.89995000  0.75000000  1
  H  H19  1  0.79990000  0.89995000  0.25000000  1
  H  H20  1  0.76700000  0.05620000  0.84440000  1
  H  H21  1  0.76700000  0.05620000  0.15560000  1
  H  H22  1  0.76700000  0.71080000  0.65560000  1
  H  H23  1  0.76700000  0.71080000  0.34440000  1
  H  H24  1  0.71080000  0.76700000  0.84440000  1
  H  H25  1  0.71080000  0.76700000  0.15560000  1
  H  H26  1  0.71080000  0.94380000  0.65560000  1
  H  H27  1  0.71080000  0.94380000  0.34440000  1
  H  H28  1  0.28920000  0.05620000  0.65560000  1
  H  H29  1  0.28920000  0.05620000  0.34440000  1
  H  H30  1  0.28920000  0.23300000  0.84440000  1
  H  H31  1  0.28920000  0.23300000  0.15560000  1
  H  H32  1  0.23300000  0.28920000  0.65560000  1
  H  H33  1  0.23300000  0.28920000  0.34440000  1
  H  H34  1  0.23300000  0.94380000  0.84440000  1
  H  H35  1  0.23300000  0.94380000  0.15560000  1
  H  H36  1  0.20010000  0.10005000  0.75000000  1
  H  H37  1  0.20010000  0.10005000  0.25000000  1
  H  H38  1  0.10005000  0.20010000  0.75000000  1
  H  H39  1  0.10005000  0.20010000  0.25000000  1
  H  H40  1  0.10005000  0.89995000  0.75000000  1
  H  H41  1  0.10005000  0.89995000  0.25000000  1
  H  H42  1  0.05620000  0.28920000  0.84440000  1
  H  H43  1  0.05620000  0.28920000  0.15560000  1
  H  H44  1  0.05620000  0.76700000  0.65560000  1
  H  H45  1  0.05620000  0.76700000  0.34440000  1
  C  C46  1  0.89153000  0.21483000  0.69424000  1
  C  C47  1  0.89153000  0.21483000  0.30576000  1
  C  C48  1  0.89153000  0.67670000  0.80576000  1
  C  C49  1  0.89153000  0.67670000  0.19424000  1
  C  C50  1  0.86478000  0.13522000  0.75000000  1
  C  C51  1  0.86478000  0.13522000  0.25000000  1
  C  C52  1  0.86478000  0.72957000  0.75000000  1
  C  C53  1  0.86478000  0.72957000  0.25000000  1
  C  C54  1  0.86245000  0.35668000  0.64103000  1
  C  C55  1  0.86245000  0.35668000  0.35897000  1
  C  C56  1  0.86245000  0.50577000  0.85897000  1
  C  C57  1  0.86245000  0.50577000  0.14103000  1
  C  C58  1  0.83865000  0.26688000  0.69723000  1
  C  C59  1  0.83865000  0.26688000  0.30277000  1
  C  C60  1  0.83865000  0.57177000  0.80277000  1
  C  C61  1  0.83865000  0.57177000  0.19723000  1
  C  C62  1  0.78517000  0.10847000  0.80576000  1
  C  C63  1  0.78517000  0.10847000  0.19424000  1
  C  C64  1  0.78517000  0.67670000  0.69424000  1
  C  C65  1  0.78517000  0.67670000  0.30576000  1
  C  C66  1  0.73312000  0.16135000  0.80277000  1
  C  C67  1  0.73312000  0.16135000  0.19723000  1
  C  C68  1  0.73312000  0.57177000  0.69723000  1
  C  C69  1  0.73312000  0.57177000  0.30277000  1
  C  C70  1  0.72957000  0.86478000  0.75000000  1
  C  C71  1  0.72957000  0.86478000  0.25000000  1
  C  C72  1  0.67670000  0.78517000  0.80576000  1
  C  C73  1  0.67670000  0.78517000  0.19424000  1
  C  C74  1  0.67670000  0.89153000  0.69424000  1
  C  C75  1  0.67670000  0.89153000  0.30576000  1
  C  C76  1  0.64332000  0.13755000  0.85897000  1
  C  C77  1  0.64332000  0.13755000  0.14103000  1
  C  C78  1  0.64332000  0.50577000  0.64103000  1
  C  C79  1  0.64332000  0.50577000  0.35897000  1
  C  C80  1  0.57177000  0.73312000  0.80277000  1
  C  C81  1  0.57177000  0.73312000  0.19723000  1
  C  C82  1  0.57177000  0.83865000  0.69723000  1
  C  C83  1  0.57177000  0.83865000  0.30277000  1
  C  C84  1  0.50577000  0.64332000  0.85897000  1
  C  C85  1  0.50577000  0.64332000  0.14103000  1
  C  C86  1  0.50577000  0.86245000  0.64103000  1
  C  C87  1  0.50577000  0.86245000  0.35897000  1
  C  C88  1  0.49423000  0.13755000  0.64103000  1
  C  C89  1  0.49423000  0.13755000  0.35897000  1
  C  C90  1  0.49423000  0.35668000  0.85897000  1
  C  C91  1  0.49423000  0.35668000  0.14103000  1
  C  C92  1  0.42823000  0.16135000  0.69723000  1
  C  C93  1  0.42823000  0.16135000  0.30277000  1
  C  C94  1  0.42823000  0.26688000  0.80277000  1
  C  C95  1  0.42823000  0.26688000  0.19723000  1
  C  C96  1  0.35668000  0.49423000  0.64103000  1
  C  C97  1  0.35668000  0.49423000  0.35897000  1
  C  C98  1  0.35668000  0.86245000  0.85897000  1
  C  C99  1  0.35668000  0.86245000  0.14103000  1
  C  C100  1  0.32330000  0.10847000  0.69424000  1
  C  C101  1  0.32330000  0.10847000  0.30576000  1
  C  C102  1  0.32330000  0.21483000  0.80576000  1
  C  C103  1  0.32330000  0.21483000  0.19424000  1
  C  C104  1  0.27044000  0.13522000  0.75000000  1
  C  C105  1  0.27044000  0.13522000  0.25000000  1
  C  C106  1  0.26688000  0.42823000  0.69723000  1
  C  C107  1  0.26688000  0.42823000  0.30277000  1
  C  C108  1  0.26688000  0.83865000  0.80277000  1
  C  C109  1  0.26688000  0.83865000  0.19723000  1
  C  C110  1  0.21483000  0.32330000  0.69424000  1
  C  C111  1  0.21483000  0.32330000  0.30576000  1
  C  C112  1  0.21483000  0.89153000  0.80576000  1
  C  C113  1  0.21483000  0.89153000  0.19424000  1
  C  C114  1  0.16135000  0.42823000  0.80277000  1
  C  C115  1  0.16135000  0.42823000  0.19723000  1
  C  C116  1  0.16135000  0.73312000  0.69723000  1
  C  C117  1  0.16135000  0.73312000  0.30277000  1
  C  C118  1  0.13755000  0.49423000  0.85897000  1
  C  C119  1  0.13755000  0.49423000  0.14103000  1
  C  C120  1  0.13755000  0.64332000  0.64103000  1
  C  C121  1  0.13755000  0.64332000  0.35897000  1
  C  C122  1  0.13522000  0.27044000  0.75000000  1
  C  C123  1  0.13522000  0.27044000  0.25000000  1
  C  C124  1  0.13522000  0.86478000  0.75000000  1
  C  C125  1  0.13522000  0.86478000  0.25000000  1
  C  C126  1  0.10847000  0.32330000  0.80576000  1
  C  C127  1  0.10847000  0.32330000  0.19424000  1
  C  C128  1  0.10847000  0.78517000  0.69424000  1
  C  C129  1  0.10847000  0.78517000  0.30576000  1
  N  N130  1  0.75998000  0.24002000  0.75000000  1
  N  N131  1  0.75998000  0.24002000  0.25000000  1
  N  N132  1  0.75998000  0.51997000  0.75000000  1
  N  N133  1  0.75998000  0.51997000  0.25000000  1
  N  N134  1  0.51997000  0.75998000  0.75000000  1
  N  N135  1  0.51997000  0.75998000  0.25000000  1
  N  N136  1  0.48003000  0.24002000  0.75000000  1
  N  N137  1  0.48003000  0.24002000  0.25000000  1
  N  N138  1  0.24002000  0.48003000  0.75000000  1
  N  N139  1  0.24002000  0.48003000  0.25000000  1
  N  N140  1  0.24002000  0.75998000  0.75000000  1
  N  N141  1  0.24002000  0.75998000  0.25000000  1
  O  O142  1  0.93568000  0.38595000  0.59375000  1
  O  O143  1  0.93568000  0.38595000  0.40625000  1
  O  O144  1  0.93568000  0.54973000  0.90625000  1
  O  O145  1  0.93568000  0.54973000  0.09375000  1
  O  O146  1  0.80139000  0.38788000  0.64548000  1
  O  O147  1  0.80139000  0.38788000  0.35452000  1
  O  O148  1  0.80139000  0.41351000  0.85452000  1
  O  O149  1  0.80139000  0.41351000  0.14548000  1
  O  O150  1  0.61405000  0.06432000  0.90625000  1
  O  O151  1  0.61405000  0.06432000  0.09375000  1
  O  O152  1  0.61405000  0.54973000  0.59375000  1
  O  O153  1  0.61405000  0.54973000  0.40625000  1
  O  O154  1  0.61212000  0.19861000  0.85452000  1
  O  O155  1  0.61212000  0.19861000  0.14548000  1
  O  O156  1  0.61212000  0.41351000  0.64548000  1
  O  O157  1  0.61212000  0.41351000  0.35452000  1
  O  O158  1  0.58649000  0.19861000  0.64548000  1
  O  O159  1  0.58649000  0.19861000  0.35452000  1
  O  O160  1  0.58649000  0.38788000  0.85452000  1
  O  O161  1  0.58649000  0.38788000  0.14548000  1
  O  O162  1  0.54973000  0.61405000  0.90625000  1
  O  O163  1  0.54973000  0.61405000  0.09375000  1
  O  O164  1  0.54973000  0.93568000  0.59375000  1
  O  O165  1  0.54973000  0.93568000  0.40625000  1
  O  O166  1  0.45027000  0.06432000  0.59375000  1
  O  O167  1  0.45027000  0.06432000  0.40625000  1
  O  O168  1  0.45027000  0.38595000  0.90625000  1
  O  O169  1  0.45027000  0.38595000  0.09375000  1
  O  O170  1  0.41351000  0.61212000  0.85452000  1
  O  O171  1  0.41351000  0.61212000  0.14548000  1
  O  O172  1  0.41351000  0.80139000  0.64548000  1
  O  O173  1  0.41351000  0.80139000  0.35452000  1
  O  O174  1  0.38788000  0.58649000  0.64548000  1
  O  O175  1  0.38788000  0.58649000  0.35452000  1
  O  O176  1  0.38788000  0.80139000  0.85452000  1
  O  O177  1  0.38788000  0.80139000  0.14548000  1
  O  O178  1  0.38595000  0.45027000  0.59375000  1
  O  O179  1  0.38595000  0.45027000  0.40625000  1
  O  O180  1  0.38595000  0.93568000  0.90625000  1
  O  O181  1  0.38595000  0.93568000  0.09375000  1
  O  O182  1  0.19861000  0.58649000  0.85452000  1
  O  O183  1  0.19861000  0.58649000  0.14548000  1
  O  O184  1  0.19861000  0.61212000  0.64548000  1
  O  O185  1  0.19861000  0.61212000  0.35452000  1
  O  O186  1  0.06432000  0.45027000  0.90625000  1
  O  O187  1  0.06432000  0.45027000  0.09375000  1
  O  O188  1  0.06432000  0.61405000  0.59375000  1
  O  O189  1  0.06432000  0.61405000  0.40625000  1
