# generated using pymatgen
data_ZnH7C10N5O2
_symmetry_space_group_name_H-M   'P 1'
_cell_length_a   18.12100000
_cell_length_b   26.88400000
_cell_length_c   26.88400000
_cell_angle_alpha   120.00000000
_cell_angle_beta   90.00000000
_cell_angle_gamma   90.00000000
_symmetry_Int_Tables_number   1
_chemical_formula_structural   ZnH7C10N5O2
_chemical_formula_sum   'Zn24 H168 C240 N120 O48'
_cell_volume   11342.28525654
_cell_formula_units_Z   24
loop_
 _symmetry_equiv_pos_site_id
 _symmetry_equiv_pos_as_xyz
  1  'x, y, z'
loop_
 _atom_site_type_symbol
 _atom_site_label
 _atom_site_symmetry_multiplicity
 _atom_site_fract_x
 _atom_site_fract_y
 _atom_site_fract_z
 _atom_site_occupancy
  Zn  Zn0  1  0.08395000  0.11057000  0.66835000  1
  Zn  Zn1  1  0.08395000  0.33165000  0.88943000  1
  Zn  Zn2  1  0.08395000  0.11057000  0.44222000  1
  Zn  Zn3  1  0.08395000  0.55778000  0.88943000  1
  Zn  Zn4  1  0.08395000  0.33165000  0.44222000  1
  Zn  Zn5  1  0.08395000  0.55778000  0.66835000  1
  Zn  Zn6  1  0.41605000  0.11057000  0.66835000  1
  Zn  Zn7  1  0.41605000  0.33165000  0.88943000  1
  Zn  Zn8  1  0.41605000  0.11057000  0.44222000  1
  Zn  Zn9  1  0.41605000  0.55778000  0.88943000  1
  Zn  Zn10  1  0.41605000  0.33165000  0.44222000  1
  Zn  Zn11  1  0.41605000  0.55778000  0.66835000  1
  Zn  Zn12  1  0.58395000  0.44222000  0.33165000  1
  Zn  Zn13  1  0.58395000  0.66835000  0.55778000  1
  Zn  Zn14  1  0.58395000  0.44222000  0.11057000  1
  Zn  Zn15  1  0.58395000  0.88943000  0.55778000  1
  Zn  Zn16  1  0.58395000  0.66835000  0.11057000  1
  Zn  Zn17  1  0.58395000  0.88943000  0.33165000  1
  Zn  Zn18  1  0.91605000  0.44222000  0.33165000  1
  Zn  Zn19  1  0.91605000  0.66835000  0.55778000  1
  Zn  Zn20  1  0.91605000  0.44222000  0.11057000  1
  Zn  Zn21  1  0.91605000  0.88943000  0.55778000  1
  Zn  Zn22  1  0.91605000  0.66835000  0.11057000  1
  Zn  Zn23  1  0.91605000  0.88943000  0.33165000  1
  H  H24  1  0.00000000  0.42280000  0.42280000  1
  H  H25  1  0.00000000  0.57720000  0.57720000  1
  H  H26  1  0.02320000  0.54590000  0.36110000  1
  H  H27  1  0.02320000  0.63890000  0.45410000  1
  H  H28  1  0.02320000  0.54590000  0.18480000  1
  H  H29  1  0.02320000  0.81520000  0.45410000  1
  H  H30  1  0.02320000  0.63890000  0.18480000  1
  H  H31  1  0.02320000  0.81520000  0.36110000  1
  H  H32  1  0.03820000  0.03720000  0.82380000  1
  H  H33  1  0.03820000  0.17620000  0.96280000  1
  H  H34  1  0.03820000  0.03720000  0.21340000  1
  H  H35  1  0.03820000  0.78660000  0.96280000  1
  H  H36  1  0.03820000  0.17620000  0.21340000  1
  H  H37  1  0.03820000  0.78660000  0.82380000  1
  H  H38  1  0.05390000  0.08980000  0.77760000  1
  H  H39  1  0.05390000  0.22240000  0.91020000  1
  H  H40  1  0.05390000  0.08980000  0.31220000  1
  H  H41  1  0.05390000  0.68780000  0.91020000  1
  H  H42  1  0.05390000  0.22240000  0.31220000  1
  H  H43  1  0.05390000  0.68780000  0.77760000  1
  H  H44  1  0.09430000  0.43070000  0.30160000  1
  H  H45  1  0.09430000  0.69840000  0.56930000  1
  H  H46  1  0.09430000  0.43070000  0.12910000  1
  H  H47  1  0.09430000  0.87090000  0.56930000  1
  H  H48  1  0.09430000  0.69840000  0.12910000  1
  H  H49  1  0.09430000  0.87090000  0.30160000  1
  H  H50  1  0.13350000  0.22490000  0.77510000  1
  H  H51  1  0.13350000  0.22490000  0.44980000  1
  H  H52  1  0.13350000  0.55020000  0.77510000  1
  H  H53  1  0.18230000  0.02430000  0.69140000  1
  H  H54  1  0.18230000  0.30860000  0.97570000  1
  H  H55  1  0.18230000  0.02430000  0.33290000  1
  H  H56  1  0.18230000  0.66710000  0.97570000  1
  H  H57  1  0.18230000  0.30860000  0.33290000  1
  H  H58  1  0.18230000  0.66710000  0.69140000  1
  H  H59  1  0.20000000  0.43450000  0.25960000  1
  H  H60  1  0.20000000  0.74040000  0.56550000  1
  H  H61  1  0.20000000  0.43450000  0.17490000  1
  H  H62  1  0.20000000  0.82510000  0.56550000  1
  H  H63  1  0.20000000  0.74040000  0.17490000  1
  H  H64  1  0.20000000  0.82510000  0.25960000  1
  H  H65  1  0.30000000  0.43450000  0.25960000  1
  H  H66  1  0.30000000  0.74040000  0.56550000  1
  H  H67  1  0.30000000  0.43450000  0.17490000  1
  H  H68  1  0.30000000  0.82510000  0.56550000  1
  H  H69  1  0.30000000  0.74040000  0.17490000  1
  H  H70  1  0.30000000  0.82510000  0.25960000  1
  H  H71  1  0.31770000  0.02430000  0.69140000  1
  H  H72  1  0.31770000  0.30860000  0.97570000  1
  H  H73  1  0.31770000  0.02430000  0.33290000  1
  H  H74  1  0.31770000  0.66710000  0.97570000  1
  H  H75  1  0.31770000  0.30860000  0.33290000  1
  H  H76  1  0.31770000  0.66710000  0.69140000  1
  H  H77  1  0.36650000  0.22490000  0.77510000  1
  H  H78  1  0.36650000  0.22490000  0.44980000  1
  H  H79  1  0.36650000  0.55020000  0.77510000  1
  H  H80  1  0.40570000  0.43070000  0.30160000  1
  H  H81  1  0.40570000  0.69840000  0.56930000  1
  H  H82  1  0.40570000  0.43070000  0.12910000  1
  H  H83  1  0.40570000  0.87090000  0.56930000  1
  H  H84  1  0.40570000  0.69840000  0.12910000  1
  H  H85  1  0.40570000  0.87090000  0.30160000  1
  H  H86  1  0.44610000  0.08980000  0.77760000  1
  H  H87  1  0.44610000  0.22240000  0.91020000  1
  H  H88  1  0.44610000  0.08980000  0.31220000  1
  H  H89  1  0.44610000  0.68780000  0.91020000  1
  H  H90  1  0.44610000  0.22240000  0.31220000  1
  H  H91  1  0.44610000  0.68780000  0.77760000  1
  H  H92  1  0.46180000  0.03720000  0.82380000  1
  H  H93  1  0.46180000  0.17620000  0.96280000  1
  H  H94  1  0.46180000  0.03720000  0.21340000  1
  H  H95  1  0.46180000  0.78660000  0.96280000  1
  H  H96  1  0.46180000  0.17620000  0.21340000  1
  H  H97  1  0.46180000  0.78660000  0.82380000  1
  H  H98  1  0.47680000  0.54590000  0.36110000  1
  H  H99  1  0.47680000  0.63890000  0.45410000  1
  H  H100  1  0.47680000  0.54590000  0.18480000  1
  H  H101  1  0.47680000  0.81520000  0.45410000  1
  H  H102  1  0.47680000  0.63890000  0.18480000  1
  H  H103  1  0.47680000  0.81520000  0.36110000  1
  H  H104  1  0.50000000  0.42280000  0.42280000  1
  H  H105  1  0.50000000  0.57720000  0.57720000  1
  H  H106  1  0.50000000  1.00000000  0.57720000  1
  H  H107  1  0.50000000  0.42280000  0.00000000  1
  H  H108  1  0.50000000  1.00000000  0.42280000  1
  H  H109  1  0.50000000  0.57720000  1.00000000  1
  H  H110  1  0.52320000  0.18480000  0.63890000  1
  H  H111  1  0.52320000  0.36110000  0.81520000  1
  H  H112  1  0.52320000  0.18480000  0.54590000  1
  H  H113  1  0.52320000  0.45410000  0.81520000  1
  H  H114  1  0.52320000  0.36110000  0.54590000  1
  H  H115  1  0.52320000  0.45410000  0.63890000  1
  H  H116  1  0.53820000  0.21340000  0.17620000  1
  H  H117  1  0.53820000  0.82380000  0.78660000  1
  H  H118  1  0.53820000  0.21340000  0.03720000  1
  H  H119  1  0.53820000  0.96280000  0.78660000  1
  H  H120  1  0.53820000  0.82380000  0.03720000  1
  H  H121  1  0.53820000  0.96280000  0.17620000  1
  H  H122  1  0.55390000  0.31220000  0.22240000  1
  H  H123  1  0.55390000  0.77760000  0.68780000  1
  H  H124  1  0.55390000  0.31220000  0.08980000  1
  H  H125  1  0.55390000  0.91020000  0.68780000  1
  H  H126  1  0.55390000  0.77760000  0.08980000  1
  H  H127  1  0.55390000  0.91020000  0.22240000  1
  H  H128  1  0.59430000  0.12910000  0.69840000  1
  H  H129  1  0.59430000  0.30160000  0.87090000  1
  H  H130  1  0.59430000  0.12910000  0.43070000  1
  H  H131  1  0.59430000  0.56930000  0.87090000  1
  H  H132  1  0.59430000  0.30160000  0.43070000  1
  H  H133  1  0.59430000  0.56930000  0.69840000  1
  H  H134  1  0.63350000  0.44980000  0.22490000  1
  H  H135  1  0.63350000  0.77510000  0.55020000  1
  H  H136  1  0.63350000  0.77510000  0.22490000  1
  H  H137  1  0.68230000  0.33290000  0.30860000  1
  H  H138  1  0.68230000  0.69140000  0.66710000  1
  H  H139  1  0.68230000  0.33290000  0.02430000  1
  H  H140  1  0.68230000  0.97570000  0.66710000  1
  H  H141  1  0.68230000  0.69140000  0.02430000  1
  H  H142  1  0.68230000  0.97570000  0.30860000  1
  H  H143  1  0.70000000  0.17490000  0.74040000  1
  H  H144  1  0.70000000  0.25960000  0.82510000  1
  H  H145  1  0.70000000  0.17490000  0.43450000  1
  H  H146  1  0.70000000  0.56550000  0.82510000  1
  H  H147  1  0.70000000  0.25960000  0.43450000  1
  H  H148  1  0.70000000  0.56550000  0.74040000  1
  H  H149  1  0.80000000  0.17490000  0.74040000  1
  H  H150  1  0.80000000  0.25960000  0.82510000  1
  H  H151  1  0.80000000  0.17490000  0.43450000  1
  H  H152  1  0.80000000  0.56550000  0.82510000  1
  H  H153  1  0.80000000  0.25960000  0.43450000  1
  H  H154  1  0.80000000  0.56550000  0.74040000  1
  H  H155  1  0.81770000  0.33290000  0.30860000  1
  H  H156  1  0.81770000  0.69140000  0.66710000  1
  H  H157  1  0.81770000  0.33290000  0.02430000  1
  H  H158  1  0.81770000  0.97570000  0.66710000  1
  H  H159  1  0.81770000  0.69140000  0.02430000  1
  H  H160  1  0.81770000  0.97570000  0.30860000  1
  H  H161  1  0.86650000  0.44980000  0.22490000  1
  H  H162  1  0.86650000  0.77510000  0.55020000  1
  H  H163  1  0.86650000  0.77510000  0.22490000  1
  H  H164  1  0.90570000  0.12910000  0.69840000  1
  H  H165  1  0.90570000  0.30160000  0.87090000  1
  H  H166  1  0.90570000  0.12910000  0.43070000  1
  H  H167  1  0.90570000  0.56930000  0.87090000  1
  H  H168  1  0.90570000  0.30160000  0.43070000  1
  H  H169  1  0.90570000  0.56930000  0.69840000  1
  H  H170  1  0.94610000  0.31220000  0.22240000  1
  H  H171  1  0.94610000  0.77760000  0.68780000  1
  H  H172  1  0.94610000  0.31220000  0.08980000  1
  H  H173  1  0.94610000  0.91020000  0.68780000  1
  H  H174  1  0.94610000  0.77760000  0.08980000  1
  H  H175  1  0.94610000  0.91020000  0.22240000  1
  H  H176  1  0.96180000  0.21340000  0.17620000  1
  H  H177  1  0.96180000  0.82380000  0.78660000  1
  H  H178  1  0.96180000  0.21340000  0.03720000  1
  H  H179  1  0.96180000  0.96280000  0.78660000  1
  H  H180  1  0.96180000  0.82380000  0.03720000  1
  H  H181  1  0.96180000  0.96280000  0.17620000  1
  H  H182  1  0.97680000  0.18480000  0.63890000  1
  H  H183  1  0.97680000  0.36110000  0.81520000  1
  H  H184  1  0.97680000  0.18480000  0.54590000  1
  H  H185  1  0.97680000  0.45410000  0.81520000  1
  H  H186  1  0.97680000  0.36110000  0.54590000  1
  H  H187  1  0.97680000  0.45410000  0.63890000  1
  H  H188  1  1.00000000  1.00000000  0.57720000  1
  H  H189  1  1.00000000  0.42280000  0.00000000  1
  H  H190  1  1.00000000  1.00000000  0.42280000  1
  H  H191  1  1.00000000  0.57720000  0.00000000  1
  C  C192  1  0.00000000  0.38740000  0.38740000  1
  C  C193  1  0.00000000  0.61260000  0.61260000  1
  C  C194  1  1.00000000  1.00000000  0.61260000  1
  C  C195  1  1.00000000  0.38740000  1.00000000  1
  C  C196  1  0.00640000  0.16090000  0.60630000  1
  C  C197  1  0.00640000  0.39370000  0.83910000  1
  C  C198  1  0.00640000  0.16090000  0.55460000  1
  C  C199  1  0.00640000  0.44540000  0.83910000  1
  C  C200  1  0.00640000  0.39370000  0.55460000  1
  C  C201  1  0.00640000  0.44540000  0.60630000  1
  C  C202  1  0.01940000  0.02300000  0.78600000  1
  C  C203  1  0.01940000  0.21400000  0.97700000  1
  C  C204  1  0.01940000  0.02300000  0.23700000  1
  C  C205  1  0.01940000  0.76300000  0.97700000  1
  C  C206  1  0.01940000  0.21400000  0.23700000  1
  C  C207  1  0.01940000  0.76300000  0.78600000  1
  C  C208  1  0.02080000  0.02530000  0.70220000  1
  C  C209  1  0.02080000  0.29780000  0.97470000  1
  C  C210  1  0.02080000  0.02530000  0.32310000  1
  C  C211  1  0.02080000  0.67690000  0.97470000  1
  C  C212  1  0.02080000  0.29780000  0.32310000  1
  C  C213  1  0.02080000  0.67690000  0.70220000  1
  C  C214  1  0.02780000  0.43560000  0.24440000  1
  C  C215  1  0.02780000  0.75560000  0.56440000  1
  C  C216  1  0.02780000  0.43560000  0.19120000  1
  C  C217  1  0.02780000  0.80880000  0.56440000  1
  C  C218  1  0.02780000  0.75560000  0.19120000  1
  C  C219  1  0.02780000  0.80880000  0.24440000  1
  C  C220  1  0.03440000  0.05190000  0.75800000  1
  C  C221  1  0.03440000  0.24200000  0.94810000  1
  C  C222  1  0.03440000  0.05190000  0.29390000  1
  C  C223  1  0.03440000  0.70610000  0.94810000  1
  C  C224  1  0.03440000  0.24200000  0.29390000  1
  C  C225  1  0.03440000  0.70610000  0.75800000  1
  C  C226  1  0.08110000  0.09920000  0.54960000  1
  C  C227  1  0.08110000  0.45040000  0.90080000  1
  C  C228  1  0.08110000  0.45040000  0.54960000  1
  C  C229  1  0.08140000  0.22245000  0.77755000  1
  C  C230  1  0.08140000  0.22245000  0.44490000  1
  C  C231  1  0.08140000  0.55510000  0.77755000  1
  C  C232  1  0.09290000  0.43300000  0.26750000  1
  C  C233  1  0.09290000  0.73250000  0.56700000  1
  C  C234  1  0.09290000  0.43300000  0.16550000  1
  C  C235  1  0.09290000  0.83450000  0.56700000  1
  C  C236  1  0.09290000  0.73250000  0.16550000  1
  C  C237  1  0.09290000  0.83450000  0.26750000  1
  C  C238  1  0.15420000  0.43380000  0.24200000  1
  C  C239  1  0.15420000  0.75800000  0.56620000  1
  C  C240  1  0.15420000  0.43380000  0.19180000  1
  C  C241  1  0.15420000  0.80820000  0.56620000  1
  C  C242  1  0.15420000  0.75800000  0.19180000  1
  C  C243  1  0.15420000  0.80820000  0.24200000  1
  C  C244  1  0.21260000  0.05130000  0.68810000  1
  C  C245  1  0.21260000  0.31190000  0.94870000  1
  C  C246  1  0.21260000  0.05130000  0.36320000  1
  C  C247  1  0.21260000  0.63680000  0.94870000  1
  C  C248  1  0.21260000  0.31190000  0.36320000  1
  C  C249  1  0.21260000  0.63680000  0.68810000  1
  C  C250  1  0.25000000  0.12090000  0.68070000  1
  C  C251  1  0.25000000  0.31930000  0.87910000  1
  C  C252  1  0.25000000  0.12090000  0.44020000  1
  C  C253  1  0.25000000  0.55980000  0.87910000  1
  C  C254  1  0.25000000  0.31930000  0.44020000  1
  C  C255  1  0.25000000  0.55980000  0.68070000  1
  C  C256  1  0.28740000  0.05130000  0.68810000  1
  C  C257  1  0.28740000  0.31190000  0.94870000  1
  C  C258  1  0.28740000  0.05130000  0.36320000  1
  C  C259  1  0.28740000  0.63680000  0.94870000  1
  C  C260  1  0.28740000  0.31190000  0.36320000  1
  C  C261  1  0.28740000  0.63680000  0.68810000  1
  C  C262  1  0.34580000  0.43380000  0.24200000  1
  C  C263  1  0.34580000  0.75800000  0.56620000  1
  C  C264  1  0.34580000  0.43380000  0.19180000  1
  C  C265  1  0.34580000  0.80820000  0.56620000  1
  C  C266  1  0.34580000  0.75800000  0.19180000  1
  C  C267  1  0.34580000  0.80820000  0.24200000  1
  C  C268  1  0.40710000  0.43300000  0.26750000  1
  C  C269  1  0.40710000  0.73250000  0.56700000  1
  C  C270  1  0.40710000  0.43300000  0.16550000  1
  C  C271  1  0.40710000  0.83450000  0.56700000  1
  C  C272  1  0.40710000  0.73250000  0.16550000  1
  C  C273  1  0.40710000  0.83450000  0.26750000  1
  C  C274  1  0.41860000  0.22245000  0.77755000  1
  C  C275  1  0.41860000  0.22245000  0.44490000  1
  C  C276  1  0.41860000  0.55510000  0.77755000  1
  C  C277  1  0.41890000  0.09920000  0.54960000  1
  C  C278  1  0.41890000  0.45040000  0.90080000  1
  C  C279  1  0.41890000  0.45040000  0.54960000  1
  C  C280  1  0.46560000  0.05190000  0.75800000  1
  C  C281  1  0.46560000  0.24200000  0.94810000  1
  C  C282  1  0.46560000  0.05190000  0.29390000  1
  C  C283  1  0.46560000  0.70610000  0.94810000  1
  C  C284  1  0.46560000  0.24200000  0.29390000  1
  C  C285  1  0.46560000  0.70610000  0.75800000  1
  C  C286  1  0.47220000  0.43560000  0.24440000  1
  C  C287  1  0.47220000  0.75560000  0.56440000  1
  C  C288  1  0.47220000  0.43560000  0.19120000  1
  C  C289  1  0.47220000  0.80880000  0.56440000  1
  C  C290  1  0.47220000  0.75560000  0.19120000  1
  C  C291  1  0.47220000  0.80880000  0.24440000  1
  C  C292  1  0.47920000  0.02530000  0.70220000  1
  C  C293  1  0.47920000  0.29780000  0.97470000  1
  C  C294  1  0.47920000  0.02530000  0.32310000  1
  C  C295  1  0.47920000  0.67690000  0.97470000  1
  C  C296  1  0.47920000  0.29780000  0.32310000  1
  C  C297  1  0.47920000  0.67690000  0.70220000  1
  C  C298  1  0.48060000  0.02300000  0.78600000  1
  C  C299  1  0.48060000  0.21400000  0.97700000  1
  C  C300  1  0.48060000  0.02300000  0.23700000  1
  C  C301  1  0.48060000  0.76300000  0.97700000  1
  C  C302  1  0.48060000  0.21400000  0.23700000  1
  C  C303  1  0.48060000  0.76300000  0.78600000  1
  C  C304  1  0.49360000  0.16090000  0.60630000  1
  C  C305  1  0.49360000  0.39370000  0.83910000  1
  C  C306  1  0.49360000  0.16090000  0.55460000  1
  C  C307  1  0.49360000  0.44540000  0.83910000  1
  C  C308  1  0.49360000  0.39370000  0.55460000  1
  C  C309  1  0.49360000  0.44540000  0.60630000  1
  C  C310  1  0.50000000  0.38740000  0.38740000  1
  C  C311  1  0.50000000  0.61260000  0.61260000  1
  C  C312  1  0.50000000  1.00000000  0.61260000  1
  C  C313  1  0.50000000  0.38740000  0.00000000  1
  C  C314  1  0.50000000  1.00000000  0.38740000  1
  C  C315  1  0.50000000  0.61260000  1.00000000  1
  C  C316  1  0.50640000  0.55460000  0.39370000  1
  C  C317  1  0.50640000  0.60630000  0.44540000  1
  C  C318  1  0.50640000  0.55460000  0.16090000  1
  C  C319  1  0.50640000  0.83910000  0.44540000  1
  C  C320  1  0.50640000  0.60630000  0.16090000  1
  C  C321  1  0.50640000  0.83910000  0.39370000  1
  C  C322  1  0.51940000  0.23700000  0.21400000  1
  C  C323  1  0.51940000  0.78600000  0.76300000  1
  C  C324  1  0.51940000  0.23700000  0.02300000  1
  C  C325  1  0.51940000  0.97700000  0.76300000  1
  C  C326  1  0.51940000  0.78600000  0.02300000  1
  C  C327  1  0.51940000  0.97700000  0.21400000  1
  C  C328  1  0.52080000  0.32310000  0.29780000  1
  C  C329  1  0.52080000  0.70220000  0.67690000  1
  C  C330  1  0.52080000  0.32310000  0.02530000  1
  C  C331  1  0.52080000  0.97470000  0.67690000  1
  C  C332  1  0.52080000  0.70220000  0.02530000  1
  C  C333  1  0.52080000  0.97470000  0.29780000  1
  C  C334  1  0.52780000  0.19120000  0.75560000  1
  C  C335  1  0.52780000  0.24440000  0.80880000  1
  C  C336  1  0.52780000  0.19120000  0.43560000  1
  C  C337  1  0.52780000  0.56440000  0.80880000  1
  C  C338  1  0.52780000  0.24440000  0.43560000  1
  C  C339  1  0.52780000  0.56440000  0.75560000  1
  C  C340  1  0.53440000  0.29390000  0.24200000  1
  C  C341  1  0.53440000  0.75800000  0.70610000  1
  C  C342  1  0.53440000  0.29390000  0.05190000  1
  C  C343  1  0.53440000  0.94810000  0.70610000  1
  C  C344  1  0.53440000  0.75800000  0.05190000  1
  C  C345  1  0.53440000  0.94810000  0.24200000  1
  C  C346  1  0.58110000  0.54960000  0.45040000  1
  C  C347  1  0.58110000  0.54960000  0.09920000  1
  C  C348  1  0.58110000  0.90080000  0.45040000  1
  C  C349  1  0.58140000  0.44490000  0.22245000  1
  C  C350  1  0.58140000  0.77755000  0.55510000  1
  C  C351  1  0.58140000  0.77755000  0.22245000  1
  C  C352  1  0.59290000  0.16550000  0.73250000  1
  C  C353  1  0.59290000  0.26750000  0.83450000  1
  C  C354  1  0.59290000  0.16550000  0.43300000  1
  C  C355  1  0.59290000  0.56700000  0.83450000  1
  C  C356  1  0.59290000  0.26750000  0.43300000  1
  C  C357  1  0.59290000  0.56700000  0.73250000  1
  C  C358  1  0.65420000  0.19180000  0.75800000  1
  C  C359  1  0.65420000  0.24200000  0.80820000  1
  C  C360  1  0.65420000  0.19180000  0.43380000  1
  C  C361  1  0.65420000  0.56620000  0.80820000  1
  C  C362  1  0.65420000  0.24200000  0.43380000  1
  C  C363  1  0.65420000  0.56620000  0.75800000  1
  C  C364  1  0.71260000  0.36320000  0.31190000  1
  C  C365  1  0.71260000  0.68810000  0.63680000  1
  C  C366  1  0.71260000  0.36320000  0.05130000  1
  C  C367  1  0.71260000  0.94870000  0.63680000  1
  C  C368  1  0.71260000  0.68810000  0.05130000  1
  C  C369  1  0.71260000  0.94870000  0.31190000  1
  C  C370  1  0.75000000  0.44020000  0.31930000  1
  C  C371  1  0.75000000  0.68070000  0.55980000  1
  C  C372  1  0.75000000  0.44020000  0.12090000  1
  C  C373  1  0.75000000  0.87910000  0.55980000  1
  C  C374  1  0.75000000  0.68070000  0.12090000  1
  C  C375  1  0.75000000  0.87910000  0.31930000  1
  C  C376  1  0.78740000  0.36320000  0.31190000  1
  C  C377  1  0.78740000  0.68810000  0.63680000  1
  C  C378  1  0.78740000  0.36320000  0.05130000  1
  C  C379  1  0.78740000  0.94870000  0.63680000  1
  C  C380  1  0.78740000  0.68810000  0.05130000  1
  C  C381  1  0.78740000  0.94870000  0.31190000  1
  C  C382  1  0.84580000  0.19180000  0.75800000  1
  C  C383  1  0.84580000  0.24200000  0.80820000  1
  C  C384  1  0.84580000  0.19180000  0.43380000  1
  C  C385  1  0.84580000  0.56620000  0.80820000  1
  C  C386  1  0.84580000  0.24200000  0.43380000  1
  C  C387  1  0.84580000  0.56620000  0.75800000  1
  C  C388  1  0.90710000  0.16550000  0.73250000  1
  C  C389  1  0.90710000  0.26750000  0.83450000  1
  C  C390  1  0.90710000  0.16550000  0.43300000  1
  C  C391  1  0.90710000  0.56700000  0.83450000  1
  C  C392  1  0.90710000  0.26750000  0.43300000  1
  C  C393  1  0.90710000  0.56700000  0.73250000  1
  C  C394  1  0.91860000  0.44490000  0.22245000  1
  C  C395  1  0.91860000  0.77755000  0.55510000  1
  C  C396  1  0.91860000  0.77755000  0.22245000  1
  C  C397  1  0.91890000  0.54960000  0.45040000  1
  C  C398  1  0.91890000  0.54960000  0.09920000  1
  C  C399  1  0.91890000  0.90080000  0.45040000  1
  C  C400  1  0.96560000  0.29390000  0.24200000  1
  C  C401  1  0.96560000  0.75800000  0.70610000  1
  C  C402  1  0.96560000  0.29390000  0.05190000  1
  C  C403  1  0.96560000  0.94810000  0.70610000  1
  C  C404  1  0.96560000  0.75800000  0.05190000  1
  C  C405  1  0.96560000  0.94810000  0.24200000  1
  C  C406  1  0.97220000  0.19120000  0.75560000  1
  C  C407  1  0.97220000  0.24440000  0.80880000  1
  C  C408  1  0.97220000  0.19120000  0.43560000  1
  C  C409  1  0.97220000  0.56440000  0.80880000  1
  C  C410  1  0.97220000  0.24440000  0.43560000  1
  C  C411  1  0.97220000  0.56440000  0.75560000  1
  C  C412  1  0.97920000  0.32310000  0.29780000  1
  C  C413  1  0.97920000  0.70220000  0.67690000  1
  C  C414  1  0.97920000  0.32310000  0.02530000  1
  C  C415  1  0.97920000  0.97470000  0.67690000  1
  C  C416  1  0.97920000  0.70220000  0.02530000  1
  C  C417  1  0.97920000  0.97470000  0.29780000  1
  C  C418  1  0.98060000  0.23700000  0.21400000  1
  C  C419  1  0.98060000  0.78600000  0.76300000  1
  C  C420  1  0.98060000  0.23700000  0.02300000  1
  C  C421  1  0.98060000  0.97700000  0.76300000  1
  C  C422  1  0.98060000  0.78600000  0.02300000  1
  C  C423  1  0.98060000  0.97700000  0.21400000  1
  C  C424  1  0.99360000  0.55460000  0.39370000  1
  C  C425  1  0.99360000  0.60630000  0.44540000  1
  C  C426  1  0.99360000  0.55460000  0.16090000  1
  C  C427  1  0.99360000  0.83910000  0.44540000  1
  C  C428  1  0.99360000  0.60630000  0.16090000  1
  C  C429  1  0.99360000  0.83910000  0.39370000  1
  C  C430  1  0.00000000  1.00000000  0.38740000  1
  C  C431  1  0.00000000  0.61260000  1.00000000  1
  N  N432  1  0.02870000  0.04120000  0.66200000  1
  N  N433  1  0.02870000  0.33800000  0.95880000  1
  N  N434  1  0.02870000  0.04120000  0.37920000  1
  N  N435  1  0.02870000  0.62080000  0.95880000  1
  N  N436  1  0.02870000  0.33800000  0.37920000  1
  N  N437  1  0.02870000  0.62080000  0.66200000  1
  N  N438  1  0.04170000  0.17900000  0.73770000  1
  N  N439  1  0.04170000  0.26230000  0.82100000  1
  N  N440  1  0.04170000  0.17900000  0.44130000  1
  N  N441  1  0.04170000  0.55870000  0.82100000  1
  N  N442  1  0.04170000  0.26230000  0.44130000  1
  N  N443  1  0.04170000  0.55870000  0.73770000  1
  N  N444  1  0.05410000  0.12250000  0.60270000  1
  N  N445  1  0.05410000  0.39730000  0.87750000  1
  N  N446  1  0.05410000  0.12250000  0.51980000  1
  N  N447  1  0.05410000  0.48020000  0.87750000  1
  N  N448  1  0.05410000  0.39730000  0.51980000  1
  N  N449  1  0.05410000  0.48020000  0.60270000  1
  N  N450  1  0.13500000  0.05430000  0.52715000  1
  N  N451  1  0.13500000  0.47285000  0.94570000  1
  N  N452  1  0.13500000  0.47285000  0.52715000  1
  N  N453  1  0.18850000  0.09450000  0.68270000  1
  N  N454  1  0.18850000  0.31730000  0.90550000  1
  N  N455  1  0.18850000  0.09450000  0.41180000  1
  N  N456  1  0.18850000  0.58820000  0.90550000  1
  N  N457  1  0.18850000  0.31730000  0.41180000  1
  N  N458  1  0.18850000  0.58820000  0.68270000  1
  N  N459  1  0.25000000  0.17060000  0.67430000  1
  N  N460  1  0.25000000  0.32570000  0.82940000  1
  N  N461  1  0.25000000  0.17060000  0.49630000  1
  N  N462  1  0.25000000  0.50370000  0.82940000  1
  N  N463  1  0.25000000  0.32570000  0.49630000  1
  N  N464  1  0.25000000  0.50370000  0.67430000  1
  N  N465  1  0.31150000  0.09450000  0.68270000  1
  N  N466  1  0.31150000  0.31730000  0.90550000  1
  N  N467  1  0.31150000  0.09450000  0.41180000  1
  N  N468  1  0.31150000  0.58820000  0.90550000  1
  N  N469  1  0.31150000  0.31730000  0.41180000  1
  N  N470  1  0.31150000  0.58820000  0.68270000  1
  N  N471  1  0.36500000  0.05430000  0.52715000  1
  N  N472  1  0.36500000  0.47285000  0.94570000  1
  N  N473  1  0.36500000  0.47285000  0.52715000  1
  N  N474  1  0.44590000  0.12250000  0.60270000  1
  N  N475  1  0.44590000  0.39730000  0.87750000  1
  N  N476  1  0.44590000  0.12250000  0.51980000  1
  N  N477  1  0.44590000  0.48020000  0.87750000  1
  N  N478  1  0.44590000  0.39730000  0.51980000  1
  N  N479  1  0.44590000  0.48020000  0.60270000  1
  N  N480  1  0.45830000  0.17900000  0.73770000  1
  N  N481  1  0.45830000  0.26230000  0.82100000  1
  N  N482  1  0.45830000  0.17900000  0.44130000  1
  N  N483  1  0.45830000  0.55870000  0.82100000  1
  N  N484  1  0.45830000  0.26230000  0.44130000  1
  N  N485  1  0.45830000  0.55870000  0.73770000  1
  N  N486  1  0.47130000  0.04120000  0.66200000  1
  N  N487  1  0.47130000  0.33800000  0.95880000  1
  N  N488  1  0.47130000  0.04120000  0.37920000  1
  N  N489  1  0.47130000  0.62080000  0.95880000  1
  N  N490  1  0.47130000  0.33800000  0.37920000  1
  N  N491  1  0.47130000  0.62080000  0.66200000  1
  N  N492  1  0.52870000  0.37920000  0.33800000  1
  N  N493  1  0.52870000  0.66200000  0.62080000  1
  N  N494  1  0.52870000  0.37920000  0.04120000  1
  N  N495  1  0.52870000  0.95880000  0.62080000  1
  N  N496  1  0.52870000  0.66200000  0.04120000  1
  N  N497  1  0.52870000  0.95880000  0.33800000  1
  N  N498  1  0.54170000  0.44130000  0.26230000  1
  N  N499  1  0.54170000  0.73770000  0.55870000  1
  N  N500  1  0.54170000  0.44130000  0.17900000  1
  N  N501  1  0.54170000  0.82100000  0.55870000  1
  N  N502  1  0.54170000  0.73770000  0.17900000  1
  N  N503  1  0.54170000  0.82100000  0.26230000  1
  N  N504  1  0.55410000  0.51980000  0.39730000  1
  N  N505  1  0.55410000  0.60270000  0.48020000  1
  N  N506  1  0.55410000  0.51980000  0.12250000  1
  N  N507  1  0.55410000  0.87750000  0.48020000  1
  N  N508  1  0.55410000  0.60270000  0.12250000  1
  N  N509  1  0.55410000  0.87750000  0.39730000  1
  N  N510  1  0.63500000  0.52715000  0.47285000  1
  N  N511  1  0.63500000  0.52715000  0.05430000  1
  N  N512  1  0.63500000  0.94570000  0.47285000  1
  N  N513  1  0.68850000  0.41180000  0.31730000  1
  N  N514  1  0.68850000  0.68270000  0.58820000  1
  N  N515  1  0.68850000  0.41180000  0.09450000  1
  N  N516  1  0.68850000  0.90550000  0.58820000  1
  N  N517  1  0.68850000  0.68270000  0.09450000  1
  N  N518  1  0.68850000  0.90550000  0.31730000  1
  N  N519  1  0.75000000  0.49630000  0.32570000  1
  N  N520  1  0.75000000  0.67430000  0.50370000  1
  N  N521  1  0.75000000  0.49630000  0.17060000  1
  N  N522  1  0.75000000  0.82940000  0.50370000  1
  N  N523  1  0.75000000  0.67430000  0.17060000  1
  N  N524  1  0.75000000  0.82940000  0.32570000  1
  N  N525  1  0.81150000  0.41180000  0.31730000  1
  N  N526  1  0.81150000  0.68270000  0.58820000  1
  N  N527  1  0.81150000  0.41180000  0.09450000  1
  N  N528  1  0.81150000  0.90550000  0.58820000  1
  N  N529  1  0.81150000  0.68270000  0.09450000  1
  N  N530  1  0.81150000  0.90550000  0.31730000  1
  N  N531  1  0.86500000  0.52715000  0.47285000  1
  N  N532  1  0.86500000  0.52715000  0.05430000  1
  N  N533  1  0.86500000  0.94570000  0.47285000  1
  N  N534  1  0.94590000  0.51980000  0.39730000  1
  N  N535  1  0.94590000  0.60270000  0.48020000  1
  N  N536  1  0.94590000  0.51980000  0.12250000  1
  N  N537  1  0.94590000  0.87750000  0.48020000  1
  N  N538  1  0.94590000  0.60270000  0.12250000  1
  N  N539  1  0.94590000  0.87750000  0.39730000  1
  N  N540  1  0.95830000  0.44130000  0.26230000  1
  N  N541  1  0.95830000  0.73770000  0.55870000  1
  N  N542  1  0.95830000  0.44130000  0.17900000  1
  N  N543  1  0.95830000  0.82100000  0.55870000  1
  N  N544  1  0.95830000  0.73770000  0.17900000  1
  N  N545  1  0.95830000  0.82100000  0.26230000  1
  N  N546  1  0.97130000  0.37920000  0.33800000  1
  N  N547  1  0.97130000  0.66200000  0.62080000  1
  N  N548  1  0.97130000  0.37920000  0.04120000  1
  N  N549  1  0.97130000  0.95880000  0.62080000  1
  N  N550  1  0.97130000  0.66200000  0.04120000  1
  N  N551  1  0.97130000  0.95880000  0.33800000  1
  O  O552  1  0.15370000  0.03870000  0.56190000  1
  O  O553  1  0.15370000  0.43810000  0.96130000  1
  O  O554  1  0.15370000  0.03870000  0.47680000  1
  O  O555  1  0.15370000  0.52320000  0.96130000  1
  O  O556  1  0.15370000  0.43810000  0.47680000  1
  O  O557  1  0.15370000  0.52320000  0.56190000  1
  O  O558  1  0.18970000  0.18880000  0.67070000  1
  O  O559  1  0.18970000  0.32930000  0.81120000  1
  O  O560  1  0.18970000  0.18880000  0.51810000  1
  O  O561  1  0.18970000  0.48190000  0.81120000  1
  O  O562  1  0.18970000  0.32930000  0.51810000  1
  O  O563  1  0.18970000  0.48190000  0.67070000  1
  O  O564  1  0.31030000  0.18880000  0.67070000  1
  O  O565  1  0.31030000  0.32930000  0.81120000  1
  O  O566  1  0.31030000  0.18880000  0.51810000  1
  O  O567  1  0.31030000  0.48190000  0.81120000  1
  O  O568  1  0.31030000  0.32930000  0.51810000  1
  O  O569  1  0.31030000  0.48190000  0.67070000  1
  O  O570  1  0.34630000  0.03870000  0.56190000  1
  O  O571  1  0.34630000  0.43810000  0.96130000  1
  O  O572  1  0.34630000  0.03870000  0.47680000  1
  O  O573  1  0.34630000  0.52320000  0.96130000  1
  O  O574  1  0.34630000  0.43810000  0.47680000  1
  O  O575  1  0.34630000  0.52320000  0.56190000  1
  O  O576  1  0.65370000  0.47680000  0.43810000  1
  O  O577  1  0.65370000  0.56190000  0.52320000  1
  O  O578  1  0.65370000  0.47680000  0.03870000  1
  O  O579  1  0.65370000  0.96130000  0.52320000  1
  O  O580  1  0.65370000  0.56190000  0.03870000  1
  O  O581  1  0.65370000  0.96130000  0.43810000  1
  O  O582  1  0.68970000  0.51810000  0.32930000  1
  O  O583  1  0.68970000  0.67070000  0.48190000  1
  O  O584  1  0.68970000  0.51810000  0.18880000  1
  O  O585  1  0.68970000  0.81120000  0.48190000  1
  O  O586  1  0.68970000  0.67070000  0.18880000  1
  O  O587  1  0.68970000  0.81120000  0.32930000  1
  O  O588  1  0.81030000  0.51810000  0.32930000  1
  O  O589  1  0.81030000  0.67070000  0.48190000  1
  O  O590  1  0.81030000  0.51810000  0.18880000  1
  O  O591  1  0.81030000  0.81120000  0.48190000  1
  O  O592  1  0.81030000  0.67070000  0.18880000  1
  O  O593  1  0.81030000  0.81120000  0.32930000  1
  O  O594  1  0.84630000  0.47680000  0.43810000  1
  O  O595  1  0.84630000  0.56190000  0.52320000  1
  O  O596  1  0.84630000  0.47680000  0.03870000  1
  O  O597  1  0.84630000  0.96130000  0.52320000  1
  O  O598  1  0.84630000  0.56190000  0.03870000  1
  O  O599  1  0.84630000  0.96130000  0.43810000  1
