# generated using pymatgen
data_ErH28C44(NO)8
_symmetry_space_group_name_H-M   'P 1'
_cell_length_a   10.01300000
_cell_length_b   13.13800000
_cell_length_c   33.94700000
_cell_angle_alpha   90.00000000
_cell_angle_beta   90.00000000
_cell_angle_gamma   90.00000000
_symmetry_Int_Tables_number   1
_chemical_formula_structural   ErH28C44(NO)8
_chemical_formula_sum   'Er4 H112 C176 N32 O32'
_cell_volume   4465.75480392
_cell_formula_units_Z   4
loop_
 _symmetry_equiv_pos_site_id
 _symmetry_equiv_pos_as_xyz
  1  'x, y, z'
loop_
 _atom_site_type_symbol
 _atom_site_label
 _atom_site_symmetry_multiplicity
 _atom_site_fract_x
 _atom_site_fract_y
 _atom_site_fract_z
 _atom_site_occupancy
  Er  Er0  1  0.03191000  0.25000000  0.25000000  1
  Er  Er1  1  0.46809000  0.75000000  0.75000000  1
  Er  Er2  1  0.53191000  0.25000000  0.25000000  1
  Er  Er3  1  0.96809000  0.75000000  0.75000000  1
  H  H4  1  0.00710000  0.10330000  0.59210000  1
  H  H5  1  0.00710000  0.39670000  0.90790000  1
  H  H6  1  0.01040000  0.14970000  0.41960000  1
  H  H7  1  0.01040000  0.35030000  0.08040000  1
  H  H8  1  0.02140000  0.10660000  0.99000000  1
  H  H9  1  0.02140000  0.39340000  0.51000000  1
  H  H10  1  0.04860000  0.67170000  0.62500000  1
  H  H11  1  0.04860000  0.82830000  0.87500000  1
  H  H12  1  0.05280000  0.08660000  0.92270000  1
  H  H13  1  0.05280000  0.41340000  0.57730000  1
  H  H14  1  0.05360000  0.16520000  0.35220000  1
  H  H15  1  0.05360000  0.33480000  0.14780000  1
  H  H16  1  0.05420000  0.65680000  0.33270000  1
  H  H17  1  0.05420000  0.84320000  0.16730000  1
  H  H18  1  0.09290000  0.65520000  0.55830000  1
  H  H19  1  0.09290000  0.84480000  0.94170000  1
  H  H20  1  0.13890000  0.71900000  0.39170000  1
  H  H21  1  0.13890000  0.78100000  0.10830000  1
  H  H22  1  0.17810000  0.55280000  0.91050000  1
  H  H23  1  0.17810000  0.94720000  0.58950000  1
  H  H24  1  0.20240000  0.13120000  0.03180000  1
  H  H25  1  0.20240000  0.36880000  0.46820000  1
  H  H26  1  0.23150000  0.58410000  0.10370000  1
  H  H27  1  0.23150000  0.91590000  0.39630000  1
  H  H28  1  0.23990000  0.11170000  0.14930000  1
  H  H29  1  0.23990000  0.38830000  0.35070000  1
  H  H30  1  0.24440000  0.62850000  0.50570000  1
  H  H31  1  0.24440000  0.87150000  0.99430000  1
  H  H32  1  0.25560000  0.12850000  0.49430000  1
  H  H33  1  0.25560000  0.37150000  0.00570000  1
  H  H34  1  0.26010000  0.61170000  0.85070000  1
  H  H35  1  0.26010000  0.88830000  0.64930000  1
  H  H36  1  0.26850000  0.08410000  0.89630000  1
  H  H37  1  0.26850000  0.41590000  0.60370000  1
  H  H38  1  0.29760000  0.63120000  0.96820000  1
  H  H39  1  0.29760000  0.86880000  0.53180000  1
  H  H40  1  0.32190000  0.05280000  0.08950000  1
  H  H41  1  0.32190000  0.44720000  0.41050000  1
  H  H42  1  0.36110000  0.21900000  0.60830000  1
  H  H43  1  0.36110000  0.28100000  0.89170000  1
  H  H44  1  0.40710000  0.15520000  0.44170000  1
  H  H45  1  0.40710000  0.34480000  0.05830000  1
  H  H46  1  0.44580000  0.15680000  0.66730000  1
  H  H47  1  0.44580000  0.34320000  0.83270000  1
  H  H48  1  0.44640000  0.66520000  0.64780000  1
  H  H49  1  0.44640000  0.83480000  0.85220000  1
  H  H50  1  0.44720000  0.58660000  0.07730000  1
  H  H51  1  0.44720000  0.91340000  0.42270000  1
  H  H52  1  0.45140000  0.17170000  0.37500000  1
  H  H53  1  0.45140000  0.32830000  0.12500000  1
  H  H54  1  0.47860000  0.60660000  0.01000000  1
  H  H55  1  0.47860000  0.89340000  0.49000000  1
  H  H56  1  0.48960000  0.64970000  0.58040000  1
  H  H57  1  0.48960000  0.85030000  0.91960000  1
  H  H58  1  0.49290000  0.60330000  0.40790000  1
  H  H59  1  0.49290000  0.89670000  0.09210000  1
  H  H60  1  0.50710000  0.10330000  0.90790000  1
  H  H61  1  0.50710000  0.39670000  0.59210000  1
  H  H62  1  0.51040000  0.14970000  0.08040000  1
  H  H63  1  0.51040000  0.35030000  0.41960000  1
  H  H64  1  0.52140000  0.10660000  0.51000000  1
  H  H65  1  0.52140000  0.39340000  0.99000000  1
  H  H66  1  0.54860000  0.67170000  0.87500000  1
  H  H67  1  0.54860000  0.82830000  0.62500000  1
  H  H68  1  0.55280000  0.08660000  0.57730000  1
  H  H69  1  0.55280000  0.41340000  0.92270000  1
  H  H70  1  0.55360000  0.16520000  0.14780000  1
  H  H71  1  0.55360000  0.33480000  0.35220000  1
  H  H72  1  0.55420000  0.65680000  0.16730000  1
  H  H73  1  0.55420000  0.84320000  0.33270000  1
  H  H74  1  0.59290000  0.65520000  0.94170000  1
  H  H75  1  0.59290000  0.84480000  0.55830000  1
  H  H76  1  0.63890000  0.71900000  0.10830000  1
  H  H77  1  0.63890000  0.78100000  0.39170000  1
  H  H78  1  0.67810000  0.55280000  0.58950000  1
  H  H79  1  0.67810000  0.94720000  0.91050000  1
  H  H80  1  0.70240000  0.13120000  0.46820000  1
  H  H81  1  0.70240000  0.36880000  0.03180000  1
  H  H82  1  0.73150000  0.58410000  0.39630000  1
  H  H83  1  0.73150000  0.91590000  0.10370000  1
  H  H84  1  0.73990000  0.11170000  0.35070000  1
  H  H85  1  0.73990000  0.38830000  0.14930000  1
  H  H86  1  0.74440000  0.62850000  0.99430000  1
  H  H87  1  0.74440000  0.87150000  0.50570000  1
  H  H88  1  0.75560000  0.12850000  0.00570000  1
  H  H89  1  0.75560000  0.37150000  0.49430000  1
  H  H90  1  0.76010000  0.61170000  0.64930000  1
  H  H91  1  0.76010000  0.88830000  0.85070000  1
  H  H92  1  0.76850000  0.08410000  0.60370000  1
  H  H93  1  0.76850000  0.41590000  0.89630000  1
  H  H94  1  0.79760000  0.63120000  0.53180000  1
  H  H95  1  0.79760000  0.86880000  0.96820000  1
  H  H96  1  0.82190000  0.05280000  0.41050000  1
  H  H97  1  0.82190000  0.44720000  0.08950000  1
  H  H98  1  0.86110000  0.21900000  0.89170000  1
  H  H99  1  0.86110000  0.28100000  0.60830000  1
  H  H100  1  0.90710000  0.15520000  0.05830000  1
  H  H101  1  0.90710000  0.34480000  0.44170000  1
  H  H102  1  0.94580000  0.15680000  0.83270000  1
  H  H103  1  0.94580000  0.34320000  0.66730000  1
  H  H104  1  0.94640000  0.66520000  0.85220000  1
  H  H105  1  0.94640000  0.83480000  0.64780000  1
  H  H106  1  0.94720000  0.58660000  0.42270000  1
  H  H107  1  0.94720000  0.91340000  0.07730000  1
  H  H108  1  0.95140000  0.17170000  0.12500000  1
  H  H109  1  0.95140000  0.32830000  0.37500000  1
  H  H110  1  0.97860000  0.60660000  0.49000000  1
  H  H111  1  0.97860000  0.89340000  0.01000000  1
  H  H112  1  0.98960000  0.64970000  0.91960000  1
  H  H113  1  0.98960000  0.85030000  0.58040000  1
  H  H114  1  0.99290000  0.60330000  0.09210000  1
  H  H115  1  0.99290000  0.89670000  0.40790000  1
  C  C116  1  0.07250000  0.13150000  0.50006000  1
  C  C117  1  0.07250000  0.36850000  0.99994000  1
  C  C118  1  0.08110000  0.02210000  0.20221000  1
  C  C119  1  0.08110000  0.47790000  0.29779000  1
  C  C120  1  0.09990000  0.15400000  0.41055000  1
  C  C121  1  0.09990000  0.34600000  0.08945000  1
  C  C122  1  0.10030000  0.11990000  0.54264000  1
  C  C123  1  0.10030000  0.38010000  0.95736000  1
  C  C124  1  0.10930000  0.10750000  0.97950000  1
  C  C125  1  0.10930000  0.39250000  0.52050000  1
  C  C126  1  0.10940000  0.61440000  0.34852000  1
  C  C127  1  0.10940000  0.88560000  0.15148000  1
  C  C128  1  0.12580000  0.16380000  0.37040000  1
  C  C129  1  0.12580000  0.33620000  0.12960000  1
  C  C130  1  0.12790000  0.09480000  0.93950000  1
  C  C131  1  0.12790000  0.40520000  0.56050000  1
  C  C132  1  0.13560000  0.60810000  0.05144000  1
  C  C133  1  0.13560000  0.89190000  0.44856000  1
  C  C134  1  0.13830000  0.66740000  0.61608000  1
  C  C135  1  0.13830000  0.83260000  0.88392000  1
  C  C136  1  0.13950000  0.51670000  0.33563000  1
  C  C137  1  0.13950000  0.98330000  0.16437000  1
  C  C138  1  0.15250000  0.62120000  0.01104000  1
  C  C139  1  0.15250000  0.87880000  0.48896000  1
  C  C140  1  0.15810000  0.65120000  0.38377000  1
  C  C141  1  0.15810000  0.84880000  0.11623000  1
  C  C142  1  0.16480000  0.65750000  0.57654000  1
  C  C143  1  0.16480000  0.84250000  0.92346000  1
  C  C144  1  0.20410000  0.15070000  0.43718000  1
  C  C145  1  0.20410000  0.34930000  0.06282000  1
  C  C146  1  0.21510000  0.68970000  0.68595000  1
  C  C147  1  0.21510000  0.81030000  0.81405000  1
  C  C148  1  0.21660000  0.12150000  0.00440000  1
  C  C149  1  0.21660000  0.37850000  0.49560000  1
  C  C150  1  0.21860000  0.04470000  0.14082000  1
  C  C151  1  0.21860000  0.45530000  0.35918000  1
  C  C152  1  0.23290000  0.50990000  0.89480000  1
  C  C153  1  0.23290000  0.99010000  0.60520000  1
  C  C154  1  0.23610000  0.58810000  0.40783000  1
  C  C155  1  0.23610000  0.91190000  0.09217000  1
  C  C156  1  0.24420000  0.67130000  0.64331000  1
  C  C157  1  0.24420000  0.82870000  0.85669000  1
  C  C158  1  0.24450000  0.59410000  0.07630000  1
  C  C159  1  0.24450000  0.90590000  0.42370000  1
  C  C160  1  0.25550000  0.09410000  0.92370000  1
  C  C161  1  0.25550000  0.40590000  0.57630000  1
  C  C162  1  0.25580000  0.17130000  0.35669000  1
  C  C163  1  0.25580000  0.32870000  0.14331000  1
  C  C164  1  0.26390000  0.08810000  0.59217000  1
  C  C165  1  0.26390000  0.41190000  0.90783000  1
  C  C166  1  0.26710000  0.00990000  0.10520000  1
  C  C167  1  0.26710000  0.49010000  0.39480000  1
  C  C168  1  0.28140000  0.54470000  0.85918000  1
  C  C169  1  0.28140000  0.95530000  0.64082000  1
  C  C170  1  0.28340000  0.62150000  0.99560000  1
  C  C171  1  0.28340000  0.87850000  0.50440000  1
  C  C172  1  0.28490000  0.18970000  0.31405000  1
  C  C173  1  0.28490000  0.31030000  0.18595000  1
  C  C174  1  0.29590000  0.65070000  0.56282000  1
  C  C175  1  0.29590000  0.84930000  0.93718000  1
  C  C176  1  0.33520000  0.15750000  0.42346000  1
  C  C177  1  0.33520000  0.34250000  0.07654000  1
  C  C178  1  0.34190000  0.15120000  0.61623000  1
  C  C179  1  0.34190000  0.34880000  0.88377000  1
  C  C180  1  0.34750000  0.12120000  0.98896000  1
  C  C181  1  0.34750000  0.37880000  0.51104000  1
  C  C182  1  0.36050000  0.01670000  0.66437000  1
  C  C183  1  0.36050000  0.48330000  0.83563000  1
  C  C184  1  0.36170000  0.16740000  0.38392000  1
  C  C185  1  0.36170000  0.33260000  0.11608000  1
  C  C186  1  0.36440000  0.10810000  0.94856000  1
  C  C187  1  0.36440000  0.39190000  0.55144000  1
  C  C188  1  0.37210000  0.59480000  0.06050000  1
  C  C189  1  0.37210000  0.90520000  0.43950000  1
  C  C190  1  0.37420000  0.66380000  0.62960000  1
  C  C191  1  0.37420000  0.83620000  0.87040000  1
  C  C192  1  0.39060000  0.11440000  0.65148000  1
  C  C193  1  0.39060000  0.38560000  0.84852000  1
  C  C194  1  0.39070000  0.60750000  0.02050000  1
  C  C195  1  0.39070000  0.89250000  0.47950000  1
  C  C196  1  0.39970000  0.61990000  0.45736000  1
  C  C197  1  0.39970000  0.88010000  0.04264000  1
  C  C198  1  0.40010000  0.65400000  0.58945000  1
  C  C199  1  0.40010000  0.84600000  0.91055000  1
  C  C200  1  0.41890000  0.52210000  0.79779000  1
  C  C201  1  0.41890000  0.97790000  0.70221000  1
  C  C202  1  0.42750000  0.63150000  0.49994000  1
  C  C203  1  0.42750000  0.86850000  0.00006000  1
  C  C204  1  0.57250000  0.13150000  0.99994000  1
  C  C205  1  0.57250000  0.36850000  0.50006000  1
  C  C206  1  0.58110000  0.02210000  0.29779000  1
  C  C207  1  0.58110000  0.47790000  0.20221000  1
  C  C208  1  0.59990000  0.15400000  0.08945000  1
  C  C209  1  0.59990000  0.34600000  0.41055000  1
  C  C210  1  0.60030000  0.11990000  0.95736000  1
  C  C211  1  0.60030000  0.38010000  0.54264000  1
  C  C212  1  0.60930000  0.10750000  0.52050000  1
  C  C213  1  0.60930000  0.39250000  0.97950000  1
  C  C214  1  0.60940000  0.61440000  0.15148000  1
  C  C215  1  0.60940000  0.88560000  0.34852000  1
  C  C216  1  0.62580000  0.16380000  0.12960000  1
  C  C217  1  0.62580000  0.33620000  0.37040000  1
  C  C218  1  0.62790000  0.09480000  0.56050000  1
  C  C219  1  0.62790000  0.40520000  0.93950000  1
  C  C220  1  0.63560000  0.60810000  0.44856000  1
  C  C221  1  0.63560000  0.89190000  0.05144000  1
  C  C222  1  0.63830000  0.66740000  0.88392000  1
  C  C223  1  0.63830000  0.83260000  0.61608000  1
  C  C224  1  0.63950000  0.51670000  0.16437000  1
  C  C225  1  0.63950000  0.98330000  0.33563000  1
  C  C226  1  0.65250000  0.62120000  0.48896000  1
  C  C227  1  0.65250000  0.87880000  0.01104000  1
  C  C228  1  0.65810000  0.65120000  0.11623000  1
  C  C229  1  0.65810000  0.84880000  0.38377000  1
  C  C230  1  0.66480000  0.65750000  0.92346000  1
  C  C231  1  0.66480000  0.84250000  0.57654000  1
  C  C232  1  0.70410000  0.15070000  0.06282000  1
  C  C233  1  0.70410000  0.34930000  0.43718000  1
  C  C234  1  0.71510000  0.68970000  0.81405000  1
  C  C235  1  0.71510000  0.81030000  0.68595000  1
  C  C236  1  0.71660000  0.12150000  0.49560000  1
  C  C237  1  0.71660000  0.37850000  0.00440000  1
  C  C238  1  0.71860000  0.04470000  0.35918000  1
  C  C239  1  0.71860000  0.45530000  0.14082000  1
  C  C240  1  0.73290000  0.50990000  0.60520000  1
  C  C241  1  0.73290000  0.99010000  0.89480000  1
  C  C242  1  0.73610000  0.58810000  0.09217000  1
  C  C243  1  0.73610000  0.91190000  0.40783000  1
  C  C244  1  0.74420000  0.67130000  0.85669000  1
  C  C245  1  0.74420000  0.82870000  0.64331000  1
  C  C246  1  0.74450000  0.59410000  0.42370000  1
  C  C247  1  0.74450000  0.90590000  0.07630000  1
  C  C248  1  0.75550000  0.09410000  0.57630000  1
  C  C249  1  0.75550000  0.40590000  0.92370000  1
  C  C250  1  0.75580000  0.17130000  0.14331000  1
  C  C251  1  0.75580000  0.32870000  0.35669000  1
  C  C252  1  0.76390000  0.08810000  0.90783000  1
  C  C253  1  0.76390000  0.41190000  0.59217000  1
  C  C254  1  0.76710000  0.00990000  0.39480000  1
  C  C255  1  0.76710000  0.49010000  0.10520000  1
  C  C256  1  0.78140000  0.54470000  0.64082000  1
  C  C257  1  0.78140000  0.95530000  0.85918000  1
  C  C258  1  0.78340000  0.62150000  0.50440000  1
  C  C259  1  0.78340000  0.87850000  0.99560000  1
  C  C260  1  0.78490000  0.18970000  0.18595000  1
  C  C261  1  0.78490000  0.31030000  0.31405000  1
  C  C262  1  0.79590000  0.65070000  0.93718000  1
  C  C263  1  0.79590000  0.84930000  0.56282000  1
  C  C264  1  0.83520000  0.15750000  0.07654000  1
  C  C265  1  0.83520000  0.34250000  0.42346000  1
  C  C266  1  0.84190000  0.15120000  0.88377000  1
  C  C267  1  0.84190000  0.34880000  0.61623000  1
  C  C268  1  0.84750000  0.12120000  0.51104000  1
  C  C269  1  0.84750000  0.37880000  0.98896000  1
  C  C270  1  0.86050000  0.01670000  0.83563000  1
  C  C271  1  0.86050000  0.48330000  0.66437000  1
  C  C272  1  0.86170000  0.16740000  0.11608000  1
  C  C273  1  0.86170000  0.33260000  0.38392000  1
  C  C274  1  0.86440000  0.10810000  0.55144000  1
  C  C275  1  0.86440000  0.39190000  0.94856000  1
  C  C276  1  0.87210000  0.59480000  0.43950000  1
  C  C277  1  0.87210000  0.90520000  0.06050000  1
  C  C278  1  0.87420000  0.66380000  0.87040000  1
  C  C279  1  0.87420000  0.83620000  0.62960000  1
  C  C280  1  0.89060000  0.11440000  0.84852000  1
  C  C281  1  0.89060000  0.38560000  0.65148000  1
  C  C282  1  0.89070000  0.60750000  0.47950000  1
  C  C283  1  0.89070000  0.89250000  0.02050000  1
  C  C284  1  0.89970000  0.61990000  0.04264000  1
  C  C285  1  0.89970000  0.88010000  0.45736000  1
  C  C286  1  0.90010000  0.65400000  0.91055000  1
  C  C287  1  0.90010000  0.84600000  0.58945000  1
  C  C288  1  0.91890000  0.52210000  0.70221000  1
  C  C289  1  0.91890000  0.97790000  0.79779000  1
  C  C290  1  0.92750000  0.63150000  0.00006000  1
  C  C291  1  0.92750000  0.86850000  0.49994000  1
  N  N292  1  0.00550000  0.60940000  0.06651000  1
  N  N293  1  0.00550000  0.89060000  0.43349000  1
  N  N294  1  0.04650000  0.63290000  0.98493000  1
  N  N295  1  0.04650000  0.86710000  0.51507000  1
  N  N296  1  0.18580000  0.13930000  0.47812000  1
  N  N297  1  0.18580000  0.36070000  0.02188000  1
  N  N298  1  0.23100000  0.10410000  0.55320000  1
  N  N299  1  0.23100000  0.39590000  0.94680000  1
  N  N300  1  0.26900000  0.60410000  0.44680000  1
  N  N301  1  0.26900000  0.89590000  0.05320000  1
  N  N302  1  0.31420000  0.63930000  0.52188000  1
  N  N303  1  0.31420000  0.86070000  0.97812000  1
  N  N304  1  0.45350000  0.13290000  0.01507000  1
  N  N305  1  0.45350000  0.36710000  0.48493000  1
  N  N306  1  0.49450000  0.10940000  0.93349000  1
  N  N307  1  0.49450000  0.39060000  0.56651000  1
  N  N308  1  0.50550000  0.60940000  0.43349000  1
  N  N309  1  0.50550000  0.89060000  0.06651000  1
  N  N310  1  0.54650000  0.63290000  0.51507000  1
  N  N311  1  0.54650000  0.86710000  0.98493000  1
  N  N312  1  0.68580000  0.13930000  0.02188000  1
  N  N313  1  0.68580000  0.36070000  0.47812000  1
  N  N314  1  0.73100000  0.10410000  0.94680000  1
  N  N315  1  0.73100000  0.39590000  0.55320000  1
  N  N316  1  0.76900000  0.60410000  0.05320000  1
  N  N317  1  0.76900000  0.89590000  0.44680000  1
  N  N318  1  0.81420000  0.63930000  0.97812000  1
  N  N319  1  0.81420000  0.86070000  0.52188000  1
  N  N320  1  0.95350000  0.13290000  0.48493000  1
  N  N321  1  0.95350000  0.36710000  0.01507000  1
  N  N322  1  0.99450000  0.10940000  0.56651000  1
  N  N323  1  0.99450000  0.39060000  0.93349000  1
  O  O324  1  0.01400000  0.02570000  0.78307000  1
  O  O325  1  0.01400000  0.47430000  0.71693000  1
  O  O326  1  0.09890000  0.70910000  0.69594000  1
  O  O327  1  0.09890000  0.79090000  0.80406000  1
  O  O328  1  0.13080000  0.10350000  0.21638000  1
  O  O329  1  0.13080000  0.39650000  0.28362000  1
  O  O330  1  0.18820000  0.18410000  0.29039000  1
  O  O331  1  0.18820000  0.31590000  0.20961000  1
  O  O332  1  0.31180000  0.68410000  0.70961000  1
  O  O333  1  0.31180000  0.81590000  0.79039000  1
  O  O334  1  0.36920000  0.60350000  0.78362000  1
  O  O335  1  0.36920000  0.89650000  0.71638000  1
  O  O336  1  0.40110000  0.20910000  0.30406000  1
  O  O337  1  0.40110000  0.29090000  0.19594000  1
  O  O338  1  0.48600000  0.52570000  0.21693000  1
  O  O339  1  0.48600000  0.97430000  0.28307000  1
  O  O340  1  0.51400000  0.02570000  0.71693000  1
  O  O341  1  0.51400000  0.47430000  0.78307000  1
  O  O342  1  0.59890000  0.70910000  0.80406000  1
  O  O343  1  0.59890000  0.79090000  0.69594000  1
  O  O344  1  0.63080000  0.10350000  0.28362000  1
  O  O345  1  0.63080000  0.39650000  0.21638000  1
  O  O346  1  0.68820000  0.18410000  0.20961000  1
  O  O347  1  0.68820000  0.31590000  0.29039000  1
  O  O348  1  0.81180000  0.68410000  0.79039000  1
  O  O349  1  0.81180000  0.81590000  0.70961000  1
  O  O350  1  0.86920000  0.60350000  0.71638000  1
  O  O351  1  0.86920000  0.89650000  0.78362000  1
  O  O352  1  0.90110000  0.20910000  0.19594000  1
  O  O353  1  0.90110000  0.29090000  0.30406000  1
  O  O354  1  0.98600000  0.52570000  0.28307000  1
  O  O355  1  0.98600000  0.97430000  0.21693000  1
