# generated using pymatgen
data_EuH3C8NO7
_symmetry_space_group_name_H-M   'P 1'
_cell_length_a   7.72970000
_cell_length_b   10.27250000
_cell_length_c   16.02340000
_cell_angle_alpha   86.81700000
_cell_angle_beta   85.97400000
_cell_angle_gamma   77.10700000
_symmetry_Int_Tables_number   1
_chemical_formula_structural   EuH3C8NO7
_chemical_formula_sum   'Eu4 H12 C32 N4 O28'
_cell_volume   1236.13421445
_cell_formula_units_Z   4
loop_
 _symmetry_equiv_pos_site_id
 _symmetry_equiv_pos_as_xyz
  1  'x, y, z'
loop_
 _atom_site_type_symbol
 _atom_site_label
 _atom_site_symmetry_multiplicity
 _atom_site_fract_x
 _atom_site_fract_y
 _atom_site_fract_z
 _atom_site_occupancy
  Eu  Eu0  1  0.35439000  0.33627000  0.06325000  1
  Eu  Eu1  1  0.38490000  0.13162000  0.67534000  1
  Eu  Eu2  1  0.61510000  0.86838000  0.32466000  1
  Eu  Eu3  1  0.64561000  0.66373000  0.93675000  1
  H  H4  1  0.07670000  0.11030000  0.06270000  1
  H  H5  1  0.08850000  0.88380000  0.81000000  1
  H  H6  1  0.08950000  0.35600000  0.35910000  1
  H  H7  1  0.16320000  0.52450000  0.70470000  1
  H  H8  1  0.24690000  0.90730000  0.01700000  1
  H  H9  1  0.33220000  0.45460000  0.36880000  1
  H  H10  1  0.66780000  0.54540000  0.63120000  1
  H  H11  1  0.75310000  0.09270000  0.98300000  1
  H  H12  1  0.83680000  0.47550000  0.29530000  1
  H  H13  1  0.91050000  0.64400000  0.64090000  1
  H  H14  1  0.91150000  0.11620000  0.19000000  1
  H  H15  1  0.92330000  0.88970000  0.93730000  1
  C  C16  1  0.01820000  0.96640000  0.82850000  1
  C  C17  1  0.05100000  0.53300000  0.96420000  1
  C  C18  1  0.06060000  0.48790000  0.70510000  1
  C  C19  1  0.07880000  0.03050000  0.09580000  1
  C  C20  1  0.08230000  0.80150000  0.19350000  1
  C  C21  1  0.08760000  0.44270000  0.33460000  1
  C  C22  1  0.08830000  0.68500000  0.25330000  1
  C  C23  1  0.17900000  0.91030000  0.06890000  1
  C  C24  1  0.18120000  0.79370000  0.11700000  1
  C  C25  1  0.23330000  0.49940000  0.33850000  1
  C  C26  1  0.23360000  0.62210000  0.29780000  1
  C  C27  1  0.28510000  0.66120000  0.08780000  1
  C  C28  1  0.38040000  0.69490000  0.30620000  1
  C  C29  1  0.38950000  0.13860000  0.22540000  1
  C  C30  1  0.42540000  0.95830000  0.50800000  1
  C  C31  1  0.48740000  0.93870000  0.84210000  1
  C  C32  1  0.51260000  0.06130000  0.15790000  1
  C  C33  1  0.57460000  0.04170000  0.49200000  1
  C  C34  1  0.61050000  0.86140000  0.77460000  1
  C  C35  1  0.61960000  0.30510000  0.69380000  1
  C  C36  1  0.71490000  0.33880000  0.91220000  1
  C  C37  1  0.76640000  0.37790000  0.70220000  1
  C  C38  1  0.76670000  0.50060000  0.66150000  1
  C  C39  1  0.81880000  0.20630000  0.88300000  1
  C  C40  1  0.82100000  0.08970000  0.93110000  1
  C  C41  1  0.91170000  0.31500000  0.74670000  1
  C  C42  1  0.91240000  0.55730000  0.66540000  1
  C  C43  1  0.91770000  0.19850000  0.80650000  1
  C  C44  1  0.92120000  0.96950000  0.90420000  1
  C  C45  1  0.93940000  0.51210000  0.29490000  1
  C  C46  1  0.94900000  0.46700000  0.03580000  1
  C  C47  1  0.98180000  0.03360000  0.17150000  1
  N  N48  1  0.01490000  0.07880000  0.78050000  1
  N  N49  1  0.05990000  0.36890000  0.74400000  1
  N  N50  1  0.94010000  0.63110000  0.25600000  1
  N  N51  1  0.98510000  0.92120000  0.21950000  1
  O  O52  1  0.03790000  0.36850000  0.07620000  1
  O  O53  1  0.09970000  0.07270000  0.70480000  1
  O  O54  1  0.20640000  0.29730000  0.77740000  1
  O  O55  1  0.21410000  0.48430000  0.95150000  1
  O  O56  1  0.24050000  0.55650000  0.11800000  1
  O  O57  1  0.29080000  0.24750000  0.20300000  1
  O  O58  1  0.33780000  0.97050000  0.57590000  1
  O  O59  1  0.35990000  0.81190000  0.27120000  1
  O  O60  1  0.38210000  0.04450000  0.81870000  1
  O  O61  1  0.39730000  0.08830000  0.29950000  1
  O  O62  1  0.40680000  0.88950000  0.44730000  1
  O  O63  1  0.40810000  0.66190000  0.03230000  1
  O  O64  1  0.49050000  0.35600000  0.65190000  1
  O  O65  1  0.49980000  0.89330000  0.91680000  1
  O  O66  1  0.50020000  0.10670000  0.08320000  1
  O  O67  1  0.50950000  0.64400000  0.34810000  1
  O  O68  1  0.59190000  0.33810000  0.96770000  1
  O  O69  1  0.59320000  0.11050000  0.55270000  1
  O  O70  1  0.60270000  0.91170000  0.70050000  1
  O  O71  1  0.61790000  0.95550000  0.18130000  1
  O  O72  1  0.64010000  0.18810000  0.72880000  1
  O  O73  1  0.66220000  0.02950000  0.42410000  1
  O  O74  1  0.70920000  0.75250000  0.79700000  1
  O  O75  1  0.75950000  0.44350000  0.88200000  1
  O  O76  1  0.78590000  0.51570000  0.04850000  1
  O  O77  1  0.79360000  0.70270000  0.22260000  1
  O  O78  1  0.90030000  0.92730000  0.29520000  1
  O  O79  1  0.96210000  0.63150000  0.92380000  1
