# generated using pymatgen
data_Cd3H8(C6O5)4
_symmetry_space_group_name_H-M   'P 1'
_cell_length_a   9.43270000
_cell_length_b   10.19540000
_cell_length_c   11.24520000
_cell_angle_alpha   63.98300000
_cell_angle_beta   73.21200000
_cell_angle_gamma   83.22000000
_symmetry_Int_Tables_number   1
_chemical_formula_structural   Cd3H8(C6O5)4
_chemical_formula_sum   'Cd3 H8 C24 O20'
_cell_volume   930.39479486
_cell_formula_units_Z   1
loop_
 _symmetry_equiv_pos_site_id
 _symmetry_equiv_pos_as_xyz
  1  'x, y, z'
loop_
 _atom_site_type_symbol
 _atom_site_label
 _atom_site_symmetry_multiplicity
 _atom_site_fract_x
 _atom_site_fract_y
 _atom_site_fract_z
 _atom_site_occupancy
  Cd  Cd0  1  0.00000000  0.00000000  0.50000000  1
  Cd  Cd1  1  0.01420000  0.34120000  0.18680000  1
  Cd  Cd2  1  0.98580000  0.65880000  0.81320000  1
  H  H3  1  0.22250000  0.11530000  0.62670000  1
  H  H4  1  0.25920000  0.86780000  0.85220000  1
  H  H5  1  0.26010000  0.09240000  0.89330000  1
  H  H6  1  0.47400000  0.06850000  0.67610000  1
  H  H7  1  0.52600000  0.93150000  0.32390000  1
  H  H8  1  0.73990000  0.90760000  0.10670000  1
  H  H9  1  0.74080000  0.13220000  0.14780000  1
  H  H10  1  0.77750000  0.88470000  0.37330000  1
  C  C11  1  0.07780000  0.63020000  0.08510000  1
  C  C12  1  0.08950000  0.05670000  0.17020000  1
  C  C13  1  0.12450000  0.77810000  0.04840000  1
  C  C14  1  0.13360000  0.96960000  0.08820000  1
  C  C15  1  0.21090000  0.87860000  0.93210000  1
  C  C16  1  0.21320000  0.00380000  0.95600000  1
  C  C17  1  0.24250000  0.27540000  0.33170000  1
  C  C18  1  0.27830000  0.81730000  0.57100000  1
  C  C19  1  0.31410000  0.14400000  0.56300000  1
  C  C20  1  0.34030000  0.21920000  0.42470000  1
  C  C21  1  0.44310000  0.81930000  0.53350000  1
  C  C22  1  0.45490000  0.11810000  0.59060000  1
  C  C23  1  0.54510000  0.88190000  0.40940000  1
  C  C24  1  0.55690000  0.18070000  0.46650000  1
  C  C25  1  0.65970000  0.78080000  0.57530000  1
  C  C26  1  0.68590000  0.85600000  0.43700000  1
  C  C27  1  0.72170000  0.18270000  0.42900000  1
  C  C28  1  0.75750000  0.72460000  0.66830000  1
  C  C29  1  0.78680000  0.99620000  0.04400000  1
  C  C30  1  0.78910000  0.12140000  0.06790000  1
  C  C31  1  0.86640000  0.03040000  0.91180000  1
  C  C32  1  0.87550000  0.22190000  0.95160000  1
  C  C33  1  0.91050000  0.94330000  0.82980000  1
  C  C34  1  0.92220000  0.36980000  0.91490000  1
  O  O35  1  0.00290000  0.44230000  0.79570000  1
  O  O36  1  0.01630000  0.99520000  0.29130000  1
  O  O37  1  0.07610000  0.83190000  0.14630000  1
  O  O38  1  0.10690000  0.23170000  0.38390000  1
  O  O39  1  0.12230000  0.58180000  0.99600000  1
  O  O40  1  0.12910000  0.18840000  0.10330000  1
  O  O41  1  0.21530000  0.73920000  0.69470000  1
  O  O42  1  0.21930000  0.89150000  0.47760000  1
  O  O43  1  0.29070000  0.36240000  0.21100000  1
  O  O44  1  0.48840000  0.24270000  0.36440000  1
  O  O45  1  0.51160000  0.75730000  0.63560000  1
  O  O46  1  0.70930000  0.63760000  0.78900000  1
  O  O47  1  0.78070000  0.10850000  0.52240000  1
  O  O48  1  0.78470000  0.26080000  0.30530000  1
  O  O49  1  0.87090000  0.81160000  0.89670000  1
  O  O50  1  0.87770000  0.41820000  0.00400000  1
  O  O51  1  0.89310000  0.76830000  0.61610000  1
  O  O52  1  0.92390000  0.16810000  0.85370000  1
  O  O53  1  0.98370000  0.00480000  0.70870000  1
  O  O54  1  0.99710000  0.55770000  0.20430000  1
