# generated using pymatgen
data_CdH9C10N3O4
_symmetry_space_group_name_H-M   'P 1'
_cell_length_a   13.19900000
_cell_length_b   13.64500000
_cell_length_c   20.03300000
_cell_angle_alpha   90.00000000
_cell_angle_beta   90.00000000
_cell_angle_gamma   90.00000000
_symmetry_Int_Tables_number   1
_chemical_formula_structural   CdH9C10N3O4
_chemical_formula_sum   'Cd8 H72 C80 N24 O32'
_cell_volume   3607.95041171
_cell_formula_units_Z   8
loop_
 _symmetry_equiv_pos_site_id
 _symmetry_equiv_pos_as_xyz
  1  'x, y, z'
loop_
 _atom_site_type_symbol
 _atom_site_label
 _atom_site_symmetry_multiplicity
 _atom_site_fract_x
 _atom_site_fract_y
 _atom_site_fract_z
 _atom_site_occupancy
  Cd  Cd0  1  0.13371000  0.06158000  0.85110000  1
  Cd  Cd1  1  0.13371000  0.56158000  0.64890000  1
  Cd  Cd2  1  0.36629000  0.06158000  0.14890000  1
  Cd  Cd3  1  0.36629000  0.56158000  0.35110000  1
  Cd  Cd4  1  0.63371000  0.43842000  0.64890000  1
  Cd  Cd5  1  0.63371000  0.93842000  0.85110000  1
  Cd  Cd6  1  0.86629000  0.43842000  0.35110000  1
  Cd  Cd7  1  0.86629000  0.93842000  0.14890000  1
  H  H8  1  0.07510000  0.45380000  0.50640000  1
  H  H9  1  0.07510000  0.95380000  0.99360000  1
  H  H10  1  0.09090000  0.43780000  0.28430000  1
  H  H11  1  0.09090000  0.93780000  0.21570000  1
  H  H12  1  0.10100000  0.37230000  0.55900000  1
  H  H13  1  0.10100000  0.87230000  0.94100000  1
  H  H14  1  0.12490000  0.25070000  0.75390000  1
  H  H15  1  0.12490000  0.75070000  0.74610000  1
  H  H16  1  0.15930000  0.45390000  0.40040000  1
  H  H17  1  0.15930000  0.95390000  0.09960000  1
  H  H18  1  0.19790000  0.07840000  0.01880000  1
  H  H19  1  0.19790000  0.57840000  0.48120000  1
  H  H20  1  0.20650000  0.33830000  0.23310000  1
  H  H21  1  0.20650000  0.83830000  0.26690000  1
  H  H22  1  0.22150000  0.25480000  0.53420000  1
  H  H23  1  0.22150000  0.75480000  0.96580000  1
  H  H24  1  0.23960000  0.37230000  0.38410000  1
  H  H25  1  0.23960000  0.87230000  0.11590000  1
  H  H26  1  0.26040000  0.37230000  0.61590000  1
  H  H27  1  0.26040000  0.87230000  0.88410000  1
  H  H28  1  0.27850000  0.25480000  0.46580000  1
  H  H29  1  0.27850000  0.75480000  0.03420000  1
  H  H30  1  0.29350000  0.33830000  0.76690000  1
  H  H31  1  0.29350000  0.83830000  0.73310000  1
  H  H32  1  0.30210000  0.07840000  0.98120000  1
  H  H33  1  0.30210000  0.57840000  0.51880000  1
  H  H34  1  0.34070000  0.45390000  0.59960000  1
  H  H35  1  0.34070000  0.95390000  0.90040000  1
  H  H36  1  0.37510000  0.25070000  0.24610000  1
  H  H37  1  0.37510000  0.75070000  0.25390000  1
  H  H38  1  0.39900000  0.37230000  0.44100000  1
  H  H39  1  0.39900000  0.87230000  0.05900000  1
  H  H40  1  0.40910000  0.43780000  0.71570000  1
  H  H41  1  0.40910000  0.93780000  0.78430000  1
  H  H42  1  0.42490000  0.45380000  0.49360000  1
  H  H43  1  0.42490000  0.95380000  0.00640000  1
  H  H44  1  0.57510000  0.04620000  0.99360000  1
  H  H45  1  0.57510000  0.54620000  0.50640000  1
  H  H46  1  0.59090000  0.06220000  0.21570000  1
  H  H47  1  0.59090000  0.56220000  0.28430000  1
  H  H48  1  0.60100000  0.12770000  0.94100000  1
  H  H49  1  0.60100000  0.62770000  0.55900000  1
  H  H50  1  0.62490000  0.24930000  0.74610000  1
  H  H51  1  0.62490000  0.74930000  0.75390000  1
  H  H52  1  0.65930000  0.04610000  0.09960000  1
  H  H53  1  0.65930000  0.54610000  0.40040000  1
  H  H54  1  0.69790000  0.42160000  0.48120000  1
  H  H55  1  0.69790000  0.92160000  0.01880000  1
  H  H56  1  0.70650000  0.16170000  0.26690000  1
  H  H57  1  0.70650000  0.66170000  0.23310000  1
  H  H58  1  0.72150000  0.24520000  0.96580000  1
  H  H59  1  0.72150000  0.74520000  0.53420000  1
  H  H60  1  0.73960000  0.12770000  0.11590000  1
  H  H61  1  0.73960000  0.62770000  0.38410000  1
  H  H62  1  0.76040000  0.12770000  0.88410000  1
  H  H63  1  0.76040000  0.62770000  0.61590000  1
  H  H64  1  0.77850000  0.24520000  0.03420000  1
  H  H65  1  0.77850000  0.74520000  0.46580000  1
  H  H66  1  0.79350000  0.16170000  0.73310000  1
  H  H67  1  0.79350000  0.66170000  0.76690000  1
  H  H68  1  0.80210000  0.42160000  0.51880000  1
  H  H69  1  0.80210000  0.92160000  0.98120000  1
  H  H70  1  0.84070000  0.04610000  0.90040000  1
  H  H71  1  0.84070000  0.54610000  0.59960000  1
  H  H72  1  0.87510000  0.24930000  0.25390000  1
  H  H73  1  0.87510000  0.74930000  0.24610000  1
  H  H74  1  0.89900000  0.12770000  0.05900000  1
  H  H75  1  0.89900000  0.62770000  0.44100000  1
  H  H76  1  0.90910000  0.06220000  0.78430000  1
  H  H77  1  0.90910000  0.56220000  0.71570000  1
  H  H78  1  0.92490000  0.04620000  0.00640000  1
  H  H79  1  0.92490000  0.54620000  0.49360000  1
  C  C80  1  0.00530000  0.20340000  0.21610000  1
  C  C81  1  0.00530000  0.70340000  0.28390000  1
  C  C82  1  0.03710000  0.38790000  0.68700000  1
  C  C83  1  0.03710000  0.88790000  0.81300000  1
  C  C84  1  0.05730000  0.23320000  0.74900000  1
  C  C85  1  0.05730000  0.73320000  0.75100000  1
  C  C86  1  0.06940000  0.37760000  0.26770000  1
  C  C87  1  0.06940000  0.87760000  0.23230000  1
  C  C88  1  0.11020000  0.22830000  0.21170000  1
  C  C89  1  0.11020000  0.72830000  0.28830000  1
  C  C90  1  0.12940000  0.41380000  0.52430000  1
  C  C91  1  0.12940000  0.91380000  0.97570000  1
  C  C92  1  0.13940000  0.31810000  0.23690000  1
  C  C93  1  0.13940000  0.81810000  0.26310000  1
  C  C94  1  0.19120000  0.16100000  0.18590000  1
  C  C95  1  0.19120000  0.66100000  0.31410000  1
  C  C96  1  0.21240000  0.41330000  0.41940000  1
  C  C97  1  0.21240000  0.91330000  0.08060000  1
  C  C98  1  0.25000000  0.03660000  0.00000000  1
  C  C99  1  0.25000000  0.29680000  0.50000000  1
  C  C100  1  0.25000000  0.53660000  0.50000000  1
  C  C101  1  0.25000000  0.79680000  0.00000000  1
  C  C102  1  0.28760000  0.41330000  0.58060000  1
  C  C103  1  0.28760000  0.91330000  0.91940000  1
  C  C104  1  0.30880000  0.16100000  0.81410000  1
  C  C105  1  0.30880000  0.66100000  0.68590000  1
  C  C106  1  0.36060000  0.31810000  0.76310000  1
  C  C107  1  0.36060000  0.81810000  0.73690000  1
  C  C108  1  0.37060000  0.41380000  0.47570000  1
  C  C109  1  0.37060000  0.91380000  0.02430000  1
  C  C110  1  0.38980000  0.22830000  0.78830000  1
  C  C111  1  0.38980000  0.72830000  0.71170000  1
  C  C112  1  0.43060000  0.37760000  0.73230000  1
  C  C113  1  0.43060000  0.87760000  0.76770000  1
  C  C114  1  0.44270000  0.23320000  0.25100000  1
  C  C115  1  0.44270000  0.73320000  0.24900000  1
  C  C116  1  0.46290000  0.38790000  0.31300000  1
  C  C117  1  0.46290000  0.88790000  0.18700000  1
  C  C118  1  0.49470000  0.20340000  0.78390000  1
  C  C119  1  0.49470000  0.70340000  0.71610000  1
  C  C120  1  0.50530000  0.29660000  0.28390000  1
  C  C121  1  0.50530000  0.79660000  0.21610000  1
  C  C122  1  0.53710000  0.11210000  0.81300000  1
  C  C123  1  0.53710000  0.61210000  0.68700000  1
  C  C124  1  0.55730000  0.26680000  0.75100000  1
  C  C125  1  0.55730000  0.76680000  0.74900000  1
  C  C126  1  0.56940000  0.12240000  0.23230000  1
  C  C127  1  0.56940000  0.62240000  0.26770000  1
  C  C128  1  0.61020000  0.27170000  0.28830000  1
  C  C129  1  0.61020000  0.77170000  0.21170000  1
  C  C130  1  0.62940000  0.08620000  0.97570000  1
  C  C131  1  0.62940000  0.58620000  0.52430000  1
  C  C132  1  0.63940000  0.18190000  0.26310000  1
  C  C133  1  0.63940000  0.68190000  0.23690000  1
  C  C134  1  0.69120000  0.33900000  0.31410000  1
  C  C135  1  0.69120000  0.83900000  0.18590000  1
  C  C136  1  0.71240000  0.08670000  0.08060000  1
  C  C137  1  0.71240000  0.58670000  0.41940000  1
  C  C138  1  0.75000000  0.20320000  0.00000000  1
  C  C139  1  0.75000000  0.46340000  0.50000000  1
  C  C140  1  0.75000000  0.70320000  0.50000000  1
  C  C141  1  0.75000000  0.96340000  0.00000000  1
  C  C142  1  0.78760000  0.08670000  0.91940000  1
  C  C143  1  0.78760000  0.58670000  0.58060000  1
  C  C144  1  0.80880000  0.33900000  0.68590000  1
  C  C145  1  0.80880000  0.83900000  0.81410000  1
  C  C146  1  0.86060000  0.18190000  0.73690000  1
  C  C147  1  0.86060000  0.68190000  0.76310000  1
  C  C148  1  0.87060000  0.08620000  0.02430000  1
  C  C149  1  0.87060000  0.58620000  0.47570000  1
  C  C150  1  0.88980000  0.27170000  0.71170000  1
  C  C151  1  0.88980000  0.77170000  0.78830000  1
  C  C152  1  0.93060000  0.12240000  0.76770000  1
  C  C153  1  0.93060000  0.62240000  0.73230000  1
  C  C154  1  0.94270000  0.26680000  0.24900000  1
  C  C155  1  0.94270000  0.76680000  0.25100000  1
  C  C156  1  0.96290000  0.11210000  0.18700000  1
  C  C157  1  0.96290000  0.61210000  0.31300000  1
  C  C158  1  0.99470000  0.29660000  0.71610000  1
  C  C159  1  0.99470000  0.79660000  0.78390000  1
  N  N160  1  0.02700000  0.14670000  0.77470000  1
  N  N161  1  0.02700000  0.64670000  0.72530000  1
  N  N162  1  0.17060000  0.35240000  0.47130000  1
  N  N163  1  0.17060000  0.85240000  0.02870000  1
  N  N164  1  0.20590000  0.47660000  0.55310000  1
  N  N165  1  0.20590000  0.97660000  0.94690000  1
  N  N166  1  0.29410000  0.47660000  0.44690000  1
  N  N167  1  0.29410000  0.97660000  0.05310000  1
  N  N168  1  0.32940000  0.35240000  0.52870000  1
  N  N169  1  0.32940000  0.85240000  0.97130000  1
  N  N170  1  0.47300000  0.14670000  0.22530000  1
  N  N171  1  0.47300000  0.64670000  0.27470000  1
  N  N172  1  0.52700000  0.35330000  0.72530000  1
  N  N173  1  0.52700000  0.85330000  0.77470000  1
  N  N174  1  0.67060000  0.14760000  0.02870000  1
  N  N175  1  0.67060000  0.64760000  0.47130000  1
  N  N176  1  0.70590000  0.02340000  0.94690000  1
  N  N177  1  0.70590000  0.52340000  0.55310000  1
  N  N178  1  0.79410000  0.02340000  0.05310000  1
  N  N179  1  0.79410000  0.52340000  0.44690000  1
  N  N180  1  0.82940000  0.14760000  0.97130000  1
  N  N181  1  0.82940000  0.64760000  0.52870000  1
  N  N182  1  0.97300000  0.35330000  0.27470000  1
  N  N183  1  0.97300000  0.85330000  0.22530000  1
  O  O184  1  0.01440000  0.06140000  0.14790000  1
  O  O185  1  0.01440000  0.56140000  0.35210000  1
  O  O186  1  0.12590000  0.41310000  0.70400000  1
  O  O187  1  0.12590000  0.91310000  0.79600000  1
  O  O188  1  0.21990000  0.09130000  0.21970000  1
  O  O189  1  0.21990000  0.59130000  0.28030000  1
  O  O190  1  0.23180000  0.18610000  0.13070000  1
  O  O191  1  0.23180000  0.68610000  0.36930000  1
  O  O192  1  0.26820000  0.18610000  0.86930000  1
  O  O193  1  0.26820000  0.68610000  0.63070000  1
  O  O194  1  0.28010000  0.09130000  0.78030000  1
  O  O195  1  0.28010000  0.59130000  0.71970000  1
  O  O196  1  0.37410000  0.41310000  0.29600000  1
  O  O197  1  0.37410000  0.91310000  0.20400000  1
  O  O198  1  0.48560000  0.06140000  0.85210000  1
  O  O199  1  0.48560000  0.56140000  0.64790000  1
  O  O200  1  0.51440000  0.43860000  0.35210000  1
  O  O201  1  0.51440000  0.93860000  0.14790000  1
  O  O202  1  0.62590000  0.08690000  0.79600000  1
  O  O203  1  0.62590000  0.58690000  0.70400000  1
  O  O204  1  0.71990000  0.40870000  0.28030000  1
  O  O205  1  0.71990000  0.90870000  0.21970000  1
  O  O206  1  0.73180000  0.31390000  0.36930000  1
  O  O207  1  0.73180000  0.81390000  0.13070000  1
  O  O208  1  0.76820000  0.31390000  0.63070000  1
  O  O209  1  0.76820000  0.81390000  0.86930000  1
  O  O210  1  0.78010000  0.40870000  0.71970000  1
  O  O211  1  0.78010000  0.90870000  0.78030000  1
  O  O212  1  0.87410000  0.08690000  0.20400000  1
  O  O213  1  0.87410000  0.58690000  0.29600000  1
  O  O214  1  0.98560000  0.43860000  0.64790000  1
  O  O215  1  0.98560000  0.93860000  0.85210000  1
