# generated using pymatgen
data_NiH15C15N3O2
_symmetry_space_group_name_H-M   'P 1'
_cell_length_a   13.73270000
_cell_length_b   13.73270000
_cell_length_c   25.46600000
_cell_angle_alpha   90.00000000
_cell_angle_beta   90.00000000
_cell_angle_gamma   90.00000000
_symmetry_Int_Tables_number   1
_chemical_formula_structural   NiH15C15N3O2
_chemical_formula_sum   'Ni8 H120 C120 N24 O16'
_cell_volume   4802.55779722
_cell_formula_units_Z   8
loop_
 _symmetry_equiv_pos_site_id
 _symmetry_equiv_pos_as_xyz
  1  'x, y, z'
loop_
 _atom_site_type_symbol
 _atom_site_label
 _atom_site_symmetry_multiplicity
 _atom_site_fract_x
 _atom_site_fract_y
 _atom_site_fract_z
 _atom_site_occupancy
  Ni  Ni0  1  0.09415000  0.24769000  0.97628000  1
  Ni  Ni1  1  0.24769000  0.90585000  0.02372000  1
  Ni  Ni2  1  0.25231000  0.40585000  0.52372000  1
  Ni  Ni3  1  0.40585000  0.74769000  0.47628000  1
  Ni  Ni4  1  0.59415000  0.25231000  0.47628000  1
  Ni  Ni5  1  0.74769000  0.59415000  0.52372000  1
  Ni  Ni6  1  0.75231000  0.09415000  0.02372000  1
  Ni  Ni7  1  0.90585000  0.75231000  0.97628000  1
  H  H8  1  0.00500000  0.82770000  0.14280000  1
  H  H9  1  0.02840000  0.81580000  0.56760000  1
  H  H10  1  0.04060000  0.65250000  0.71940000  1
  H  H11  1  0.04490000  0.25140000  0.08640000  1
  H  H12  1  0.04700000  0.76490000  0.43760000  1
  H  H13  1  0.05340000  0.08870000  0.43490000  1
  H  H14  1  0.05440000  0.33190000  0.53850000  1
  H  H15  1  0.05800000  0.30640000  0.78540000  1
  H  H16  1  0.06830000  0.61700000  0.94840000  1
  H  H17  1  0.07430000  0.65320000  0.62660000  1
  H  H18  1  0.07780000  0.09550000  0.13390000  1
  H  H19  1  0.08870000  0.94660000  0.56510000  1
  H  H20  1  0.09550000  0.92220000  0.86610000  1
  H  H21  1  0.10440000  0.20380000  0.14710000  1
  H  H22  1  0.11700000  0.56830000  0.55160000  1
  H  H23  1  0.12000000  0.25150000  0.86430000  1
  H  H24  1  0.15250000  0.54060000  0.78060000  1
  H  H25  1  0.15320000  0.57430000  0.87340000  1
  H  H26  1  0.16810000  0.44560000  0.96150000  1
  H  H27  1  0.17230000  0.00500000  0.85720000  1
  H  H28  1  0.18420000  0.02840000  0.43240000  1
  H  H29  1  0.19360000  0.44200000  0.71460000  1
  H  H30  1  0.19360000  0.69670000  0.04580000  1
  H  H31  1  0.19670000  0.69360000  0.45420000  1
  H  H32  1  0.19900000  0.20530000  0.05710000  1
  H  H33  1  0.20380000  0.89560000  0.85290000  1
  H  H34  1  0.20530000  0.80100000  0.94290000  1
  H  H35  1  0.23510000  0.04700000  0.56240000  1
  H  H36  1  0.24850000  0.38000000  0.63570000  1
  H  H37  1  0.24860000  0.45510000  0.41360000  1
  H  H38  1  0.25140000  0.95510000  0.91360000  1
  H  H39  1  0.25150000  0.88000000  0.13570000  1
  H  H40  1  0.26490000  0.54700000  0.06240000  1
  H  H41  1  0.29470000  0.30100000  0.44290000  1
  H  H42  1  0.29620000  0.39560000  0.35290000  1
  H  H43  1  0.30100000  0.70530000  0.55710000  1
  H  H44  1  0.30330000  0.19360000  0.95420000  1
  H  H45  1  0.30640000  0.19670000  0.54580000  1
  H  H46  1  0.30640000  0.94200000  0.21460000  1
  H  H47  1  0.31580000  0.52840000  0.93240000  1
  H  H48  1  0.32770000  0.50500000  0.35720000  1
  H  H49  1  0.33190000  0.94560000  0.46150000  1
  H  H50  1  0.34680000  0.07430000  0.37340000  1
  H  H51  1  0.34750000  0.04060000  0.28060000  1
  H  H52  1  0.38000000  0.75150000  0.36430000  1
  H  H53  1  0.38300000  0.06830000  0.05160000  1
  H  H54  1  0.39560000  0.70380000  0.64710000  1
  H  H55  1  0.40450000  0.42220000  0.36610000  1
  H  H56  1  0.41130000  0.44660000  0.06510000  1
  H  H57  1  0.42220000  0.59550000  0.63390000  1
  H  H58  1  0.42570000  0.15320000  0.12660000  1
  H  H59  1  0.43170000  0.11700000  0.44840000  1
  H  H60  1  0.44200000  0.80640000  0.28540000  1
  H  H61  1  0.44560000  0.83190000  0.03850000  1
  H  H62  1  0.44660000  0.58870000  0.93490000  1
  H  H63  1  0.45300000  0.26490000  0.93760000  1
  H  H64  1  0.45510000  0.75140000  0.58640000  1
  H  H65  1  0.45940000  0.15250000  0.21940000  1
  H  H66  1  0.47160000  0.31580000  0.06760000  1
  H  H67  1  0.49500000  0.32770000  0.64280000  1
  H  H68  1  0.50500000  0.67230000  0.64280000  1
  H  H69  1  0.52840000  0.68420000  0.06760000  1
  H  H70  1  0.54060000  0.84750000  0.21940000  1
  H  H71  1  0.54490000  0.24860000  0.58640000  1
  H  H72  1  0.54700000  0.73510000  0.93760000  1
  H  H73  1  0.55340000  0.41130000  0.93490000  1
  H  H74  1  0.55440000  0.16810000  0.03850000  1
  H  H75  1  0.55800000  0.19360000  0.28540000  1
  H  H76  1  0.56830000  0.88300000  0.44840000  1
  H  H77  1  0.57430000  0.84680000  0.12660000  1
  H  H78  1  0.57780000  0.40450000  0.63390000  1
  H  H79  1  0.58870000  0.55340000  0.06510000  1
  H  H80  1  0.59550000  0.57780000  0.36610000  1
  H  H81  1  0.60440000  0.29620000  0.64710000  1
  H  H82  1  0.61700000  0.93170000  0.05160000  1
  H  H83  1  0.62000000  0.24850000  0.36430000  1
  H  H84  1  0.65250000  0.95940000  0.28060000  1
  H  H85  1  0.65320000  0.92570000  0.37340000  1
  H  H86  1  0.66810000  0.05440000  0.46150000  1
  H  H87  1  0.67230000  0.49500000  0.35720000  1
  H  H88  1  0.68420000  0.47160000  0.93240000  1
  H  H89  1  0.69360000  0.05800000  0.21460000  1
  H  H90  1  0.69360000  0.80330000  0.54580000  1
  H  H91  1  0.69670000  0.80640000  0.95420000  1
  H  H92  1  0.69900000  0.29470000  0.55710000  1
  H  H93  1  0.70380000  0.60440000  0.35290000  1
  H  H94  1  0.70530000  0.69900000  0.44290000  1
  H  H95  1  0.73510000  0.45300000  0.06240000  1
  H  H96  1  0.74850000  0.12000000  0.13570000  1
  H  H97  1  0.74860000  0.04490000  0.91360000  1
  H  H98  1  0.75140000  0.54490000  0.41360000  1
  H  H99  1  0.75150000  0.62000000  0.63570000  1
  H  H100  1  0.76490000  0.95300000  0.56240000  1
  H  H101  1  0.79470000  0.19900000  0.94290000  1
  H  H102  1  0.79620000  0.10440000  0.85290000  1
  H  H103  1  0.80100000  0.79470000  0.05710000  1
  H  H104  1  0.80330000  0.30640000  0.45420000  1
  H  H105  1  0.80640000  0.30330000  0.04580000  1
  H  H106  1  0.80640000  0.55800000  0.71460000  1
  H  H107  1  0.81580000  0.97160000  0.43240000  1
  H  H108  1  0.82770000  0.99500000  0.85720000  1
  H  H109  1  0.83190000  0.55440000  0.96150000  1
  H  H110  1  0.84680000  0.42570000  0.87340000  1
  H  H111  1  0.84750000  0.45940000  0.78060000  1
  H  H112  1  0.88000000  0.74850000  0.86430000  1
  H  H113  1  0.88300000  0.43170000  0.55160000  1
  H  H114  1  0.89560000  0.79620000  0.14710000  1
  H  H115  1  0.90450000  0.07780000  0.86610000  1
  H  H116  1  0.91130000  0.05340000  0.56510000  1
  H  H117  1  0.92220000  0.90450000  0.13390000  1
  H  H118  1  0.92570000  0.34680000  0.62660000  1
  H  H119  1  0.93170000  0.38300000  0.94840000  1
  H  H120  1  0.94200000  0.69360000  0.78540000  1
  H  H121  1  0.94560000  0.66810000  0.53850000  1
  H  H122  1  0.94660000  0.91130000  0.43490000  1
  H  H123  1  0.95300000  0.23510000  0.43760000  1
  H  H124  1  0.95510000  0.74860000  0.08640000  1
  H  H125  1  0.95940000  0.34750000  0.71940000  1
  H  H126  1  0.97160000  0.18420000  0.56760000  1
  H  H127  1  0.99500000  0.17230000  0.14280000  1
  C  C128  1  0.00170000  0.95290000  0.43310000  1
  C  C129  1  0.02770000  0.32070000  0.81720000  1
  C  C130  1  0.03490000  0.83350000  0.04920000  1
  C  C131  1  0.03790000  0.18470000  0.56030000  1
  C  C132  1  0.04710000  0.00170000  0.56690000  1
  C  C133  1  0.04710000  0.63790000  0.91560000  1
  C  C134  1  0.05740000  0.62350000  0.82110000  1
  C  C135  1  0.05900000  0.16200000  0.12900000  1
  C  C136  1  0.06000000  0.18300000  0.07990000  1
  C  C137  1  0.06310000  0.28810000  0.86640000  1
  C  C138  1  0.08510000  0.60270000  0.72550000  1
  C  C139  1  0.09090000  0.27640000  0.54550000  1
  C  C140  1  0.09200000  0.10380000  0.56230000  1
  C  C141  1  0.09430000  0.60720000  0.87020000  1
  C  C142  1  0.10270000  0.58510000  0.77450000  1
  C  C143  1  0.10320000  0.80190000  0.44150000  1
  C  C144  1  0.10380000  0.90800000  0.43770000  1
  C  C145  1  0.10720000  0.59430000  0.62980000  1
  C  C146  1  0.12350000  0.55740000  0.67890000  1
  C  C147  1  0.13790000  0.54710000  0.58440000  1
  C  C148  1  0.16200000  0.94100000  0.87100000  1
  C  C149  1  0.16650000  0.03490000  0.95080000  1
  C  C150  1  0.17930000  0.47230000  0.68280000  1
  C  C151  1  0.18300000  0.94000000  0.92010000  1
  C  C152  1  0.18470000  0.96210000  0.43970000  1
  C  C153  1  0.19420000  0.76110000  0.45150000  1
  C  C154  1  0.19810000  0.10320000  0.55850000  1
  C  C155  1  0.21190000  0.43690000  0.63360000  1
  C  C156  1  0.22360000  0.40910000  0.95450000  1
  C  C157  1  0.23890000  0.19420000  0.54850000  1
  C  C158  1  0.26110000  0.69420000  0.04850000  1
  C  C159  1  0.27640000  0.90910000  0.45450000  1
  C  C160  1  0.28810000  0.93690000  0.13360000  1
  C  C161  1  0.30190000  0.60320000  0.05850000  1
  C  C162  1  0.30580000  0.26110000  0.95150000  1
  C  C163  1  0.31530000  0.46210000  0.93970000  1
  C  C164  1  0.31700000  0.44000000  0.42010000  1
  C  C165  1  0.32070000  0.97230000  0.18280000  1
  C  C166  1  0.33350000  0.53490000  0.45080000  1
  C  C167  1  0.33800000  0.44100000  0.37100000  1
  C  C168  1  0.36210000  0.04710000  0.08440000  1
  C  C169  1  0.37650000  0.05740000  0.17890000  1
  C  C170  1  0.39280000  0.09430000  0.12980000  1
  C  C171  1  0.39620000  0.40800000  0.93770000  1
  C  C172  1  0.39680000  0.30190000  0.94150000  1
  C  C173  1  0.39730000  0.08510000  0.27450000  1
  C  C174  1  0.40570000  0.10720000  0.37020000  1
  C  C175  1  0.40800000  0.60380000  0.06230000  1
  C  C176  1  0.40910000  0.77640000  0.04550000  1
  C  C177  1  0.41490000  0.10270000  0.22550000  1
  C  C178  1  0.43690000  0.78810000  0.36640000  1
  C  C179  1  0.44000000  0.68300000  0.57990000  1
  C  C180  1  0.44100000  0.66200000  0.62900000  1
  C  C181  1  0.44260000  0.12350000  0.32110000  1
  C  C182  1  0.45290000  0.13790000  0.41560000  1
  C  C183  1  0.45290000  0.50170000  0.06690000  1
  C  C184  1  0.46210000  0.68470000  0.06030000  1
  C  C185  1  0.46510000  0.33350000  0.54920000  1
  C  C186  1  0.47230000  0.82070000  0.31720000  1
  C  C187  1  0.49830000  0.45290000  0.93310000  1
  C  C188  1  0.50170000  0.54710000  0.93310000  1
  C  C189  1  0.52770000  0.17930000  0.31720000  1
  C  C190  1  0.53490000  0.66650000  0.54920000  1
  C  C191  1  0.53790000  0.31530000  0.06030000  1
  C  C192  1  0.54710000  0.49830000  0.06690000  1
  C  C193  1  0.54710000  0.86210000  0.41560000  1
  C  C194  1  0.55740000  0.87650000  0.32110000  1
  C  C195  1  0.55900000  0.33800000  0.62900000  1
  C  C196  1  0.56000000  0.31700000  0.57990000  1
  C  C197  1  0.56310000  0.21190000  0.36640000  1
  C  C198  1  0.58510000  0.89730000  0.22550000  1
  C  C199  1  0.59090000  0.22360000  0.04550000  1
  C  C200  1  0.59200000  0.39620000  0.06230000  1
  C  C201  1  0.59430000  0.89280000  0.37020000  1
  C  C202  1  0.60270000  0.91490000  0.27450000  1
  C  C203  1  0.60320000  0.69810000  0.94150000  1
  C  C204  1  0.60380000  0.59200000  0.93770000  1
  C  C205  1  0.60720000  0.90570000  0.12980000  1
  C  C206  1  0.62350000  0.94260000  0.17890000  1
  C  C207  1  0.63790000  0.95290000  0.08440000  1
  C  C208  1  0.66200000  0.55900000  0.37100000  1
  C  C209  1  0.66650000  0.46510000  0.45080000  1
  C  C210  1  0.67930000  0.02770000  0.18280000  1
  C  C211  1  0.68300000  0.56000000  0.42010000  1
  C  C212  1  0.68470000  0.53790000  0.93970000  1
  C  C213  1  0.69420000  0.73890000  0.95150000  1
  C  C214  1  0.69810000  0.39680000  0.05850000  1
  C  C215  1  0.71190000  0.06310000  0.13360000  1
  C  C216  1  0.72360000  0.09090000  0.45450000  1
  C  C217  1  0.73890000  0.30580000  0.04850000  1
  C  C218  1  0.76110000  0.80580000  0.54850000  1
  C  C219  1  0.77640000  0.59090000  0.95450000  1
  C  C220  1  0.78810000  0.56310000  0.63360000  1
  C  C221  1  0.80190000  0.89680000  0.55850000  1
  C  C222  1  0.80580000  0.23890000  0.45150000  1
  C  C223  1  0.81530000  0.03790000  0.43970000  1
  C  C224  1  0.81700000  0.06000000  0.92010000  1
  C  C225  1  0.82070000  0.52770000  0.68280000  1
  C  C226  1  0.83350000  0.96510000  0.95080000  1
  C  C227  1  0.83800000  0.05900000  0.87100000  1
  C  C228  1  0.86210000  0.45290000  0.58440000  1
  C  C229  1  0.87650000  0.44260000  0.67890000  1
  C  C230  1  0.89280000  0.40570000  0.62980000  1
  C  C231  1  0.89620000  0.09200000  0.43770000  1
  C  C232  1  0.89680000  0.19810000  0.44150000  1
  C  C233  1  0.89730000  0.41490000  0.77450000  1
  C  C234  1  0.90570000  0.39280000  0.87020000  1
  C  C235  1  0.90800000  0.89620000  0.56230000  1
  C  C236  1  0.90910000  0.72360000  0.54550000  1
  C  C237  1  0.91490000  0.39730000  0.72550000  1
  C  C238  1  0.93690000  0.71190000  0.86640000  1
  C  C239  1  0.94000000  0.81700000  0.07990000  1
  C  C240  1  0.94100000  0.83800000  0.12900000  1
  C  C241  1  0.94260000  0.37650000  0.82110000  1
  C  C242  1  0.95290000  0.36210000  0.91560000  1
  C  C243  1  0.95290000  0.99830000  0.56690000  1
  C  C244  1  0.96210000  0.81530000  0.56030000  1
  C  C245  1  0.96510000  0.16650000  0.04920000  1
  C  C246  1  0.97230000  0.67930000  0.81720000  1
  C  C247  1  0.99830000  0.04710000  0.43310000  1
  N  N248  1  0.03220000  0.29960000  0.91130000  1
  N  N249  1  0.13910000  0.20600000  0.04720000  1
  N  N250  1  0.18880000  0.28240000  0.54190000  1
  N  N251  1  0.20040000  0.46780000  0.58870000  1
  N  N252  1  0.20600000  0.86090000  0.95280000  1
  N  N253  1  0.21760000  0.31120000  0.95810000  1
  N  N254  1  0.28240000  0.81120000  0.45810000  1
  N  N255  1  0.29400000  0.36090000  0.45280000  1
  N  N256  1  0.29960000  0.96780000  0.08870000  1
  N  N257  1  0.31120000  0.78240000  0.04190000  1
  N  N258  1  0.36090000  0.70600000  0.54720000  1
  N  N259  1  0.46780000  0.79960000  0.41130000  1
  N  N260  1  0.53220000  0.20040000  0.41130000  1
  N  N261  1  0.63910000  0.29400000  0.54720000  1
  N  N262  1  0.68880000  0.21760000  0.04190000  1
  N  N263  1  0.70040000  0.03220000  0.08870000  1
  N  N264  1  0.70600000  0.63910000  0.45280000  1
  N  N265  1  0.71760000  0.18880000  0.45810000  1
  N  N266  1  0.78240000  0.68880000  0.95810000  1
  N  N267  1  0.79400000  0.13910000  0.95280000  1
  N  N268  1  0.79960000  0.53220000  0.58870000  1
  N  N269  1  0.81120000  0.71760000  0.54190000  1
  N  N270  1  0.86090000  0.79400000  0.04720000  1
  N  N271  1  0.96780000  0.70040000  0.91130000  1
  O  O272  1  0.03300000  0.79520000  0.00240000  1
  O  O273  1  0.10660000  0.87150000  0.06560000  1
  O  O274  1  0.12850000  0.10660000  0.93440000  1
  O  O275  1  0.20480000  0.03300000  0.99760000  1
  O  O276  1  0.29520000  0.53300000  0.49760000  1
  O  O277  1  0.37150000  0.60660000  0.43440000  1
  O  O278  1  0.39340000  0.37150000  0.56560000  1
  O  O279  1  0.46700000  0.29520000  0.50240000  1
  O  O280  1  0.53300000  0.70480000  0.50240000  1
  O  O281  1  0.60660000  0.62850000  0.56560000  1
  O  O282  1  0.62850000  0.39340000  0.43440000  1
  O  O283  1  0.70480000  0.46700000  0.49760000  1
  O  O284  1  0.79520000  0.96700000  0.99760000  1
  O  O285  1  0.87150000  0.89340000  0.93440000  1
  O  O286  1  0.89340000  0.12850000  0.06560000  1
  O  O287  1  0.96700000  0.20480000  0.00240000  1
