# generated using pymatgen
data_CoH19C19N4O5
_symmetry_space_group_name_H-M   'P 1'
_cell_length_a   7.27650000
_cell_length_b   16.97910000
_cell_length_c   17.06680000
_cell_angle_alpha   90.00000000
_cell_angle_beta   96.53800000
_cell_angle_gamma   90.00000000
_symmetry_Int_Tables_number   1
_chemical_formula_structural   CoH19C19N4O5
_chemical_formula_sum   'Co4 H76 C76 N16 O20'
_cell_volume   2094.86319099
_cell_formula_units_Z   4
loop_
 _symmetry_equiv_pos_site_id
 _symmetry_equiv_pos_as_xyz
  1  'x, y, z'
loop_
 _atom_site_type_symbol
 _atom_site_label
 _atom_site_symmetry_multiplicity
 _atom_site_fract_x
 _atom_site_fract_y
 _atom_site_fract_z
 _atom_site_occupancy
  Co  Co0  1  0.06530000  0.29870000  0.69338000  1
  Co  Co1  1  0.43470000  0.79870000  0.80662000  1
  Co  Co2  1  0.56530000  0.20130000  0.19338000  1
  Co  Co3  1  0.93470000  0.70130000  0.30662000  1
  H  H4  1  0.02460000  0.72280000  0.79270000  1
  H  H5  1  0.02910000  0.94560000  0.40890000  1
  H  H6  1  0.03060000  0.51310000  0.29860000  1
  H  H7  1  0.06060000  0.91790000  0.27760000  1
  H  H8  1  0.07010000  0.87710000  0.73500000  1
  H  H9  1  0.07230000  0.44110000  0.55390000  1
  H  H10  1  0.09130000  0.92630000  0.92690000  1
  H  H11  1  0.10310000  0.22030000  0.52460000  1
  H  H12  1  0.10490000  0.46730000  0.13170000  1
  H  H13  1  0.11080000  0.03030000  0.39990000  1
  H  H14  1  0.12710000  0.65120000  0.01190000  1
  H  H15  1  0.14170000  0.45750000  0.04350000  1
  H  H16  1  0.15410000  0.99990000  0.26800000  1
  H  H17  1  0.17770000  0.51950000  0.53830000  1
  H  H18  1  0.20110000  0.58640000  0.74510000  1
  H  H19  1  0.21500000  0.86770000  0.15260000  1
  H  H20  1  0.23550000  0.70210000  0.53630000  1
  H  H21  1  0.24390000  0.33190000  0.06530000  1
  H  H22  1  0.24460000  0.34130000  0.15660000  1
  H  H23  1  0.25540000  0.84130000  0.34340000  1
  H  H24  1  0.25610000  0.83190000  0.43470000  1
  H  H25  1  0.26450000  0.20210000  0.96370000  1
  H  H26  1  0.28500000  0.36770000  0.34740000  1
  H  H27  1  0.29890000  0.08640000  0.75490000  1
  H  H28  1  0.32230000  0.01950000  0.96170000  1
  H  H29  1  0.34590000  0.49990000  0.23200000  1
  H  H30  1  0.35830000  0.95750000  0.45650000  1
  H  H31  1  0.37290000  0.15120000  0.48810000  1
  H  H32  1  0.38920000  0.53030000  0.10010000  1
  H  H33  1  0.39510000  0.96730000  0.36830000  1
  H  H34  1  0.39690000  0.72030000  0.97540000  1
  H  H35  1  0.40870000  0.42630000  0.57310000  1
  H  H36  1  0.42770000  0.94110000  0.94610000  1
  H  H37  1  0.42990000  0.37710000  0.76500000  1
  H  H38  1  0.43940000  0.41790000  0.22240000  1
  H  H39  1  0.46940000  0.01310000  0.20140000  1
  H  H40  1  0.47090000  0.44560000  0.09110000  1
  H  H41  1  0.47540000  0.22280000  0.70730000  1
  H  H42  1  0.52460000  0.77720000  0.29270000  1
  H  H43  1  0.52910000  0.55440000  0.90890000  1
  H  H44  1  0.53060000  0.98690000  0.79860000  1
  H  H45  1  0.56060000  0.58210000  0.77760000  1
  H  H46  1  0.57010000  0.62290000  0.23500000  1
  H  H47  1  0.57230000  0.05890000  0.05390000  1
  H  H48  1  0.59130000  0.57370000  0.42690000  1
  H  H49  1  0.60310000  0.27970000  0.02460000  1
  H  H50  1  0.60490000  0.03270000  0.63170000  1
  H  H51  1  0.61080000  0.46970000  0.89990000  1
  H  H52  1  0.62710000  0.84880000  0.51190000  1
  H  H53  1  0.64170000  0.04250000  0.54350000  1
  H  H54  1  0.65410000  0.50010000  0.76800000  1
  H  H55  1  0.67770000  0.98050000  0.03830000  1
  H  H56  1  0.70110000  0.91360000  0.24510000  1
  H  H57  1  0.71500000  0.63230000  0.65260000  1
  H  H58  1  0.73550000  0.79790000  0.03630000  1
  H  H59  1  0.74390000  0.16810000  0.56530000  1
  H  H60  1  0.74460000  0.15870000  0.65660000  1
  H  H61  1  0.75540000  0.65870000  0.84340000  1
  H  H62  1  0.75610000  0.66810000  0.93470000  1
  H  H63  1  0.76450000  0.29790000  0.46370000  1
  H  H64  1  0.78500000  0.13230000  0.84740000  1
  H  H65  1  0.79890000  0.41360000  0.25490000  1
  H  H66  1  0.82230000  0.48050000  0.46170000  1
  H  H67  1  0.84590000  0.00010000  0.73200000  1
  H  H68  1  0.85830000  0.54250000  0.95650000  1
  H  H69  1  0.87290000  0.34880000  0.98810000  1
  H  H70  1  0.88920000  0.96970000  0.60010000  1
  H  H71  1  0.89510000  0.53270000  0.86830000  1
  H  H72  1  0.89690000  0.77970000  0.47540000  1
  H  H73  1  0.90870000  0.07370000  0.07310000  1
  H  H74  1  0.92770000  0.55890000  0.44610000  1
  H  H75  1  0.92990000  0.12290000  0.26500000  1
  H  H76  1  0.93940000  0.08210000  0.72240000  1
  H  H77  1  0.96940000  0.48690000  0.70140000  1
  H  H78  1  0.97090000  0.05440000  0.59110000  1
  H  H79  1  0.97540000  0.27720000  0.20730000  1
  C  C80  1  0.03160000  0.17430000  0.89470000  1
  C  C81  1  0.05980000  0.90160000  0.97210000  1
  C  C82  1  0.06150000  0.97250000  0.29430000  1
  C  C83  1  0.07610000  0.21800000  0.82230000  1
  C  C84  1  0.08470000  0.71390000  0.84290000  1
  C  C85  1  0.09050000  0.48070000  0.51460000  1
  C  C86  1  0.09170000  0.47680000  0.72090000  1
  C  C87  1  0.10580000  0.13920000  0.03060000  1
  C  C88  1  0.11560000  0.97620000  0.38210000  1
  C  C89  1  0.13320000  0.86670000  0.10650000  1
  C  C90  1  0.13860000  0.67430000  0.96330000  1
  C  C91  1  0.15190000  0.17608000  0.96290000  1
  C  C92  1  0.15840000  0.91670000  0.74390000  1
  C  C93  1  0.17800000  0.90590000  0.04080000  1
  C  C94  1  0.17940000  0.35590000  0.10600000  1
  C  C95  1  0.18640000  0.44330000  0.09740000  1
  C  C96  1  0.21250000  0.21220000  0.55740000  1
  C  C97  1  0.21870000  0.53220000  0.74500000  1
  C  C98  1  0.23520000  0.14400000  0.10580000  1
  C  C99  1  0.26480000  0.64400000  0.39420000  1
  C  C100  1  0.28130000  0.03220000  0.75500000  1
  C  C101  1  0.28750000  0.71220000  0.94260000  1
  C  C102  1  0.31360000  0.94330000  0.40260000  1
  C  C103  1  0.32060000  0.85590000  0.39400000  1
  C  C104  1  0.32200000  0.40590000  0.45920000  1
  C  C105  1  0.34160000  0.41670000  0.75610000  1
  C  C106  1  0.34810000  0.67608000  0.53710000  1
  C  C107  1  0.36140000  0.17430000  0.53670000  1
  C  C108  1  0.36680000  0.36670000  0.39350000  1
  C  C109  1  0.38440000  0.47620000  0.11790000  1
  C  C110  1  0.39420000  0.63920000  0.46940000  1
  C  C111  1  0.40830000  0.97680000  0.77910000  1
  C  C112  1  0.40950000  0.98070000  0.98540000  1
  C  C113  1  0.41530000  0.21390000  0.65710000  1
  C  C114  1  0.42390000  0.71800000  0.67770000  1
  C  C115  1  0.43850000  0.47250000  0.20570000  1
  C  C116  1  0.44020000  0.40160000  0.52790000  1
  C  C117  1  0.46840000  0.67430000  0.60530000  1
  C  C118  1  0.53160000  0.32570000  0.39470000  1
  C  C119  1  0.55980000  0.59840000  0.47210000  1
  C  C120  1  0.56150000  0.52750000  0.79430000  1
  C  C121  1  0.57610000  0.28200000  0.32230000  1
  C  C122  1  0.58470000  0.78610000  0.34290000  1
  C  C123  1  0.59050000  0.01930000  0.01460000  1
  C  C124  1  0.59170000  0.02320000  0.22090000  1
  C  C125  1  0.60580000  0.36080000  0.53060000  1
  C  C126  1  0.61560000  0.52380000  0.88210000  1
  C  C127  1  0.63320000  0.63330000  0.60650000  1
  C  C128  1  0.63860000  0.82570000  0.46330000  1
  C  C129  1  0.65190000  0.32392000  0.46290000  1
  C  C130  1  0.65840000  0.58330000  0.24390000  1
  C  C131  1  0.67800000  0.59410000  0.54080000  1
  C  C132  1  0.67940000  0.14410000  0.60600000  1
  C  C133  1  0.68640000  0.05670000  0.59740000  1
  C  C134  1  0.71250000  0.28780000  0.05740000  1
  C  C135  1  0.71870000  0.96780000  0.24500000  1
  C  C136  1  0.73520000  0.35600000  0.60580000  1
  C  C137  1  0.76480000  0.85600000  0.89420000  1
  C  C138  1  0.78130000  0.46780000  0.25500000  1
  C  C139  1  0.78750000  0.78780000  0.44260000  1
  C  C140  1  0.81360000  0.55670000  0.90260000  1
  C  C141  1  0.82060000  0.64410000  0.89400000  1
  C  C142  1  0.82200000  0.09410000  0.95920000  1
  C  C143  1  0.84160000  0.08330000  0.25610000  1
  C  C144  1  0.84810000  0.82392000  0.03710000  1
  C  C145  1  0.86140000  0.32570000  0.03670000  1
  C  C146  1  0.86680000  0.13330000  0.89350000  1
  C  C147  1  0.88440000  0.02380000  0.61790000  1
  C  C148  1  0.89420000  0.86080000  0.96940000  1
  C  C149  1  0.90830000  0.52320000  0.27910000  1
  C  C150  1  0.90950000  0.51930000  0.48540000  1
  C  C151  1  0.91530000  0.28610000  0.15710000  1
  C  C152  1  0.92390000  0.78200000  0.17770000  1
  C  C153  1  0.93850000  0.02750000  0.70570000  1
  C  C154  1  0.94020000  0.09840000  0.02790000  1
  C  C155  1  0.96840000  0.82570000  0.10530000  1
  N  N156  1  0.00760000  0.67589000  0.89960000  1
  N  N157  1  0.12180000  0.99248000  0.73100000  1
  N  N158  1  0.16990000  0.40351000  0.72971000  1
  N  N159  1  0.24590000  0.23725000  0.63420000  1
  N  N160  1  0.25410000  0.73725000  0.86580000  1
  N  N161  1  0.33010000  0.90351000  0.77029000  1
  N  N162  1  0.37820000  0.49248000  0.76900000  1
  N  N163  1  0.49240000  0.17589000  0.60040000  1
  N  N164  1  0.50760000  0.82411000  0.39960000  1
  N  N165  1  0.62180000  0.50752000  0.23100000  1
  N  N166  1  0.66990000  0.09649000  0.22971000  1
  N  N167  1  0.74590000  0.26275000  0.13420000  1
  N  N168  1  0.75410000  0.76275000  0.36580000  1
  N  N169  1  0.83010000  0.59649000  0.27029000  1
  N  N170  1  0.87820000  0.00752000  0.26900000  1
  N  N171  1  0.99240000  0.32411000  0.10040000  1
  O  O172  1  0.05600000  0.77094000  0.23314000  1
  O  O173  1  0.11580000  0.68298000  0.39872000  1
  O  O174  1  0.15750000  0.44591000  0.44883000  1
  O  O175  1  0.19500000  0.11320000  0.16670000  1
  O  O176  1  0.23310000  0.24398000  0.81747000  1
  O  O177  1  0.26690000  0.74398000  0.68253000  1
  O  O178  1  0.30500000  0.61320000  0.33333333  1
  O  O179  1  0.34250000  0.94591000  0.05117000  1
  O  O180  1  0.38420000  0.18298000  0.10128000  1
  O  O181  1  0.44400000  0.27094000  0.26686000  1
  O  O182  1  0.55600000  0.72906000  0.73314000  1
  O  O183  1  0.61580000  0.81702000  0.89872000  1
  O  O184  1  0.65750000  0.05409000  0.94883000  1
  O  O185  1  0.69500000  0.38680000  0.66666667  1
  O  O186  1  0.73310000  0.25602000  0.31747000  1
  O  O187  1  0.76690000  0.75602000  0.18253000  1
  O  O188  1  0.80500000  0.88680000  0.83330000  1
  O  O189  1  0.84250000  0.55409000  0.55117000  1
  O  O190  1  0.88420000  0.31702000  0.60128000  1
  O  O191  1  0.94400000  0.22906000  0.76686000  1
