# generated using pymatgen
data_VH4C8O5
_symmetry_space_group_name_H-M   'P 1'
_cell_length_a   6.78580000
_cell_length_b   12.61800000
_cell_length_c   17.08600000
_cell_angle_alpha   90.00000000
_cell_angle_beta   90.00000000
_cell_angle_gamma   90.00000000
_symmetry_Int_Tables_number   1
_chemical_formula_structural   VH4C8O5
_chemical_formula_sum   'V4 H16 C32 O20'
_cell_volume   1462.95841210
_cell_formula_units_Z   4
loop_
 _symmetry_equiv_pos_site_id
 _symmetry_equiv_pos_as_xyz
  1  'x, y, z'
loop_
 _atom_site_type_symbol
 _atom_site_label
 _atom_site_symmetry_multiplicity
 _atom_site_fract_x
 _atom_site_fract_y
 _atom_site_fract_z
 _atom_site_occupancy
  V  V0  1  0.05886000  0.76540000  0.49926000  1
  V  V1  1  0.44114000  0.23460000  0.99926000  1
  V  V2  1  0.55886000  0.73460000  0.50074000  1
  V  V3  1  0.94114000  0.26540000  0.00074000  1
  H  H4  1  0.03020000  0.09630000  0.78890000  1
  H  H5  1  0.03150000  0.06550000  0.19210000  1
  H  H6  1  0.04530000  0.99550000  0.67670000  1
  H  H7  1  0.05050000  0.96360000  0.30560000  1
  H  H8  1  0.44950000  0.03640000  0.80560000  1
  H  H9  1  0.45470000  0.00450000  0.17670000  1
  H  H10  1  0.46850000  0.93450000  0.69210000  1
  H  H11  1  0.46980000  0.90370000  0.28890000  1
  H  H12  1  0.53020000  0.40370000  0.21110000  1
  H  H13  1  0.53150000  0.43450000  0.80790000  1
  H  H14  1  0.54530000  0.50450000  0.32330000  1
  H  H15  1  0.55050000  0.53640000  0.69440000  1
  H  H16  1  0.94950000  0.46360000  0.19440000  1
  H  H17  1  0.95470000  0.49550000  0.82330000  1
  H  H18  1  0.96850000  0.56550000  0.30790000  1
  H  H19  1  0.96980000  0.59630000  0.71110000  1
  C  C20  1  0.06950000  0.47250000  0.21990000  1
  C  C21  1  0.07440000  0.50330000  0.79740000  1
  C  C22  1  0.08100000  0.53300000  0.28810000  1
  C  C23  1  0.08270000  0.56340000  0.73010000  1
  C  C24  1  0.22740000  0.36250000  0.11740000  1
  C  C25  1  0.22980000  0.38460000  0.89680000  1
  C  C26  1  0.23930000  0.42560000  0.19070000  1
  C  C27  1  0.23970000  0.45500000  0.82680000  1
  C  C28  1  0.26030000  0.54500000  0.32680000  1
  C  C29  1  0.26070000  0.57440000  0.69070000  1
  C  C30  1  0.27020000  0.61540000  0.39680000  1
  C  C31  1  0.27260000  0.63750000  0.61740000  1
  C  C32  1  0.41730000  0.43660000  0.23010000  1
  C  C33  1  0.41900000  0.46700000  0.78810000  1
  C  C34  1  0.42560000  0.49670000  0.29740000  1
  C  C35  1  0.43050000  0.52750000  0.71990000  1
  C  C36  1  0.56950000  0.02750000  0.78010000  1
  C  C37  1  0.57440000  0.99670000  0.20260000  1
  C  C38  1  0.58100000  0.96700000  0.71190000  1
  C  C39  1  0.58270000  0.93660000  0.26990000  1
  C  C40  1  0.72740000  0.13750000  0.88260000  1
  C  C41  1  0.72980000  0.11540000  0.10320000  1
  C  C42  1  0.73930000  0.07440000  0.80930000  1
  C  C43  1  0.73970000  0.04500000  0.17320000  1
  C  C44  1  0.76030000  0.95500000  0.67320000  1
  C  C45  1  0.76070000  0.92560000  0.30930000  1
  C  C46  1  0.77020000  0.88460000  0.60320000  1
  C  C47  1  0.77260000  0.86250000  0.38260000  1
  C  C48  1  0.91730000  0.06340000  0.76990000  1
  C  C49  1  0.91900000  0.03300000  0.21190000  1
  C  C50  1  0.92560000  0.00330000  0.70260000  1
  C  C51  1  0.93050000  0.97250000  0.28010000  1
  O  O52  1  0.05900000  0.36500000  0.92387000  1
  O  O53  1  0.06200000  0.34490000  0.08833000  1
  O  O54  1  0.10960000  0.65050000  0.42316000  1
  O  O55  1  0.10980000  0.67010000  0.58930000  1
  O  O56  1  0.22240000  0.18534000  0.99604000  1
  O  O57  1  0.27760000  0.81466000  0.49604000  1
  O  O58  1  0.39020000  0.32990000  0.08930000  1
  O  O59  1  0.39040000  0.34950000  0.92316000  1
  O  O60  1  0.43800000  0.65510000  0.58833000  1
  O  O61  1  0.44100000  0.63500000  0.42387000  1
  O  O62  1  0.55900000  0.13500000  0.07613000  1
  O  O63  1  0.56200000  0.15510000  0.91167000  1
  O  O64  1  0.60960000  0.84950000  0.57684000  1
  O  O65  1  0.60980000  0.82990000  0.41070000  1
  O  O66  1  0.72240000  0.31466000  0.00396000  1
  O  O67  1  0.77760000  0.68534000  0.50396000  1
  O  O68  1  0.89020000  0.17010000  0.91070000  1
  O  O69  1  0.89040000  0.15050000  0.07684000  1
  O  O70  1  0.93800000  0.84490000  0.41167000  1
  O  O71  1  0.94100000  0.86500000  0.57613000  1
