# generated using pymatgen
data_Zn6H204C179S12(NO3)8
_symmetry_space_group_name_H-M   'P 1'
_cell_length_a   22.72100000
_cell_length_b   25.19860000
_cell_length_c   25.19860000
_cell_angle_alpha   103.68100000
_cell_angle_beta   108.96600000
_cell_angle_gamma   108.96600000
_symmetry_Int_Tables_number   1
_chemical_formula_structural   Zn6H204C179S12(NO3)8
_chemical_formula_sum   'Zn12 H408 C358 S24 N16 O48'
_cell_volume   11921.69842874
_cell_formula_units_Z   2
loop_
 _symmetry_equiv_pos_site_id
 _symmetry_equiv_pos_as_xyz
  1  'x, y, z'
loop_
 _atom_site_type_symbol
 _atom_site_label
 _atom_site_symmetry_multiplicity
 _atom_site_fract_x
 _atom_site_fract_y
 _atom_site_fract_z
 _atom_site_occupancy
  Zn  Zn0  1  0.09342000  0.46599000  0.52677000  1
  Zn  Zn1  1  0.15207000  0.54089000  0.06525000  1
  Zn  Zn2  1  0.22454000  0.51360000  0.99107000  1
  Zn  Zn3  1  0.27546000  0.00893000  0.48640000  1
  Zn  Zn4  1  0.34793000  0.93475000  0.45911000  1
  Zn  Zn5  1  0.40658000  0.47323000  0.53401000  1
  Zn  Zn6  1  0.59342000  0.52677000  0.46599000  1
  Zn  Zn7  1  0.65207000  0.06525000  0.54089000  1
  Zn  Zn8  1  0.72454000  0.99107000  0.51360000  1
  Zn  Zn9  1  0.77546000  0.48640000  0.00893000  1
  Zn  Zn10  1  0.84793000  0.45911000  0.93475000  1
  Zn  Zn11  1  0.90658000  0.53401000  0.47323000  1
  H  H12  1  0.00020000  0.05110000  0.03850000  1
  H  H13  1  0.00050000  0.59540000  0.92740000  1
  H  H14  1  0.00570000  0.75090000  0.87430000  1
  H  H15  1  0.00910000  0.88240000  0.16800000  1
  H  H16  1  0.00990000  0.42170000  0.75850000  1
  H  H17  1  0.01130000  0.11750000  0.13030000  1
  H  H18  1  0.01680000  0.76180000  0.99180000  1
  H  H19  1  0.01690000  0.43780000  0.86020000  1
  H  H20  1  0.02240000  0.74860000  0.67220000  1
  H  H21  1  0.02330000  0.18800000  0.86660000  1
  H  H22  1  0.02400000  0.84040000  0.66680000  1
  H  H23  1  0.02530000  0.21300000  0.04940000  1
  H  H24  1  0.02590000  0.00910000  0.88130000  1
  H  H25  1  0.02750000  0.54710000  0.07190000  1
  H  H26  1  0.02880000  0.77080000  0.56340000  1
  H  H27  1  0.03970000  0.28750000  0.39290000  1
  H  H28  1  0.04000000  0.13840000  0.76260000  1
  H  H29  1  0.04040000  0.64430000  0.03470000  1
  H  H30  1  0.04060000  0.19450000  0.39670000  1
  H  H31  1  0.04790000  0.30900000  0.28260000  1
  H  H32  1  0.04880000  0.89570000  0.03570000  1
  H  H33  1  0.04920000  0.57140000  0.48200000  1
  H  H34  1  0.04920000  0.72660000  0.91560000  1
  H  H35  1  0.05000000  0.21810000  0.29150000  1
  H  H36  1  0.05250000  0.84110000  0.58310000  1
  H  H37  1  0.05280000  0.03120000  0.07700000  1
  H  H38  1  0.05590000  0.33970000  0.08750000  1
  H  H39  1  0.05750000  0.36170000  0.20330000  1
  H  H40  1  0.06490000  0.09830000  0.16830000  1
  H  H41  1  0.06540000  0.04090000  0.95230000  1
  H  H42  1  0.07000000  0.44740000  0.71140000  1
  H  H43  1  0.07730000  0.35770000  0.56190000  1
  H  H44  1  0.07780000  0.98810000  0.91810000  1
  H  H45  1  0.07900000  0.85760000  0.95780000  1
  H  H46  1  0.08060000  0.20600000  0.80780000  1
  H  H47  1  0.08900000  0.16340000  0.09060000  1
  H  H48  1  0.09050000  0.87020000  0.07660000  1
  H  H49  1  0.09200000  0.91840000  0.29100000  1
  H  H50  1  0.09210000  0.65160000  0.67140000  1
  H  H51  1  0.09590000  0.31940000  0.13600000  1
  H  H52  1  0.09650000  0.75720000  0.82020000  1
  H  H53  1  0.10090000  0.41120000  0.18600000  1
  H  H54  1  0.10760000  0.10950000  0.82970000  1
  H  H55  1  0.10840000  0.59030000  0.42470000  1
  H  H56  1  0.10890000  0.58910000  0.32810000  1
  H  H57  1  0.11030000  0.28120000  0.55420000  1
  H  H58  1  0.11030000  0.34670000  0.34730000  1
  H  H59  1  0.11220000  0.25600000  0.35640000  1
  H  H60  1  0.11460000  0.22980000  0.18460000  1
  H  H61  1  0.11830000  0.78550000  0.65210000  1
  H  H62  1  0.11870000  0.72620000  0.02020000  1
  H  H63  1  0.12080000  0.31140000  0.29360000  1
  H  H64  1  0.12120000  0.83240000  0.99880000  1
  H  H65  1  0.12370000  0.46920000  0.65280000  1
  H  H66  1  0.12460000  0.77000000  0.77320000  1
  H  H67  1  0.12950000  0.92350000  0.06090000  1
  H  H68  1  0.13930000  0.85530000  0.67750000  1
  H  H69  1  0.14040000  0.13840000  0.12060000  1
  H  H70  1  0.14110000  0.04520000  0.23140000  1
  H  H71  1  0.14420000  0.17430000  0.88010000  1
  H  H72  1  0.14740000  0.21200000  0.54000000  1
  H  H73  1  0.14900000  0.87850000  0.85770000  1
  H  H74  1  0.15050000  0.85470000  0.91010000  1
  H  H75  1  0.15210000  0.80160000  0.11520000  1
  H  H76  1  0.15710000  0.69490000  0.05550000  1
  H  H77  1  0.15740000  0.07790000  0.82490000  1
  H  H78  1  0.15740000  0.12330000  0.55890000  1
  H  H79  1  0.15820000  0.95430000  0.20250000  1
  H  H80  1  0.15850000  0.20070000  0.21790000  1
  H  H81  1  0.15850000  0.70000000  0.83980000  1
  H  H82  1  0.16160000  0.09110000  0.76810000  1
  H  H83  1  0.16200000  0.59360000  0.27020000  1
  H  H84  1  0.16230000  0.89850000  0.58090000  1
  H  H85  1  0.16760000  0.02700000  0.28680000  1
  H  H86  1  0.16950000  0.14850000  0.77710000  1
  H  H87  1  0.18210000  0.76390000  0.14730000  1
  H  H88  1  0.18690000  0.71300000  0.79320000  1
  H  H89  1  0.19010000  0.43050000  0.48810000  1
  H  H90  1  0.19800000  0.27090000  0.15170000  1
  H  H91  1  0.19900000  0.73100000  0.96740000  1
  H  H92  1  0.19910000  0.05300000  0.55040000  1
  H  H93  1  0.19950000  0.98990000  0.91730000  1
  H  H94  1  0.20030000  0.00540000  0.18580000  1
  H  H95  1  0.20190000  0.57810000  0.19830000  1
  H  H96  1  0.20340000  0.05850000  0.79730000  1
  H  H97  1  0.20860000  0.21110000  0.83110000  1
  H  H98  1  0.21730000  0.06200000  0.07280000  1
  H  H99  1  0.21910000  0.08000000  0.27880000  1
  H  H100  1  0.21950000  0.04770000  0.97750000  1
  H  H101  1  0.22160000  0.26100000  0.48460000  1
  H  H102  1  0.22240000  0.81050000  0.05350000  1
  H  H103  1  0.22250000  0.81140000  0.89340000  1
  H  H104  1  0.22560000  0.35470000  0.47710000  1
  H  H105  1  0.22600000  0.55530000  0.89410000  1
  H  H106  1  0.22860000  0.83920000  0.84500000  1
  H  H107  1  0.23730000  0.90450000  0.21530000  1
  H  H108  1  0.23900000  0.70500000  0.00920000  1
  H  H109  1  0.23930000  0.18340000  0.45420000  1
  H  H110  1  0.24050000  0.27790000  0.30890000  1
  H  H111  1  0.24090000  0.23900000  0.18100000  1
  H  H112  1  0.24180000  0.93750000  0.97590000  1
  H  H113  1  0.24420000  0.98180000  0.88280000  1
  H  H114  1  0.25580000  0.11720000  0.01820000  1
  H  H115  1  0.25820000  0.02410000  0.06250000  1
  H  H116  1  0.25910000  0.81900000  0.76100000  1
  H  H117  1  0.25950000  0.69110000  0.72210000  1
  H  H118  1  0.26070000  0.54580000  0.81660000  1
  H  H119  1  0.26100000  0.99080000  0.29500000  1
  H  H120  1  0.26270000  0.78470000  0.09550000  1
  H  H121  1  0.27140000  0.15500000  0.16080000  1
  H  H122  1  0.27400000  0.10590000  0.44470000  1
  H  H123  1  0.27440000  0.52290000  0.64530000  1
  H  H124  1  0.27750000  0.10660000  0.18860000  1
  H  H125  1  0.27760000  0.94650000  0.18950000  1
  H  H126  1  0.27840000  0.51540000  0.73900000  1
  H  H127  1  0.28050000  0.02250000  0.95230000  1
  H  H128  1  0.28090000  0.72120000  0.92000000  1
  H  H129  1  0.28270000  0.92720000  0.93800000  1
  H  H130  1  0.29140000  0.16890000  0.78890000  1
  H  H131  1  0.29660000  0.20270000  0.94150000  1
  H  H132  1  0.29810000  0.80170000  0.42190000  1
  H  H133  1  0.29970000  0.81420000  0.99460000  1
  H  H134  1  0.30050000  0.08270000  0.01010000  1
  H  H135  1  0.30090000  0.44960000  0.94700000  1
  H  H136  1  0.30100000  0.03260000  0.26900000  1
  H  H137  1  0.30200000  0.84830000  0.72910000  1
  H  H138  1  0.30990000  0.51190000  0.56950000  1
  H  H139  1  0.31310000  0.20680000  0.28700000  1
  H  H140  1  0.31790000  0.85270000  0.23610000  1
  H  H141  1  0.33050000  0.22290000  0.85150000  1
  H  H142  1  0.33240000  0.71320000  0.97300000  1
  H  H143  1  0.33770000  0.41910000  0.10150000  1
  H  H144  1  0.33800000  0.72980000  0.40640000  1
  H  H145  1  0.33840000  0.23190000  0.90890000  1
  H  H146  1  0.34150000  0.16020000  0.30000000  1
  H  H147  1  0.34150000  0.78210000  0.79930000  1
  H  H148  1  0.34180000  0.79750000  0.04570000  1
  H  H149  1  0.34260000  0.17510000  0.92210000  1
  H  H150  1  0.34260000  0.44110000  0.87670000  1
  H  H151  1  0.34290000  0.94450000  0.30510000  1
  H  H152  1  0.34790000  0.88480000  0.19840000  1
  H  H153  1  0.34950000  0.08990000  0.14530000  1
  H  H154  1  0.35100000  0.14230000  0.12150000  1
  H  H155  1  0.35260000  0.46000000  0.78800000  1
  H  H156  1  0.35580000  0.11990000  0.82570000  1
  H  H157  1  0.35890000  0.76860000  0.95480000  1
  H  H158  1  0.35960000  0.87940000  0.86160000  1
  H  H159  1  0.36070000  0.32250000  0.14470000  1
  H  H160  1  0.37050000  0.93910000  0.07650000  1
  H  H161  1  0.37540000  0.22680000  0.23000000  1
  H  H162  1  0.37630000  0.34720000  0.53080000  1
  H  H163  1  0.37880000  0.00120000  0.16760000  1
  H  H164  1  0.37920000  0.70640000  0.68860000  1
  H  H165  1  0.38130000  0.97980000  0.27380000  1
  H  H166  1  0.38170000  0.34790000  0.21450000  1
  H  H167  1  0.38540000  0.81540000  0.77020000  1
  H  H168  1  0.38780000  0.64360000  0.74400000  1
  H  H169  1  0.38970000  0.44580000  0.71880000  1
  H  H170  1  0.38970000  0.65270000  0.65330000  1
  H  H171  1  0.39110000  0.67190000  0.41090000  1
  H  H172  1  0.39160000  0.57530000  0.40970000  1
  H  H173  1  0.39240000  0.17030000  0.89050000  1
  H  H174  1  0.39910000  0.81400000  0.58880000  1
  H  H175  1  0.40350000  0.17980000  0.24280000  1
  H  H176  1  0.40410000  0.86400000  0.68060000  1
  H  H177  1  0.40790000  0.32860000  0.34840000  1
  H  H178  1  0.40800000  0.70900000  0.08160000  1
  H  H179  1  0.40950000  0.92340000  0.12980000  1
  H  H180  1  0.41100000  0.90940000  0.83660000  1
  H  H181  1  0.41940000  0.19220000  0.79400000  1
  H  H182  1  0.42100000  0.04220000  0.14240000  1
  H  H183  1  0.42220000  0.08190000  0.01190000  1
  H  H184  1  0.42270000  0.43810000  0.64230000  1
  H  H185  1  0.43000000  0.28860000  0.55260000  1
  H  H186  1  0.43460000  0.04770000  0.95910000  1
  H  H187  1  0.43510000  0.83170000  0.90170000  1
  H  H188  1  0.44250000  0.79670000  0.63830000  1
  H  H189  1  0.44410000  0.91250000  0.66030000  1
  H  H190  1  0.44720000  0.92300000  0.96880000  1
  H  H191  1  0.44750000  0.41690000  0.15890000  1
  H  H192  1  0.45000000  0.70850000  0.78190000  1
  H  H193  1  0.45080000  0.08440000  0.27340000  1
  H  H194  1  0.45080000  0.51800000  0.42860000  1
  H  H195  1  0.45120000  0.96430000  0.10430000  1
  H  H196  1  0.45210000  0.71740000  0.69100000  1
  H  H197  1  0.45940000  0.60330000  0.80550000  1
  H  H198  1  0.45960000  0.96530000  0.35570000  1
  H  H199  1  0.46000000  0.23740000  0.86160000  1
  H  H200  1  0.46030000  0.60710000  0.71250000  1
  H  H201  1  0.47120000  0.43660000  0.22920000  1
  H  H202  1  0.47250000  0.92810000  0.45290000  1
  H  H203  1  0.47410000  0.11870000  0.99090000  1
  H  H204  1  0.47470000  0.95060000  0.78700000  1
  H  H205  1  0.47600000  0.33320000  0.15960000  1
  H  H206  1  0.47670000  0.13340000  0.81200000  1
  H  H207  1  0.47760000  0.32780000  0.25140000  1
  H  H208  1  0.48310000  0.13980000  0.56220000  1
  H  H209  1  0.48320000  0.00820000  0.23820000  1
  H  H210  1  0.48870000  0.86970000  0.88250000  1
  H  H211  1  0.49010000  0.24150000  0.57830000  1
  H  H212  1  0.49090000  0.83200000  0.11760000  1
  H  H213  1  0.49430000  0.12570000  0.24910000  1
  H  H214  1  0.49950000  0.07260000  0.40460000  1
  H  H215  1  0.49980000  0.96150000  0.94890000  1
  H  H216  1  0.50020000  0.03850000  0.05110000  1
  H  H217  1  0.50050000  0.92740000  0.59540000  1
  H  H218  1  0.50570000  0.87430000  0.75090000  1
  H  H219  1  0.50910000  0.16800000  0.88240000  1
  H  H220  1  0.50990000  0.75850000  0.42170000  1
  H  H221  1  0.51130000  0.13030000  0.11750000  1
  H  H222  1  0.51680000  0.99180000  0.76180000  1
  H  H223  1  0.51690000  0.86020000  0.43780000  1
  H  H224  1  0.52240000  0.67220000  0.74860000  1
  H  H225  1  0.52330000  0.86660000  0.18800000  1
  H  H226  1  0.52400000  0.66680000  0.84040000  1
  H  H227  1  0.52530000  0.04940000  0.21300000  1
  H  H228  1  0.52590000  0.88130000  0.00910000  1
  H  H229  1  0.52750000  0.07190000  0.54710000  1
  H  H230  1  0.52880000  0.56340000  0.77080000  1
  H  H231  1  0.53970000  0.39290000  0.28750000  1
  H  H232  1  0.54000000  0.76260000  0.13840000  1
  H  H233  1  0.54040000  0.03470000  0.64430000  1
  H  H234  1  0.54060000  0.39670000  0.19450000  1
  H  H235  1  0.54790000  0.28260000  0.30900000  1
  H  H236  1  0.54880000  0.03570000  0.89570000  1
  H  H237  1  0.54920000  0.48200000  0.57140000  1
  H  H238  1  0.54920000  0.91560000  0.72660000  1
  H  H239  1  0.55000000  0.29150000  0.21810000  1
  H  H240  1  0.55250000  0.58310000  0.84110000  1
  H  H241  1  0.55280000  0.07700000  0.03120000  1
  H  H242  1  0.55590000  0.08750000  0.33970000  1
  H  H243  1  0.55750000  0.20330000  0.36170000  1
  H  H244  1  0.56490000  0.16830000  0.09830000  1
  H  H245  1  0.56540000  0.95230000  0.04090000  1
  H  H246  1  0.57000000  0.71140000  0.44740000  1
  H  H247  1  0.57730000  0.56190000  0.35770000  1
  H  H248  1  0.57780000  0.91810000  0.98810000  1
  H  H249  1  0.57900000  0.95780000  0.85760000  1
  H  H250  1  0.58060000  0.80780000  0.20600000  1
  H  H251  1  0.58900000  0.09060000  0.16340000  1
  H  H252  1  0.59050000  0.07660000  0.87020000  1
  H  H253  1  0.59200000  0.29100000  0.91840000  1
  H  H254  1  0.59210000  0.67140000  0.65160000  1
  H  H255  1  0.59590000  0.13600000  0.31940000  1
  H  H256  1  0.59650000  0.82020000  0.75720000  1
  H  H257  1  0.60090000  0.18600000  0.41120000  1
  H  H258  1  0.60760000  0.82970000  0.10950000  1
  H  H259  1  0.60840000  0.42470000  0.59030000  1
  H  H260  1  0.60890000  0.32810000  0.58910000  1
  H  H261  1  0.61030000  0.34730000  0.34670000  1
  H  H262  1  0.61030000  0.55420000  0.28120000  1
  H  H263  1  0.61220000  0.35640000  0.25600000  1
  H  H264  1  0.61460000  0.18460000  0.22980000  1
  H  H265  1  0.61830000  0.65210000  0.78550000  1
  H  H266  1  0.61870000  0.02020000  0.72620000  1
  H  H267  1  0.62080000  0.29360000  0.31140000  1
  H  H268  1  0.62120000  0.99880000  0.83240000  1
  H  H269  1  0.62370000  0.65280000  0.46920000  1
  H  H270  1  0.62460000  0.77320000  0.77000000  1
  H  H271  1  0.62950000  0.06090000  0.92350000  1
  H  H272  1  0.63930000  0.67750000  0.85530000  1
  H  H273  1  0.64040000  0.12060000  0.13840000  1
  H  H274  1  0.64110000  0.23140000  0.04520000  1
  H  H275  1  0.64420000  0.88010000  0.17430000  1
  H  H276  1  0.64740000  0.54000000  0.21200000  1
  H  H277  1  0.64900000  0.85770000  0.87850000  1
  H  H278  1  0.65050000  0.91010000  0.85470000  1
  H  H279  1  0.65210000  0.11520000  0.80160000  1
  H  H280  1  0.65710000  0.05550000  0.69490000  1
  H  H281  1  0.65740000  0.55890000  0.12330000  1
  H  H282  1  0.65740000  0.82490000  0.07790000  1
  H  H283  1  0.65820000  0.20250000  0.95430000  1
  H  H284  1  0.65850000  0.21790000  0.20070000  1
  H  H285  1  0.65850000  0.83980000  0.70000000  1
  H  H286  1  0.66160000  0.76810000  0.09110000  1
  H  H287  1  0.66200000  0.27020000  0.59360000  1
  H  H288  1  0.66230000  0.58090000  0.89850000  1
  H  H289  1  0.66760000  0.28680000  0.02700000  1
  H  H290  1  0.66950000  0.77710000  0.14850000  1
  H  H291  1  0.68210000  0.14730000  0.76390000  1
  H  H292  1  0.68690000  0.79320000  0.71300000  1
  H  H293  1  0.69010000  0.48810000  0.43050000  1
  H  H294  1  0.69800000  0.15170000  0.27090000  1
  H  H295  1  0.69900000  0.96740000  0.73100000  1
  H  H296  1  0.69910000  0.55040000  0.05300000  1
  H  H297  1  0.69950000  0.91730000  0.98990000  1
  H  H298  1  0.70030000  0.18580000  0.00540000  1
  H  H299  1  0.70190000  0.19830000  0.57810000  1
  H  H300  1  0.70340000  0.79730000  0.05850000  1
  H  H301  1  0.70860000  0.83110000  0.21110000  1
  H  H302  1  0.71730000  0.07280000  0.06200000  1
  H  H303  1  0.71910000  0.27880000  0.08000000  1
  H  H304  1  0.71950000  0.97750000  0.04770000  1
  H  H305  1  0.72160000  0.48460000  0.26100000  1
  H  H306  1  0.72240000  0.05350000  0.81050000  1
  H  H307  1  0.72250000  0.89340000  0.81140000  1
  H  H308  1  0.72560000  0.47710000  0.35470000  1
  H  H309  1  0.72600000  0.89410000  0.55530000  1
  H  H310  1  0.72860000  0.84500000  0.83920000  1
  H  H311  1  0.73730000  0.21530000  0.90450000  1
  H  H312  1  0.73900000  0.00920000  0.70500000  1
  H  H313  1  0.73930000  0.45420000  0.18340000  1
  H  H314  1  0.74050000  0.30890000  0.27790000  1
  H  H315  1  0.74090000  0.18100000  0.23900000  1
  H  H316  1  0.74180000  0.97590000  0.93750000  1
  H  H317  1  0.74420000  0.88280000  0.98180000  1
  H  H318  1  0.75580000  0.01820000  0.11720000  1
  H  H319  1  0.75820000  0.06250000  0.02410000  1
  H  H320  1  0.75910000  0.76100000  0.81900000  1
  H  H321  1  0.75950000  0.72210000  0.69110000  1
  H  H322  1  0.76070000  0.81660000  0.54580000  1
  H  H323  1  0.76100000  0.29500000  0.99080000  1
  H  H324  1  0.76270000  0.09550000  0.78470000  1
  H  H325  1  0.77140000  0.16080000  0.15500000  1
  H  H326  1  0.77400000  0.44470000  0.10590000  1
  H  H327  1  0.77440000  0.64530000  0.52290000  1
  H  H328  1  0.77750000  0.18860000  0.10660000  1
  H  H329  1  0.77760000  0.18950000  0.94650000  1
  H  H330  1  0.77840000  0.73900000  0.51540000  1
  H  H331  1  0.78050000  0.95230000  0.02250000  1
  H  H332  1  0.78090000  0.92000000  0.72120000  1
  H  H333  1  0.78270000  0.93800000  0.92720000  1
  H  H334  1  0.79140000  0.78890000  0.16890000  1
  H  H335  1  0.79660000  0.94150000  0.20270000  1
  H  H336  1  0.79810000  0.42190000  0.80170000  1
  H  H337  1  0.79970000  0.99460000  0.81420000  1
  H  H338  1  0.80050000  0.01010000  0.08270000  1
  H  H339  1  0.80090000  0.94700000  0.44960000  1
  H  H340  1  0.80100000  0.26900000  0.03260000  1
  H  H341  1  0.80200000  0.72910000  0.84830000  1
  H  H342  1  0.80990000  0.56950000  0.51190000  1
  H  H343  1  0.81310000  0.28700000  0.20680000  1
  H  H344  1  0.81790000  0.23610000  0.85270000  1
  H  H345  1  0.83050000  0.85150000  0.22290000  1
  H  H346  1  0.83240000  0.97300000  0.71320000  1
  H  H347  1  0.83770000  0.10150000  0.41910000  1
  H  H348  1  0.83800000  0.40640000  0.72980000  1
  H  H349  1  0.83840000  0.90890000  0.23190000  1
  H  H350  1  0.84150000  0.30000000  0.16020000  1
  H  H351  1  0.84150000  0.79930000  0.78210000  1
  H  H352  1  0.84180000  0.04570000  0.79750000  1
  H  H353  1  0.84260000  0.87670000  0.44110000  1
  H  H354  1  0.84260000  0.92210000  0.17510000  1
  H  H355  1  0.84290000  0.30510000  0.94450000  1
  H  H356  1  0.84790000  0.19840000  0.88480000  1
  H  H357  1  0.84950000  0.14530000  0.08990000  1
  H  H358  1  0.85100000  0.12150000  0.14230000  1
  H  H359  1  0.85260000  0.78800000  0.46000000  1
  H  H360  1  0.85580000  0.82570000  0.11990000  1
  H  H361  1  0.85890000  0.95480000  0.76860000  1
  H  H362  1  0.85960000  0.86160000  0.87940000  1
  H  H363  1  0.86070000  0.14470000  0.32250000  1
  H  H364  1  0.87050000  0.07650000  0.93910000  1
  H  H365  1  0.87540000  0.23000000  0.22680000  1
  H  H366  1  0.87630000  0.53080000  0.34720000  1
  H  H367  1  0.87880000  0.16760000  0.00120000  1
  H  H368  1  0.87920000  0.68860000  0.70640000  1
  H  H369  1  0.88130000  0.27380000  0.97980000  1
  H  H370  1  0.88170000  0.21450000  0.34790000  1
  H  H371  1  0.88540000  0.77020000  0.81540000  1
  H  H372  1  0.88780000  0.74400000  0.64360000  1
  H  H373  1  0.88970000  0.65330000  0.65270000  1
  H  H374  1  0.88970000  0.71880000  0.44580000  1
  H  H375  1  0.89110000  0.41090000  0.67190000  1
  H  H376  1  0.89160000  0.40970000  0.57530000  1
  H  H377  1  0.89240000  0.89050000  0.17030000  1
  H  H378  1  0.89910000  0.58880000  0.81400000  1
  H  H379  1  0.90350000  0.24280000  0.17980000  1
  H  H380  1  0.90410000  0.68060000  0.86400000  1
  H  H381  1  0.90790000  0.34840000  0.32860000  1
  H  H382  1  0.90800000  0.08160000  0.70900000  1
  H  H383  1  0.90950000  0.12980000  0.92340000  1
  H  H384  1  0.91100000  0.83660000  0.90940000  1
  H  H385  1  0.91940000  0.79400000  0.19220000  1
  H  H386  1  0.92100000  0.14240000  0.04220000  1
  H  H387  1  0.92220000  0.01190000  0.08190000  1
  H  H388  1  0.92270000  0.64230000  0.43810000  1
  H  H389  1  0.93000000  0.55260000  0.28860000  1
  H  H390  1  0.93460000  0.95910000  0.04770000  1
  H  H391  1  0.93510000  0.90170000  0.83170000  1
  H  H392  1  0.94250000  0.63830000  0.79670000  1
  H  H393  1  0.94410000  0.66030000  0.91250000  1
  H  H394  1  0.94720000  0.96880000  0.92300000  1
  H  H395  1  0.94750000  0.15890000  0.41690000  1
  H  H396  1  0.95000000  0.78190000  0.70850000  1
  H  H397  1  0.95080000  0.27340000  0.08440000  1
  H  H398  1  0.95080000  0.42860000  0.51800000  1
  H  H399  1  0.95120000  0.10430000  0.96430000  1
  H  H400  1  0.95210000  0.69100000  0.71740000  1
  H  H401  1  0.95940000  0.80550000  0.60330000  1
  H  H402  1  0.95960000  0.35570000  0.96530000  1
  H  H403  1  0.96000000  0.86160000  0.23740000  1
  H  H404  1  0.96030000  0.71250000  0.60710000  1
  H  H405  1  0.97120000  0.22920000  0.43660000  1
  H  H406  1  0.97250000  0.45290000  0.92810000  1
  H  H407  1  0.97410000  0.99090000  0.11870000  1
  H  H408  1  0.97470000  0.78700000  0.95060000  1
  H  H409  1  0.97600000  0.15960000  0.33320000  1
  H  H410  1  0.97670000  0.81200000  0.13340000  1
  H  H411  1  0.97760000  0.25140000  0.32780000  1
  H  H412  1  0.98310000  0.56220000  0.13980000  1
  H  H413  1  0.98320000  0.23820000  0.00820000  1
  H  H414  1  0.98870000  0.88250000  0.86970000  1
  H  H415  1  0.99010000  0.57830000  0.24150000  1
  H  H416  1  0.99090000  0.11760000  0.83200000  1
  H  H417  1  0.99430000  0.24910000  0.12570000  1
  H  H418  1  0.99950000  0.40460000  0.07260000  1
  H  H419  1  0.99980000  0.94890000  0.96150000  1
  C  C420  1  0.00010000  0.58948000  0.65312000  1
  C  C421  1  0.00030000  0.60780000  0.84878000  1
  C  C422  1  0.00110000  0.80490000  0.62950000  1
  C  C423  1  0.00450000  0.15650000  0.82750000  1
  C  C424  1  0.00830000  0.73377000  0.90523000  1
  C  C425  1  0.01520000  0.77920000  0.96120000  1
  C  C426  1  0.01750000  0.04510000  0.07610000  1
  C  C427  1  0.01870000  0.25180000  0.35600000  1
  C  C428  1  0.02200000  0.59486000  0.90176000  1
  C  C429  1  0.02480000  0.56660000  0.44218000  1
  C  C430  1  0.02640000  0.57281000  0.34907000  1
  C  C431  1  0.02740000  0.56445000  0.15279000  1
  C  C432  1  0.03040000  0.66525000  0.06355000  1
  C  C433  1  0.03060000  0.35828000  0.93190000  1
  C  C434  1  0.03360000  0.57880000  0.25530000  1
  C  C435  1  0.03650000  0.60966000  0.76206000  1
  C  C436  1  0.04110000  0.60364000  0.81938000  1
  C  C437  1  0.04160000  0.43607000  0.41455000  1
  C  C438  1  0.04410000  0.00310000  0.91830000  1
  C  C439  1  0.04450000  0.44440000  0.67260000  1
  C  C440  1  0.04710000  0.10430000  0.13090000  1
  C  C441  1  0.04900000  0.80860000  0.59800000  1
  C  C442  1  0.04940000  0.74436000  0.14484000  1
  C  C443  1  0.05470000  0.55581000  0.11237000  1
  C  C444  1  0.05490000  0.32594000  0.12026000  1
  C  C445  1  0.05730000  0.84241000  0.21439000  1
  C  C446  1  0.05760000  0.37524000  0.17036000  1
  C  C447  1  0.06100000  0.57852000  0.40796000  1
  C  C448  1  0.06230000  0.16450000  0.80530000  1
  C  C449  1  0.06250000  0.58133000  0.31169000  1
  C  C450  1  0.06410000  0.63192000  0.68728000  1
  C  C451  1  0.06610000  0.57669000  0.21341000  1
  C  C452  1  0.07050000  0.25450000  0.32770000  1
  C  C453  1  0.07610000  0.45656000  0.63672000  1
  C  C454  1  0.07650000  0.72488000  0.10740000  1
  C  C455  1  0.07690000  0.58159000  0.91165000  1
  C  C456  1  0.08060000  0.84020000  0.98840000  1
  C  C457  1  0.08190000  0.80101000  0.19937000  1
  C  C458  1  0.08680000  0.64521000  0.75119000  1
  C  C459  1  0.08810000  0.88690000  0.04590000  1
  C  C460  1  0.08900000  0.41915000  0.96879000  1
  C  C461  1  0.08910000  0.31070000  0.31130000  1
  C  C462  1  0.10090000  0.88683000  0.27363000  1
  C  C463  1  0.10820000  0.15420000  0.12580000  1
  C  C464  1  0.10820000  0.35750000  0.54510000  1
  C  C465  1  0.11320000  0.56453000  0.96023000  1
  C  C466  1  0.12170000  0.82010000  0.64070000  1
  C  C467  1  0.12580000  0.15240000  0.83680000  1
  C  C468  1  0.12740000  0.31117000  0.54043000  1
  C  C469  1  0.13300000  0.58307000  0.22973000  1
  C  C470  1  0.13610000  0.76380000  0.81120000  1
  C  C471  1  0.14580000  0.21150000  0.18270000  1
  C  C472  1  0.14650000  0.76078000  0.11104000  1
  C  C473  1  0.14690000  0.70580000  0.80160000  1
  C  C474  1  0.15680000  0.57395000  0.18645000  1
  C  C475  1  0.15730000  0.73376000  0.05684000  1
  C  C476  1  0.15770000  0.87851000  0.30299000  1
  C  C477  1  0.17240000  0.30948000  0.51492000  1
  C  C478  1  0.17400000  0.40013000  0.50183000  1
  C  C479  1  0.17640000  0.21398000  0.52082000  1
  C  C480  1  0.17660000  0.83187000  0.61195000  1
  C  C481  1  0.17780000  0.87050000  0.88990000  1
  C  C482  1  0.17930000  0.04120000  0.25780000  1
  C  C483  1  0.18360000  0.12256000  0.53724000  1
  C  C484  1  0.18360000  0.87261000  0.58107000  1
  C  C485  1  0.18450000  0.58534000  0.61566000  1
  C  C486  1  0.18700000  0.08870000  0.80550000  1
  C  C487  1  0.18840000  0.16770000  0.82090000  1
  C  C488  1  0.19350000  0.25942000  0.50458000  1
  C  C489  1  0.19560000  0.35467000  0.49497000  1
  C  C490  1  0.19600000  0.99469000  0.21931000  1
  C  C491  1  0.19750000  0.82190000  0.86150000  1
  C  C492  1  0.19840000  0.16507000  0.51193000  1
  C  C493  1  0.20400000  0.65106000  0.63108000  1
  C  C494  1  0.20720000  0.07948000  0.53052000  1
  C  C495  1  0.21110000  0.25825000  0.18555000  1
  C  C496  1  0.21340000  0.91492000  0.36564000  1
  C  C497  1  0.21370000  0.79942000  0.60550000  1
  C  C498  1  0.21740000  0.75148000  0.62734000  1
  C  C499  1  0.22390000  0.87008000  0.55222000  1
  C  C500  1  0.22430000  0.77343000  0.05697000  1
  C  C501  1  0.23110000  0.15774000  0.47486000  1
  C  C502  1  0.23750000  0.74215000  0.00585000  1
  C  C503  1  0.24070000  0.69708000  0.68652000  1
  C  C504  1  0.24090000  0.93080000  0.93600000  1
  C  C505  1  0.24100000  0.98650000  0.92070000  1
  C  C506  1  0.24540000  0.90647000  0.51835000  1
  C  C507  1  0.24820000  0.53069000  0.88931000  1
  C  C508  1  0.24840000  0.75549000  0.68579000  1
  C  C509  1  0.25000000  0.15170000  0.84830000  1
  C  C510  1  0.25160000  0.31421000  0.24451000  1
  C  C511  1  0.25180000  0.11069000  0.46931000  1
  C  C512  1  0.25460000  0.48165000  0.09353000  1
  C  C513  1  0.25900000  0.07930000  0.01350000  1
  C  C514  1  0.25910000  0.06400000  0.06920000  1
  C  C515  1  0.25930000  0.31348000  0.30292000  1
  C  C516  1  0.26250000  0.99415000  0.25785000  1
  C  C517  1  0.26890000  0.52514000  0.84226000  1
  C  C518  1  0.27570000  0.94303000  0.22657000  1
  C  C519  1  0.27610000  0.44778000  0.12992000  1
  C  C520  1  0.28260000  0.37266000  0.24852000  1
  C  C521  1  0.28630000  0.39450000  0.20058000  1
  C  C522  1  0.28660000  0.63436000  0.08508000  1
  C  C523  1  0.28890000  0.81445000  0.74175000  1
  C  C524  1  0.29280000  0.46948000  0.92052000  1
  C  C525  1  0.29600000  0.36892000  0.34894000  1
  C  C526  1  0.30160000  0.48807000  0.83493000  1
  C  C527  1  0.30250000  0.13850000  0.17810000  1
  C  C528  1  0.30400000  0.78069000  0.00531000  1
  C  C529  1  0.30440000  0.50503000  0.64533000  1
  C  C530  1  0.30650000  0.49542000  0.74058000  1
  C  C531  1  0.31160000  0.17910000  0.83230000  1
  C  C532  1  0.31300000  0.19450000  0.91130000  1
  C  C533  1  0.31550000  0.38434000  0.41466000  1
  C  C534  1  0.31640000  0.41893000  0.12739000  1
  C  C535  1  0.31640000  0.46276000  0.87744000  1
  C  C536  1  0.32070000  0.74220000  0.95880000  1
  C  C537  1  0.32220000  0.11010000  0.12950000  1
  C  C538  1  0.32340000  0.38805000  0.16813000  1
  C  C539  1  0.32360000  0.47918000  0.78602000  1
  C  C540  1  0.32600000  0.49817000  0.59987000  1
  C  C541  1  0.32760000  0.48508000  0.69052000  1
  C  C542  1  0.34230000  0.69701000  0.12149000  1
  C  C543  1  0.34270000  0.94316000  0.26624000  1
  C  C544  1  0.34320000  0.81355000  0.42605000  1
  C  C545  1  0.35310000  0.19840000  0.29420000  1
  C  C546  1  0.35350000  0.88896000  0.23922000  1
  C  C547  1  0.35420000  0.81730000  0.78850000  1
  C  C548  1  0.36390000  0.18880000  0.23620000  1
  C  C549  1  0.36700000  0.77027000  0.41693000  1
  C  C550  1  0.37260000  0.45957000  0.68883000  1
  C  C551  1  0.37420000  0.16320000  0.84760000  1
  C  C552  1  0.37830000  0.35930000  0.17990000  1
  C  C553  1  0.38680000  0.03977000  0.43547000  1
  C  C554  1  0.39180000  0.45490000  0.64250000  1
  C  C555  1  0.39180000  0.87420000  0.84580000  1
  C  C556  1  0.39910000  0.72637000  0.11317000  1
  C  C557  1  0.41090000  0.68870000  0.68930000  1
  C  C558  1  0.41100000  0.03121000  0.58085000  1
  C  C559  1  0.41190000  0.95410000  0.11310000  1
  C  C560  1  0.41320000  0.24881000  0.35479000  1
  C  C561  1  0.41810000  0.80063000  0.19899000  1
  C  C562  1  0.41940000  0.01160000  0.15980000  1
  C  C563  1  0.42310000  0.08835000  0.41841000  1
  C  C564  1  0.42350000  0.89260000  0.27512000  1
  C  C565  1  0.42390000  0.36328000  0.54344000  1
  C  C566  1  0.42950000  0.67230000  0.74550000  1
  C  C567  1  0.43390000  0.78659000  0.42331000  1
  C  C568  1  0.43590000  0.31272000  0.36808000  1
  C  C569  1  0.43750000  0.68831000  0.41867000  1
  C  C570  1  0.43770000  0.19470000  0.83550000  1
  C  C571  1  0.43900000  0.59204000  0.42148000  1
  C  C572  1  0.44240000  0.82964000  0.62476000  1
  C  C573  1  0.44270000  0.78561000  0.15759000  1
  C  C574  1  0.44510000  0.87974000  0.67406000  1
  C  C575  1  0.44530000  0.88763000  0.44419000  1
  C  C576  1  0.45060000  0.85516000  0.25564000  1
  C  C577  1  0.45100000  0.40200000  0.19140000  1
  C  C578  1  0.45290000  0.86910000  0.89570000  1
  C  C579  1  0.45550000  0.32740000  0.55560000  1
  C  C580  1  0.45590000  0.08170000  0.99690000  1
  C  C581  1  0.45840000  0.58545000  0.56393000  1
  C  C582  1  0.45890000  0.18062000  0.39636000  1
  C  C583  1  0.46350000  0.23794000  0.39034000  1
  C  C584  1  0.46640000  0.74470000  0.42120000  1
  C  C585  1  0.46940000  0.06810000  0.64172000  1
  C  C586  1  0.46960000  0.93645000  0.33475000  1
  C  C587  1  0.47260000  0.84721000  0.43555000  1
  C  C588  1  0.47360000  0.65093000  0.42719000  1
  C  C589  1  0.47520000  0.55782000  0.43340000  1
  C  C590  1  0.47800000  0.09824000  0.40514000  1
  C  C591  1  0.48130000  0.64400000  0.74820000  1
  C  C592  1  0.48250000  0.92390000  0.95490000  1
  C  C593  1  0.48480000  0.03880000  0.22080000  1
  C  C594  1  0.49170000  0.09477000  0.26623000  1
  C  C595  1  0.49550000  0.17250000  0.84350000  1
  C  C596  1  0.49890000  0.37050000  0.19510000  1
  C  C597  1  0.49970000  0.15122000  0.39220000  1
  C  C598  1  0.49990000  0.34688000  0.41052000  1
  C  C599  1  0.50010000  0.65312000  0.58948000  1
  C  C600  1  0.50030000  0.84878000  0.60780000  1
  C  C601  1  0.50110000  0.62950000  0.80490000  1
  C  C602  1  0.50450000  0.82750000  0.15650000  1
  C  C603  1  0.50830000  0.90523000  0.73377000  1
  C  C604  1  0.51520000  0.96120000  0.77920000  1
  C  C605  1  0.51750000  0.07610000  0.04510000  1
  C  C606  1  0.51870000  0.35600000  0.25180000  1
  C  C607  1  0.52200000  0.90176000  0.59486000  1
  C  C608  1  0.52480000  0.44218000  0.56660000  1
  C  C609  1  0.52640000  0.34907000  0.57281000  1
  C  C610  1  0.52740000  0.15279000  0.56445000  1
  C  C611  1  0.53040000  0.06355000  0.66525000  1
  C  C612  1  0.53060000  0.93190000  0.35828000  1
  C  C613  1  0.53360000  0.25530000  0.57880000  1
  C  C614  1  0.53650000  0.76206000  0.60966000  1
  C  C615  1  0.54110000  0.81938000  0.60364000  1
  C  C616  1  0.54160000  0.41455000  0.43607000  1
  C  C617  1  0.54410000  0.91830000  0.00310000  1
  C  C618  1  0.54450000  0.67260000  0.44440000  1
  C  C619  1  0.54710000  0.13090000  0.10430000  1
  C  C620  1  0.54900000  0.59800000  0.80860000  1
  C  C621  1  0.54940000  0.14484000  0.74436000  1
  C  C622  1  0.55470000  0.11237000  0.55581000  1
  C  C623  1  0.55490000  0.12026000  0.32594000  1
  C  C624  1  0.55730000  0.21439000  0.84241000  1
  C  C625  1  0.55760000  0.17036000  0.37524000  1
  C  C626  1  0.56100000  0.40796000  0.57852000  1
  C  C627  1  0.56230000  0.80530000  0.16450000  1
  C  C628  1  0.56250000  0.31169000  0.58133000  1
  C  C629  1  0.56410000  0.68728000  0.63192000  1
  C  C630  1  0.56610000  0.21341000  0.57669000  1
  C  C631  1  0.57050000  0.32770000  0.25450000  1
  C  C632  1  0.57610000  0.63672000  0.45656000  1
  C  C633  1  0.57650000  0.10740000  0.72488000  1
  C  C634  1  0.57690000  0.91165000  0.58159000  1
  C  C635  1  0.58060000  0.98840000  0.84020000  1
  C  C636  1  0.58190000  0.19937000  0.80101000  1
  C  C637  1  0.58680000  0.75119000  0.64521000  1
  C  C638  1  0.58810000  0.04590000  0.88690000  1
  C  C639  1  0.58900000  0.96879000  0.41915000  1
  C  C640  1  0.58910000  0.31130000  0.31070000  1
  C  C641  1  0.60090000  0.27363000  0.88683000  1
  C  C642  1  0.60820000  0.12580000  0.15420000  1
  C  C643  1  0.60820000  0.54510000  0.35750000  1
  C  C644  1  0.61320000  0.96023000  0.56453000  1
  C  C645  1  0.62170000  0.64070000  0.82010000  1
  C  C646  1  0.62580000  0.83680000  0.15240000  1
  C  C647  1  0.62740000  0.54043000  0.31117000  1
  C  C648  1  0.63300000  0.22973000  0.58307000  1
  C  C649  1  0.63610000  0.81120000  0.76380000  1
  C  C650  1  0.64580000  0.18270000  0.21150000  1
  C  C651  1  0.64650000  0.11104000  0.76078000  1
  C  C652  1  0.64690000  0.80160000  0.70580000  1
  C  C653  1  0.65680000  0.18645000  0.57395000  1
  C  C654  1  0.65730000  0.05684000  0.73376000  1
  C  C655  1  0.65770000  0.30299000  0.87851000  1
  C  C656  1  0.67240000  0.51492000  0.30948000  1
  C  C657  1  0.67400000  0.50183000  0.40013000  1
  C  C658  1  0.67640000  0.52082000  0.21398000  1
  C  C659  1  0.67660000  0.61195000  0.83187000  1
  C  C660  1  0.67780000  0.88990000  0.87050000  1
  C  C661  1  0.67930000  0.25780000  0.04120000  1
  C  C662  1  0.68360000  0.53724000  0.12256000  1
  C  C663  1  0.68360000  0.58107000  0.87261000  1
  C  C664  1  0.68450000  0.61566000  0.58534000  1
  C  C665  1  0.68700000  0.80550000  0.08870000  1
  C  C666  1  0.68840000  0.82090000  0.16770000  1
  C  C667  1  0.69350000  0.50458000  0.25942000  1
  C  C668  1  0.69560000  0.49497000  0.35467000  1
  C  C669  1  0.69600000  0.21931000  0.99469000  1
  C  C670  1  0.69750000  0.86150000  0.82190000  1
  C  C671  1  0.69840000  0.51193000  0.16507000  1
  C  C672  1  0.70400000  0.63108000  0.65106000  1
  C  C673  1  0.70720000  0.53052000  0.07948000  1
  C  C674  1  0.71110000  0.18555000  0.25825000  1
  C  C675  1  0.71340000  0.36564000  0.91492000  1
  C  C676  1  0.71370000  0.60550000  0.79942000  1
  C  C677  1  0.71740000  0.62734000  0.75148000  1
  C  C678  1  0.72390000  0.55222000  0.87008000  1
  C  C679  1  0.72430000  0.05697000  0.77343000  1
  C  C680  1  0.73110000  0.47486000  0.15774000  1
  C  C681  1  0.73750000  0.00585000  0.74215000  1
  C  C682  1  0.74070000  0.68652000  0.69708000  1
  C  C683  1  0.74090000  0.93600000  0.93080000  1
  C  C684  1  0.74100000  0.92070000  0.98650000  1
  C  C685  1  0.74540000  0.51835000  0.90647000  1
  C  C686  1  0.74820000  0.88931000  0.53069000  1
  C  C687  1  0.74840000  0.68579000  0.75549000  1
  C  C688  1  0.75000000  0.84830000  0.15170000  1
  C  C689  1  0.75160000  0.24451000  0.31421000  1
  C  C690  1  0.75180000  0.46931000  0.11069000  1
  C  C691  1  0.75460000  0.09353000  0.48165000  1
  C  C692  1  0.75900000  0.01350000  0.07930000  1
  C  C693  1  0.75910000  0.06920000  0.06400000  1
  C  C694  1  0.75930000  0.30292000  0.31348000  1
  C  C695  1  0.76250000  0.25785000  0.99415000  1
  C  C696  1  0.76890000  0.84226000  0.52514000  1
  C  C697  1  0.77570000  0.22657000  0.94303000  1
  C  C698  1  0.77610000  0.12992000  0.44778000  1
  C  C699  1  0.78260000  0.24852000  0.37266000  1
  C  C700  1  0.78630000  0.20058000  0.39450000  1
  C  C701  1  0.78660000  0.08508000  0.63436000  1
  C  C702  1  0.78890000  0.74175000  0.81445000  1
  C  C703  1  0.79280000  0.92052000  0.46948000  1
  C  C704  1  0.79600000  0.34894000  0.36892000  1
  C  C705  1  0.80160000  0.83493000  0.48807000  1
  C  C706  1  0.80250000  0.17810000  0.13850000  1
  C  C707  1  0.80400000  0.00531000  0.78069000  1
  C  C708  1  0.80440000  0.64533000  0.50503000  1
  C  C709  1  0.80650000  0.74058000  0.49542000  1
  C  C710  1  0.81160000  0.83230000  0.17910000  1
  C  C711  1  0.81300000  0.91130000  0.19450000  1
  C  C712  1  0.81550000  0.41466000  0.38434000  1
  C  C713  1  0.81640000  0.12739000  0.41893000  1
  C  C714  1  0.81640000  0.87744000  0.46276000  1
  C  C715  1  0.82070000  0.95880000  0.74220000  1
  C  C716  1  0.82220000  0.12950000  0.11010000  1
  C  C717  1  0.82340000  0.16813000  0.38805000  1
  C  C718  1  0.82360000  0.78602000  0.47918000  1
  C  C719  1  0.82600000  0.59987000  0.49817000  1
  C  C720  1  0.82760000  0.69052000  0.48508000  1
  C  C721  1  0.84230000  0.12149000  0.69701000  1
  C  C722  1  0.84270000  0.26624000  0.94316000  1
  C  C723  1  0.84320000  0.42605000  0.81355000  1
  C  C724  1  0.85310000  0.29420000  0.19840000  1
  C  C725  1  0.85350000  0.23922000  0.88896000  1
  C  C726  1  0.85420000  0.78850000  0.81730000  1
  C  C727  1  0.86390000  0.23620000  0.18880000  1
  C  C728  1  0.86700000  0.41693000  0.77027000  1
  C  C729  1  0.87260000  0.68883000  0.45957000  1
  C  C730  1  0.87420000  0.84760000  0.16320000  1
  C  C731  1  0.87830000  0.17990000  0.35930000  1
  C  C732  1  0.88680000  0.43547000  0.03977000  1
  C  C733  1  0.89180000  0.64250000  0.45490000  1
  C  C734  1  0.89180000  0.84580000  0.87420000  1
  C  C735  1  0.89910000  0.11317000  0.72637000  1
  C  C736  1  0.91090000  0.68930000  0.68870000  1
  C  C737  1  0.91100000  0.58085000  0.03121000  1
  C  C738  1  0.91190000  0.11310000  0.95410000  1
  C  C739  1  0.91320000  0.35479000  0.24881000  1
  C  C740  1  0.91810000  0.19899000  0.80063000  1
  C  C741  1  0.91940000  0.15980000  0.01160000  1
  C  C742  1  0.92310000  0.41841000  0.08835000  1
  C  C743  1  0.92350000  0.27512000  0.89260000  1
  C  C744  1  0.92390000  0.54344000  0.36328000  1
  C  C745  1  0.92950000  0.74550000  0.67230000  1
  C  C746  1  0.93390000  0.42331000  0.78659000  1
  C  C747  1  0.93590000  0.36808000  0.31272000  1
  C  C748  1  0.93750000  0.41867000  0.68831000  1
  C  C749  1  0.93770000  0.83550000  0.19470000  1
  C  C750  1  0.93900000  0.42148000  0.59204000  1
  C  C751  1  0.94240000  0.62476000  0.82964000  1
  C  C752  1  0.94270000  0.15759000  0.78561000  1
  C  C753  1  0.94510000  0.67406000  0.87974000  1
  C  C754  1  0.94530000  0.44419000  0.88763000  1
  C  C755  1  0.95060000  0.25564000  0.85516000  1
  C  C756  1  0.95100000  0.19140000  0.40200000  1
  C  C757  1  0.95290000  0.89570000  0.86910000  1
  C  C758  1  0.95550000  0.55560000  0.32740000  1
  C  C759  1  0.95590000  0.99690000  0.08170000  1
  C  C760  1  0.95840000  0.56393000  0.58545000  1
  C  C761  1  0.95890000  0.39636000  0.18062000  1
  C  C762  1  0.96350000  0.39034000  0.23794000  1
  C  C763  1  0.96640000  0.42120000  0.74470000  1
  C  C764  1  0.96940000  0.64172000  0.06810000  1
  C  C765  1  0.96960000  0.33475000  0.93645000  1
  C  C766  1  0.97260000  0.43555000  0.84721000  1
  C  C767  1  0.97360000  0.42719000  0.65093000  1
  C  C768  1  0.97520000  0.43340000  0.55782000  1
  C  C769  1  0.97800000  0.40514000  0.09824000  1
  C  C770  1  0.98130000  0.74820000  0.64400000  1
  C  C771  1  0.98250000  0.95490000  0.92390000  1
  C  C772  1  0.98480000  0.22080000  0.03880000  1
  C  C773  1  0.99170000  0.26623000  0.09477000  1
  C  C774  1  0.99550000  0.84350000  0.17250000  1
  C  C775  1  0.99890000  0.19510000  0.37050000  1
  C  C776  1  0.99970000  0.39220000  0.15122000  1
  C  C777  1  0.99990000  0.41052000  0.34688000  1
  S  S778  1  0.03168000  0.30903000  0.87295000  1
  S  S779  1  0.03787000  0.43563000  0.30343000  1
  S  S780  1  0.10323000  0.58277000  0.85535000  1
  S  S781  1  0.15802000  0.81616000  0.25804000  1
  S  S782  1  0.17879000  0.67781000  0.57547000  1
  S  S783  1  0.24543000  0.43895000  0.18281000  1
  S  S784  1  0.25457000  0.81719000  0.56105000  1
  S  S785  1  0.32121000  0.42453000  0.32219000  1
  S  S786  1  0.34198000  0.74196000  0.18384000  1
  S  S787  1  0.39677000  0.14465000  0.41723000  1
  S  S788  1  0.46213000  0.69657000  0.56437000  1
  S  S789  1  0.46832000  0.12705000  0.69097000  1
  S  S790  1  0.53168000  0.87295000  0.30903000  1
  S  S791  1  0.53787000  0.30343000  0.43563000  1
  S  S792  1  0.60323000  0.85535000  0.58277000  1
  S  S793  1  0.65802000  0.25804000  0.81616000  1
  S  S794  1  0.67879000  0.57547000  0.67781000  1
  S  S795  1  0.74543000  0.18281000  0.43895000  1
  S  S796  1  0.75457000  0.56105000  0.81719000  1
  S  S797  1  0.82121000  0.32219000  0.42453000  1
  S  S798  1  0.84198000  0.18384000  0.74196000  1
  S  S799  1  0.89677000  0.41723000  0.14465000  1
  S  S800  1  0.96213000  0.56437000  0.69657000  1
  S  S801  1  0.96832000  0.69097000  0.12705000  1
  N  N802  1  0.04340000  0.45156000  0.57982000  1
  N  N803  1  0.11750000  0.55922000  0.12760000  1
  N  N804  1  0.13130000  0.40263000  0.52703000  1
  N  N805  1  0.24110000  0.07299000  0.49745000  1
  N  N806  1  0.25890000  0.50255000  0.92701000  1
  N  N807  1  0.36870000  0.47297000  0.59737000  1
  N  N808  1  0.38250000  0.87240000  0.44078000  1
  N  N809  1  0.45660000  0.42018000  0.54844000  1
  N  N810  1  0.54340000  0.57982000  0.45156000  1
  N  N811  1  0.61750000  0.12760000  0.55922000  1
  N  N812  1  0.63130000  0.52703000  0.40263000  1
  N  N813  1  0.74110000  0.49745000  0.07299000  1
  N  N814  1  0.75890000  0.92701000  0.50255000  1
  N  N815  1  0.86870000  0.59737000  0.47297000  1
  N  N816  1  0.88250000  0.44078000  0.87240000  1
  N  N817  1  0.95660000  0.54844000  0.42018000  1
  O  O818  1  0.00942000  0.42624000  0.44550000  1
  O  O819  1  0.08359000  0.45427000  0.00965000  1
  O  O820  1  0.09740000  0.56814000  0.00370000  1
  O  O821  1  0.10540000  0.46535000  0.43599000  1
  O  O822  1  0.13973000  0.43125000  0.95603000  1
  O  O823  1  0.14830000  0.55292000  0.55858000  1
  O  O824  1  0.15752000  0.54729000  0.95373000  1
  O  O825  1  0.20229000  0.56624000  0.65574000  1
  O  O826  1  0.20576000  0.95558000  0.39910000  1
  O  O827  1  0.21709000  0.50520000  0.10596000  1
  O  O828  1  0.22674000  0.94822000  0.51668000  1
  O  O829  1  0.23665000  0.62058000  0.09904000  1
  O  O830  1  0.26335000  0.90096000  0.37942000  1
  O  O831  1  0.27326000  0.48332000  0.05178000  1
  O  O832  1  0.28291000  0.89404000  0.49480000  1
  O  O833  1  0.29424000  0.60090000  0.04442000  1
  O  O834  1  0.29771000  0.34426000  0.43376000  1
  O  O835  1  0.34248000  0.04627000  0.45271000  1
  O  O836  1  0.35170000  0.44142000  0.44708000  1
  O  O837  1  0.36027000  0.04397000  0.56875000  1
  O  O838  1  0.39460000  0.56401000  0.53465000  1
  O  O839  1  0.40260000  0.99630000  0.43186000  1
  O  O840  1  0.41641000  0.99035000  0.54573000  1
  O  O841  1  0.49058000  0.55450000  0.57376000  1
  O  O842  1  0.50942000  0.44550000  0.42624000  1
  O  O843  1  0.58359000  0.00965000  0.45427000  1
  O  O844  1  0.59740000  0.00370000  0.56814000  1
  O  O845  1  0.60540000  0.43599000  0.46535000  1
  O  O846  1  0.63973000  0.95603000  0.43125000  1
  O  O847  1  0.64830000  0.55858000  0.55292000  1
  O  O848  1  0.65752000  0.95373000  0.54729000  1
  O  O849  1  0.70229000  0.65574000  0.56624000  1
  O  O850  1  0.70576000  0.39910000  0.95558000  1
  O  O851  1  0.71709000  0.10596000  0.50520000  1
  O  O852  1  0.72674000  0.51668000  0.94822000  1
  O  O853  1  0.73665000  0.09904000  0.62058000  1
  O  O854  1  0.76335000  0.37942000  0.90096000  1
  O  O855  1  0.77326000  0.05178000  0.48332000  1
  O  O856  1  0.78291000  0.49480000  0.89404000  1
  O  O857  1  0.79424000  0.04442000  0.60090000  1
  O  O858  1  0.79771000  0.43376000  0.34426000  1
  O  O859  1  0.84248000  0.45271000  0.04627000  1
  O  O860  1  0.85170000  0.44708000  0.44142000  1
  O  O861  1  0.86027000  0.56875000  0.04397000  1
  O  O862  1  0.89460000  0.53465000  0.56401000  1
  O  O863  1  0.90260000  0.43186000  0.99630000  1
  O  O864  1  0.91641000  0.54573000  0.99035000  1
  O  O865  1  0.99058000  0.57376000  0.55450000  1
