# generated using pymatgen
data_PrH14C9NO8
_symmetry_space_group_name_H-M   'P 1'
_cell_length_a   12.51400000
_cell_length_b   15.76700000
_cell_length_c   16.17100000
_cell_angle_alpha   114.13000000
_cell_angle_beta   104.06000000
_cell_angle_gamma   103.72000000
_symmetry_Int_Tables_number   1
_chemical_formula_structural   PrH14C9NO8
_chemical_formula_sum   'Pr6 H84 C54 N6 O48'
_cell_volume   2612.63852899
_cell_formula_units_Z   6
loop_
 _symmetry_equiv_pos_site_id
 _symmetry_equiv_pos_as_xyz
  1  'x, y, z'
loop_
 _atom_site_type_symbol
 _atom_site_label
 _atom_site_symmetry_multiplicity
 _atom_site_fract_x
 _atom_site_fract_y
 _atom_site_fract_z
 _atom_site_occupancy
  Pr  Pr0  1  0.00281000  0.02366000  0.63432000  1
  Pr  Pr1  1  0.13137000  0.63678000  0.09788000  1
  Pr  Pr2  1  0.46559000  0.10626000  0.96813000  1
  Pr  Pr3  1  0.53441000  0.89374000  0.03187000  1
  Pr  Pr4  1  0.86863000  0.36322000  0.90212000  1
  Pr  Pr5  1  0.99719000  0.97634000  0.36568000  1
  H  H6  1  0.00300000  0.06640000  0.90600000  1
  H  H7  1  0.02660000  0.29090000  0.20970000  1
  H  H8  1  0.04720000  0.86270000  0.87410000  1
  H  H9  1  0.06380000  0.92430000  0.98400000  1
  H  H10  1  0.09030000  0.43230000  0.26440000  1
  H  H11  1  0.09170000  0.35990000  0.65220000  1
  H  H12  1  0.10000000  0.34850000  0.81800000  1
  H  H13  1  0.11060000  0.33510000  0.55370000  1
  H  H14  1  0.11930000  0.12200000  0.89950000  1
  H  H15  1  0.14530000  0.16750000  0.06280000  1
  H  H16  1  0.15090000  0.30410000  0.20310000  1
  H  H17  1  0.16060000  0.08680000  0.30960000  1
  H  H18  1  0.16550000  0.72210000  0.30130000  1
  H  H19  1  0.16990000  0.26190000  0.04870000  1
  H  H20  1  0.17290000  0.00310000  0.77350000  1
  H  H21  1  0.17950000  0.43150000  0.21240000  1
  H  H22  1  0.19620000  0.80930000  0.92160000  1
  H  H23  1  0.19780000  0.34120000  0.89370000  1
  H  H24  1  0.21300000  0.87150000  0.03130000  1
  H  H25  1  0.24330000  0.95720000  0.62460000  1
  H  H26  1  0.25030000  0.46680000  0.81190000  1
  H  H27  1  0.27230000  0.92170000  0.25270000  1
  H  H28  1  0.27800000  0.30120000  0.61370000  1
  H  H29  1  0.29560000  0.41370000  0.67700000  1
  H  H30  1  0.31300000  0.80210000  0.58880000  1
  H  H31  1  0.32930000  0.88070000  0.51790000  1
  H  H32  1  0.33050000  0.73440000  0.66666667  1
  H  H33  1  0.33430000  0.06130000  0.65300000  1
  H  H34  1  0.34680000  0.68070000  0.25380000  1
  H  H35  1  0.34770000  0.45800000  0.88660000  1
  H  H36  1  0.34850000  0.72600000  0.00490000  1
  H  H37  1  0.36900000  0.90160000  0.31490000  1
  H  H38  1  0.37070000  0.25740000  0.05800000  1
  H  H39  1  0.38850000  0.26580000  0.71810000  1
  H  H40  1  0.39310000  0.06540000  0.29200000  1
  H  H41  1  0.40480000  0.33500000  0.91100000  1
  H  H42  1  0.41930000  0.06050000  0.38900000  1
  H  H43  1  0.42670000  0.98700000  0.55970000  1
  H  H44  1  0.43550000  0.79470000  0.59270000  1
  H  H45  1  0.45330000  0.37780000  0.80240000  1
  H  H46  1  0.46870000  0.78270000  0.71160000  1
  H  H47  1  0.47600000  0.27360000  0.86380000  1
  H  H48  1  0.52400000  0.72640000  0.13620000  1
  H  H49  1  0.53130000  0.21730000  0.28840000  1
  H  H50  1  0.54670000  0.62220000  0.19760000  1
  H  H51  1  0.56450000  0.20530000  0.40730000  1
  H  H52  1  0.57330000  0.01300000  0.44030000  1
  H  H53  1  0.58070000  0.93950000  0.61100000  1
  H  H54  1  0.59520000  0.66500000  0.08900000  1
  H  H55  1  0.60690000  0.93460000  0.70800000  1
  H  H56  1  0.61150000  0.73420000  0.28190000  1
  H  H57  1  0.62930000  0.74260000  0.94200000  1
  H  H58  1  0.63100000  0.09840000  0.68510000  1
  H  H59  1  0.65150000  0.27400000  0.99510000  1
  H  H60  1  0.65230000  0.54200000  0.11340000  1
  H  H61  1  0.65320000  0.31930000  0.74620000  1
  H  H62  1  0.66570000  0.93870000  0.34700000  1
  H  H63  1  0.66950000  0.26560000  0.33340000  1
  H  H64  1  0.67070000  0.11930000  0.48210000  1
  H  H65  1  0.68700000  0.19790000  0.41120000  1
  H  H66  1  0.70440000  0.58630000  0.32300000  1
  H  H67  1  0.72200000  0.69880000  0.38630000  1
  H  H68  1  0.72770000  0.07830000  0.74730000  1
  H  H69  1  0.74970000  0.53320000  0.18810000  1
  H  H70  1  0.75670000  0.04280000  0.37540000  1
  H  H71  1  0.78700000  0.12850000  0.96870000  1
  H  H72  1  0.80220000  0.65880000  0.10630000  1
  H  H73  1  0.80380000  0.19070000  0.07840000  1
  H  H74  1  0.82050000  0.56850000  0.78760000  1
  H  H75  1  0.82710000  0.99690000  0.22650000  1
  H  H76  1  0.83010000  0.73810000  0.95130000  1
  H  H77  1  0.83450000  0.27790000  0.69870000  1
  H  H78  1  0.83940000  0.91320000  0.69040000  1
  H  H79  1  0.84910000  0.69590000  0.79690000  1
  H  H80  1  0.85470000  0.83250000  0.93720000  1
  H  H81  1  0.88070000  0.87800000  0.10050000  1
  H  H82  1  0.88940000  0.66490000  0.44630000  1
  H  H83  1  0.90000000  0.65150000  0.18200000  1
  H  H84  1  0.90830000  0.64010000  0.34780000  1
  H  H85  1  0.90970000  0.56770000  0.73560000  1
  H  H86  1  0.93620000  0.07570000  0.01600000  1
  H  H87  1  0.95280000  0.13730000  0.12590000  1
  H  H88  1  0.97340000  0.70910000  0.79030000  1
  H  H89  1  0.99700000  0.93360000  0.09400000  1
  C  C90  1  0.01470000  0.83400000  0.13960000  1
  C  C91  1  0.03260000  0.44070000  0.14420000  1
  C  C92  1  0.04890000  0.20840000  0.56490000  1
  C  C93  1  0.05480000  0.13160000  0.92060000  1
  C  C94  1  0.06870000  0.86440000  0.93680000  1
  C  C95  1  0.07500000  0.30760000  0.17570000  1
  C  C96  1  0.09600000  0.40200000  0.20080000  1
  C  C97  1  0.10820000  0.20040000  0.03220000  1
  C  C98  1  0.12080000  0.31950000  0.60650000  1
  C  C99  1  0.17310000  0.47270000  0.95350000  1
  C  C100  1  0.17770000  0.38590000  0.87120000  1
  C  C101  1  0.19220000  0.86990000  0.96870000  1
  C  C102  1  0.20470000  0.99420000  0.51810000  1
  C  C103  1  0.25040000  0.34500000  0.65810000  1
  C  C104  1  0.26970000  0.42150000  0.83380000  1
  C  C105  1  0.28250000  0.95900000  0.97910000  1
  C  C106  1  0.28940000  0.99260000  0.60010000  1
  C  C107  1  0.30100000  0.18400000  0.82040000  1
  C  C108  1  0.35500000  0.92860000  0.27100000  1
  C  C109  1  0.36980000  0.86080000  0.17710000  1
  C  C110  1  0.37310000  0.94650000  0.57580000  1
  C  C111  1  0.38640000  0.31590000  0.77700000  1
  C  C112  1  0.39510000  0.85840000  0.79730000  1
  C  C113  1  0.39590000  0.82910000  0.63200000  1
  C  C114  1  0.39770000  0.79780000  0.69920000  1
  C  C115  1  0.40070000  0.28230000  0.85050000  1
  C  C116  1  0.42670000  0.03360000  0.32580000  1
  C  C117  1  0.57330000  0.96640000  0.67420000  1
  C  C118  1  0.59930000  0.71770000  0.14950000  1
  C  C119  1  0.60230000  0.20220000  0.30080000  1
  C  C120  1  0.60410000  0.17090000  0.36800000  1
  C  C121  1  0.60490000  0.14160000  0.20270000  1
  C  C122  1  0.61360000  0.68410000  0.22300000  1
  C  C123  1  0.62690000  0.05350000  0.42420000  1
  C  C124  1  0.63020000  0.13920000  0.82290000  1
  C  C125  1  0.64500000  0.07140000  0.72900000  1
  C  C126  1  0.69900000  0.81600000  0.17960000  1
  C  C127  1  0.71060000  0.00740000  0.39990000  1
  C  C128  1  0.71750000  0.04100000  0.02090000  1
  C  C129  1  0.73030000  0.57850000  0.16620000  1
  C  C130  1  0.74960000  0.65500000  0.34190000  1
  C  C131  1  0.79530000  0.00580000  0.48190000  1
  C  C132  1  0.80780000  0.13010000  0.03130000  1
  C  C133  1  0.82230000  0.61410000  0.12880000  1
  C  C134  1  0.82690000  0.52730000  0.04650000  1
  C  C135  1  0.87920000  0.68050000  0.39350000  1
  C  C136  1  0.89180000  0.79960000  0.96780000  1
  C  C137  1  0.90400000  0.59800000  0.79920000  1
  C  C138  1  0.92500000  0.69240000  0.82430000  1
  C  C139  1  0.93130000  0.13560000  0.06320000  1
  C  C140  1  0.94520000  0.86840000  0.07940000  1
  C  C141  1  0.95110000  0.79160000  0.43510000  1
  C  C142  1  0.96740000  0.55930000  0.85580000  1
  C  C143  1  0.98530000  0.16600000  0.86040000  1
  N  N144  1  0.01790000  0.22610000  0.07310000  1
  N  N145  1  0.27200000  0.33320000  0.75000000  1
  N  N146  1  0.44500000  0.93530000  0.65600000  1
  N  N147  1  0.55500000  0.06470000  0.34400000  1
  N  N148  1  0.72800000  0.66680000  0.25000000  1
  N  N149  1  0.98210000  0.77390000  0.92690000  1
  O  O150  1  0.01500000  0.15140000  0.47370000  1
  O  O151  1  0.03560000  0.18200000  0.62580000  1
  O  O152  1  0.03820000  0.87660000  0.22900000  1
  O  O153  1  0.04760000  0.76440000  0.09790000  1
  O  O154  1  0.05630000  0.62210000  0.93230000  1
  O  O155  1  0.07120000  0.53340000  0.17640000  1
  O  O156  1  0.08620000  0.45410000  0.98040000  1
  O  O157  1  0.10820000  0.95900000  0.73270000  1
  O  O158  1  0.12950000  0.03270000  0.53950000  1
  O  O159  1  0.14840000  0.74730000  0.26700000  1
  O  O160  1  0.16590000  0.10400000  0.36620000  1
  O  O161  1  0.20270000  0.15900000  0.75800000  1
  O  O162  1  0.20480000  0.95980000  0.43570000  1
  O  O163  1  0.24790000  0.55960000  0.99310000  1
  O  O164  1  0.25270000  0.01080000  0.94560000  1
  O  O165  1  0.29530000  0.77290000  0.12270000  1
  O  O166  1  0.31400000  0.62920000  0.20030000  1
  O  O167  1  0.32280000  0.13360000  0.86130000  1
  O  O168  1  0.37870000  0.93820000  0.81450000  1
  O  O169  1  0.38250000  0.72380000  0.96710000  1
  O  O170  1  0.39330000  0.97810000  0.02280000  1
  O  O171  1  0.39560000  0.22630000  0.08280000  1
  O  O172  1  0.40900000  0.82380000  0.85470000  1
  O  O173  1  0.45680000  0.89460000  0.16180000  1
  O  O174  1  0.54320000  0.10540000  0.83820000  1
  O  O175  1  0.59100000  0.17620000  0.14530000  1
  O  O176  1  0.60440000  0.77370000  0.91720000  1
  O  O177  1  0.60670000  0.02190000  0.97720000  1
  O  O178  1  0.61750000  0.27620000  0.03290000  1
  O  O179  1  0.62130000  0.06180000  0.18550000  1
  O  O180  1  0.67720000  0.86640000  0.13870000  1
  O  O181  1  0.68600000  0.37080000  0.79970000  1
  O  O182  1  0.70470000  0.22710000  0.87730000  1
  O  O183  1  0.74730000  0.98920000  0.05440000  1
  O  O184  1  0.75210000  0.44040000  0.00690000  1
  O  O185  1  0.79520000  0.04020000  0.56430000  1
  O  O186  1  0.79730000  0.84100000  0.24200000  1
  O  O187  1  0.83410000  0.89600000  0.63380000  1
  O  O188  1  0.85160000  0.25270000  0.73300000  1
  O  O189  1  0.87050000  0.96730000  0.46050000  1
  O  O190  1  0.89180000  0.04100000  0.26730000  1
  O  O191  1  0.91380000  0.54590000  0.01960000  1
  O  O192  1  0.92880000  0.46660000  0.82360000  1
  O  O193  1  0.94370000  0.37790000  0.06770000  1
  O  O194  1  0.95240000  0.23560000  0.90210000  1
  O  O195  1  0.96180000  0.12340000  0.77100000  1
  O  O196  1  0.96440000  0.81800000  0.37420000  1
  O  O197  1  0.98500000  0.84860000  0.52630000  1
