# generated using pymatgen
data_Zn2H8C15O7
_symmetry_space_group_name_H-M   'P 1'
_cell_length_a   6.57160000
_cell_length_b   20.21930000
_cell_length_c   27.93500000
_cell_angle_alpha   90.00000000
_cell_angle_beta   90.00000000
_cell_angle_gamma   90.00000000
_symmetry_Int_Tables_number   1
_chemical_formula_structural   Zn2H8C15O7
_chemical_formula_sum   'Zn16 H64 C120 O56'
_cell_volume   3711.81149777
_cell_formula_units_Z   8
loop_
 _symmetry_equiv_pos_site_id
 _symmetry_equiv_pos_as_xyz
  1  'x, y, z'
loop_
 _atom_site_type_symbol
 _atom_site_label
 _atom_site_symmetry_multiplicity
 _atom_site_fract_x
 _atom_site_fract_y
 _atom_site_fract_z
 _atom_site_occupancy
  Zn  Zn0  1  0.01403000  0.22132000  0.66775000  1
  Zn  Zn1  1  0.01403000  0.72132000  0.83225000  1
  Zn  Zn2  1  0.18965000  0.37669000  0.62851000  1
  Zn  Zn3  1  0.18965000  0.87669000  0.87149000  1
  Zn  Zn4  1  0.31035000  0.37669000  0.12851000  1
  Zn  Zn5  1  0.31035000  0.87669000  0.37149000  1
  Zn  Zn6  1  0.48597000  0.22132000  0.16775000  1
  Zn  Zn7  1  0.48597000  0.72132000  0.33225000  1
  Zn  Zn8  1  0.51403000  0.27868000  0.66775000  1
  Zn  Zn9  1  0.51403000  0.77868000  0.83225000  1
  Zn  Zn10  1  0.68965000  0.12331000  0.62851000  1
  Zn  Zn11  1  0.68965000  0.62331000  0.87149000  1
  Zn  Zn12  1  0.81035000  0.12331000  0.12851000  1
  Zn  Zn13  1  0.81035000  0.62331000  0.37149000  1
  Zn  Zn14  1  0.98597000  0.27868000  0.16775000  1
  Zn  Zn15  1  0.98597000  0.77868000  0.33225000  1
  H  H16  1  0.03490000  0.00550000  0.65910000  1
  H  H17  1  0.03490000  0.50550000  0.84090000  1
  H  H18  1  0.07200000  0.07300000  0.87780000  1
  H  H19  1  0.07200000  0.57300000  0.62220000  1
  H  H20  1  0.07310000  0.46330000  0.76360000  1
  H  H21  1  0.07310000  0.96330000  0.73640000  1
  H  H22  1  0.11090000  0.11480000  0.80160000  1
  H  H23  1  0.11090000  0.61480000  0.69840000  1
  H  H24  1  0.17370000  0.12800000  0.52000000  1
  H  H25  1  0.17370000  0.62800000  0.98000000  1
  H  H26  1  0.17990000  0.40810000  0.44950000  1
  H  H27  1  0.17990000  0.90810000  0.05050000  1
  H  H28  1  0.20150000  0.05280000  0.45790000  1
  H  H29  1  0.20150000  0.55280000  0.04210000  1
  H  H30  1  0.21360000  0.25630000  0.10840000  1
  H  H31  1  0.21360000  0.75630000  0.39160000  1
  H  H32  1  0.28640000  0.25630000  0.60840000  1
  H  H33  1  0.28640000  0.75630000  0.89160000  1
  H  H34  1  0.29850000  0.05280000  0.95790000  1
  H  H35  1  0.29850000  0.55280000  0.54210000  1
  H  H36  1  0.32010000  0.40810000  0.94950000  1
  H  H37  1  0.32010000  0.90810000  0.55050000  1
  H  H38  1  0.32630000  0.12800000  0.02000000  1
  H  H39  1  0.32630000  0.62800000  0.48000000  1
  H  H40  1  0.38910000  0.11480000  0.30160000  1
  H  H41  1  0.38910000  0.61480000  0.19840000  1
  H  H42  1  0.42690000  0.46330000  0.26360000  1
  H  H43  1  0.42690000  0.96330000  0.23640000  1
  H  H44  1  0.42800000  0.07300000  0.37780000  1
  H  H45  1  0.42800000  0.57300000  0.12220000  1
  H  H46  1  0.46510000  0.00550000  0.15910000  1
  H  H47  1  0.46510000  0.50550000  0.34090000  1
  H  H48  1  0.53490000  0.49450000  0.65910000  1
  H  H49  1  0.53490000  0.99450000  0.84090000  1
  H  H50  1  0.57200000  0.42700000  0.87780000  1
  H  H51  1  0.57200000  0.92700000  0.62220000  1
  H  H52  1  0.57310000  0.03670000  0.76360000  1
  H  H53  1  0.57310000  0.53670000  0.73640000  1
  H  H54  1  0.61090000  0.38520000  0.80160000  1
  H  H55  1  0.61090000  0.88520000  0.69840000  1
  H  H56  1  0.67370000  0.37200000  0.52000000  1
  H  H57  1  0.67370000  0.87200000  0.98000000  1
  H  H58  1  0.67990000  0.09190000  0.44950000  1
  H  H59  1  0.67990000  0.59190000  0.05050000  1
  H  H60  1  0.70150000  0.44720000  0.45790000  1
  H  H61  1  0.70150000  0.94720000  0.04210000  1
  H  H62  1  0.71360000  0.24370000  0.10840000  1
  H  H63  1  0.71360000  0.74370000  0.39160000  1
  H  H64  1  0.78640000  0.24370000  0.60840000  1
  H  H65  1  0.78640000  0.74370000  0.89160000  1
  H  H66  1  0.79850000  0.44720000  0.95790000  1
  H  H67  1  0.79850000  0.94720000  0.54210000  1
  H  H68  1  0.82010000  0.09190000  0.94950000  1
  H  H69  1  0.82010000  0.59190000  0.55050000  1
  H  H70  1  0.82630000  0.37200000  0.02000000  1
  H  H71  1  0.82630000  0.87200000  0.48000000  1
  H  H72  1  0.88910000  0.38520000  0.30160000  1
  H  H73  1  0.88910000  0.88520000  0.19840000  1
  H  H74  1  0.92690000  0.03670000  0.26360000  1
  H  H75  1  0.92690000  0.53670000  0.23640000  1
  H  H76  1  0.92800000  0.42700000  0.37780000  1
  H  H77  1  0.92800000  0.92700000  0.12220000  1
  H  H78  1  0.96510000  0.49450000  0.15910000  1
  H  H79  1  0.96510000  0.99450000  0.34090000  1
  C  C80  1  0.00530000  0.40920000  0.30940000  1
  C  C81  1  0.00530000  0.90920000  0.19060000  1
  C  C82  1  0.02820000  0.43470000  0.35492000  1
  C  C83  1  0.02820000  0.93470000  0.14508000  1
  C  C84  1  0.13760000  0.38750000  0.22648000  1
  C  C85  1  0.13760000  0.88750000  0.27352000  1
  C  C86  1  0.15100000  0.48160000  0.83293000  1
  C  C87  1  0.15100000  0.98160000  0.66707000  1
  C  C88  1  0.15660000  0.41940000  0.27499000  1
  C  C89  1  0.15660000  0.91940000  0.22501000  1
  C  C90  1  0.17340000  0.45570000  0.78664000  1
  C  C91  1  0.17340000  0.95570000  0.71336000  1
  C  C92  1  0.19750000  0.47150000  0.36704000  1
  C  C93  1  0.19750000  0.97150000  0.13296000  1
  C  C94  1  0.20370000  0.08400000  0.52640000  1
  C  C95  1  0.20370000  0.58400000  0.97360000  1
  C  C96  1  0.20890000  0.45240000  0.45553000  1
  C  C97  1  0.20890000  0.95240000  0.04447000  1
  C  C98  1  0.21680000  0.42510000  0.54246000  1
  C  C99  1  0.21680000  0.92510000  0.95754000  1
  C  C100  1  0.22050000  0.03870000  0.48928000  1
  C  C101  1  0.22050000  0.53870000  0.01072000  1
  C  C102  1  0.22250000  0.11400000  0.61248000  1
  C  C103  1  0.22250000  0.61400000  0.88752000  1
  C  C104  1  0.22490000  0.49650000  0.41737000  1
  C  C105  1  0.22490000  0.99650000  0.08263000  1
  C  C106  1  0.23250000  0.06250000  0.57368000  1
  C  C107  1  0.23250000  0.56250000  0.92632000  1
  C  C108  1  0.23530000  0.47340000  0.50213000  1
  C  C109  1  0.23530000  0.97340000  0.99787000  1
  C  C110  1  0.26470000  0.47340000  0.00213000  1
  C  C111  1  0.26470000  0.97340000  0.49787000  1
  C  C112  1  0.26750000  0.06250000  0.07368000  1
  C  C113  1  0.26750000  0.56250000  0.42632000  1
  C  C114  1  0.27510000  0.49650000  0.91737000  1
  C  C115  1  0.27510000  0.99650000  0.58263000  1
  C  C116  1  0.27750000  0.11400000  0.11248000  1
  C  C117  1  0.27750000  0.61400000  0.38752000  1
  C  C118  1  0.27950000  0.03870000  0.98928000  1
  C  C119  1  0.27950000  0.53870000  0.51072000  1
  C  C120  1  0.28320000  0.42510000  0.04246000  1
  C  C121  1  0.28320000  0.92510000  0.45754000  1
  C  C122  1  0.29110000  0.45240000  0.95553000  1
  C  C123  1  0.29110000  0.95240000  0.54447000  1
  C  C124  1  0.29630000  0.08400000  0.02640000  1
  C  C125  1  0.29630000  0.58400000  0.47360000  1
  C  C126  1  0.30250000  0.47150000  0.86704000  1
  C  C127  1  0.30250000  0.97150000  0.63296000  1
  C  C128  1  0.32660000  0.45570000  0.28664000  1
  C  C129  1  0.32660000  0.95570000  0.21336000  1
  C  C130  1  0.34340000  0.41940000  0.77499000  1
  C  C131  1  0.34340000  0.91940000  0.72501000  1
  C  C132  1  0.34900000  0.48160000  0.33293000  1
  C  C133  1  0.34900000  0.98160000  0.16707000  1
  C  C134  1  0.36240000  0.38750000  0.72648000  1
  C  C135  1  0.36240000  0.88750000  0.77352000  1
  C  C136  1  0.47180000  0.43470000  0.85492000  1
  C  C137  1  0.47180000  0.93470000  0.64508000  1
  C  C138  1  0.49470000  0.40920000  0.80940000  1
  C  C139  1  0.49470000  0.90920000  0.69060000  1
  C  C140  1  0.50530000  0.09080000  0.30940000  1
  C  C141  1  0.50530000  0.59080000  0.19060000  1
  C  C142  1  0.52820000  0.06530000  0.35492000  1
  C  C143  1  0.52820000  0.56530000  0.14508000  1
  C  C144  1  0.63760000  0.11250000  0.22648000  1
  C  C145  1  0.63760000  0.61250000  0.27352000  1
  C  C146  1  0.65100000  0.01840000  0.83293000  1
  C  C147  1  0.65100000  0.51840000  0.66707000  1
  C  C148  1  0.65660000  0.08060000  0.27499000  1
  C  C149  1  0.65660000  0.58060000  0.22501000  1
  C  C150  1  0.67340000  0.04430000  0.78664000  1
  C  C151  1  0.67340000  0.54430000  0.71336000  1
  C  C152  1  0.69750000  0.02850000  0.36704000  1
  C  C153  1  0.69750000  0.52850000  0.13296000  1
  C  C154  1  0.70370000  0.41600000  0.52640000  1
  C  C155  1  0.70370000  0.91600000  0.97360000  1
  C  C156  1  0.70890000  0.04760000  0.45553000  1
  C  C157  1  0.70890000  0.54760000  0.04447000  1
  C  C158  1  0.71680000  0.07490000  0.54246000  1
  C  C159  1  0.71680000  0.57490000  0.95754000  1
  C  C160  1  0.72050000  0.46130000  0.48928000  1
  C  C161  1  0.72050000  0.96130000  0.01072000  1
  C  C162  1  0.72250000  0.38600000  0.61248000  1
  C  C163  1  0.72250000  0.88600000  0.88752000  1
  C  C164  1  0.72490000  0.00350000  0.41737000  1
  C  C165  1  0.72490000  0.50350000  0.08263000  1
  C  C166  1  0.73250000  0.43750000  0.57368000  1
  C  C167  1  0.73250000  0.93750000  0.92632000  1
  C  C168  1  0.73530000  0.02660000  0.50213000  1
  C  C169  1  0.73530000  0.52660000  0.99787000  1
  C  C170  1  0.76470000  0.02660000  0.00213000  1
  C  C171  1  0.76470000  0.52660000  0.49787000  1
  C  C172  1  0.76750000  0.43750000  0.07368000  1
  C  C173  1  0.76750000  0.93750000  0.42632000  1
  C  C174  1  0.77510000  0.00350000  0.91737000  1
  C  C175  1  0.77510000  0.50350000  0.58263000  1
  C  C176  1  0.77750000  0.38600000  0.11248000  1
  C  C177  1  0.77750000  0.88600000  0.38752000  1
  C  C178  1  0.77950000  0.46130000  0.98928000  1
  C  C179  1  0.77950000  0.96130000  0.51072000  1
  C  C180  1  0.78320000  0.07490000  0.04246000  1
  C  C181  1  0.78320000  0.57490000  0.45754000  1
  C  C182  1  0.79110000  0.04760000  0.95553000  1
  C  C183  1  0.79110000  0.54760000  0.54447000  1
  C  C184  1  0.79630000  0.41600000  0.02640000  1
  C  C185  1  0.79630000  0.91600000  0.47360000  1
  C  C186  1  0.80250000  0.02850000  0.86704000  1
  C  C187  1  0.80250000  0.52850000  0.63296000  1
  C  C188  1  0.82660000  0.04430000  0.28664000  1
  C  C189  1  0.82660000  0.54430000  0.21336000  1
  C  C190  1  0.84340000  0.08060000  0.77499000  1
  C  C191  1  0.84340000  0.58060000  0.72501000  1
  C  C192  1  0.84900000  0.01840000  0.33293000  1
  C  C193  1  0.84900000  0.51840000  0.16707000  1
  C  C194  1  0.86240000  0.11250000  0.72648000  1
  C  C195  1  0.86240000  0.61250000  0.77352000  1
  C  C196  1  0.97180000  0.06530000  0.85492000  1
  C  C197  1  0.97180000  0.56530000  0.64508000  1
  C  C198  1  0.99470000  0.09080000  0.80940000  1
  C  C199  1  0.99470000  0.59080000  0.69060000  1
  O  O200  1  0.00830000  0.34182000  0.22201000  1
  O  O201  1  0.00830000  0.84182000  0.27799000  1
  O  O202  1  0.06080000  0.14550000  0.61791000  1
  O  O203  1  0.06080000  0.64550000  0.88209000  1
  O  O204  1  0.11990000  0.12538000  0.13777000  1
  O  O205  1  0.11990000  0.62538000  0.36223000  1
  O  O206  1  0.18790000  0.36530000  0.53492000  1
  O  O207  1  0.18790000  0.86530000  0.96508000  1
  O  O208  1  0.22620000  0.27828000  0.63696000  1
  O  O209  1  0.22620000  0.77828000  0.86304000  1
  O  O210  1  0.23180000  0.44910000  0.58452000  1
  O  O211  1  0.23180000  0.94910000  0.91548000  1
  O  O212  1  0.24450000  0.40807000  0.69413000  1
  O  O213  1  0.24450000  0.90807000  0.80587000  1
  O  O214  1  0.25550000  0.40807000  0.19413000  1
  O  O215  1  0.25550000  0.90807000  0.30587000  1
  O  O216  1  0.26820000  0.44910000  0.08452000  1
  O  O217  1  0.26820000  0.94910000  0.41548000  1
  O  O218  1  0.27380000  0.27828000  0.13696000  1
  O  O219  1  0.27380000  0.77828000  0.36304000  1
  O  O220  1  0.31210000  0.36530000  0.03492000  1
  O  O221  1  0.31210000  0.86530000  0.46508000  1
  O  O222  1  0.38010000  0.12538000  0.63777000  1
  O  O223  1  0.38010000  0.62538000  0.86223000  1
  O  O224  1  0.43920000  0.14550000  0.11791000  1
  O  O225  1  0.43920000  0.64550000  0.38209000  1
  O  O226  1  0.49170000  0.34182000  0.72201000  1
  O  O227  1  0.49170000  0.84182000  0.77799000  1
  O  O228  1  0.50830000  0.15818000  0.22201000  1
  O  O229  1  0.50830000  0.65818000  0.27799000  1
  O  O230  1  0.56080000  0.35450000  0.61791000  1
  O  O231  1  0.56080000  0.85450000  0.88209000  1
  O  O232  1  0.61990000  0.37462000  0.13777000  1
  O  O233  1  0.61990000  0.87462000  0.36223000  1
  O  O234  1  0.68790000  0.13470000  0.53492000  1
  O  O235  1  0.68790000  0.63470000  0.96508000  1
  O  O236  1  0.72620000  0.22172000  0.63696000  1
  O  O237  1  0.72620000  0.72172000  0.86304000  1
  O  O238  1  0.73180000  0.05090000  0.58452000  1
  O  O239  1  0.73180000  0.55090000  0.91548000  1
  O  O240  1  0.74450000  0.09193000  0.69413000  1
  O  O241  1  0.74450000  0.59193000  0.80587000  1
  O  O242  1  0.75550000  0.09193000  0.19413000  1
  O  O243  1  0.75550000  0.59193000  0.30587000  1
  O  O244  1  0.76820000  0.05090000  0.08452000  1
  O  O245  1  0.76820000  0.55090000  0.41548000  1
  O  O246  1  0.77380000  0.22172000  0.13696000  1
  O  O247  1  0.77380000  0.72172000  0.36304000  1
  O  O248  1  0.81210000  0.13470000  0.03492000  1
  O  O249  1  0.81210000  0.63470000  0.46508000  1
  O  O250  1  0.88010000  0.37462000  0.63777000  1
  O  O251  1  0.88010000  0.87462000  0.86223000  1
  O  O252  1  0.93920000  0.35450000  0.11791000  1
  O  O253  1  0.93920000  0.85450000  0.38209000  1
  O  O254  1  0.99170000  0.15818000  0.72201000  1
  O  O255  1  0.99170000  0.65818000  0.77799000  1
