# generated using pymatgen
data_Tb2Cu3H21C42(N3O13)2
_symmetry_space_group_name_H-M   'P 1'
_cell_length_a   13.93400000
_cell_length_b   20.49400000
_cell_length_c   30.72200000
_cell_angle_alpha   90.00000000
_cell_angle_beta   90.00000000
_cell_angle_gamma   98.71000000
_symmetry_Int_Tables_number   1
_chemical_formula_structural   Tb2Cu3H21C42(N3O13)2
_chemical_formula_sum   'Tb8 Cu12 H84 C168 N24 O104'
_cell_volume   8671.90287461
_cell_formula_units_Z   4
loop_
 _symmetry_equiv_pos_site_id
 _symmetry_equiv_pos_as_xyz
  1  'x, y, z'
loop_
 _atom_site_type_symbol
 _atom_site_label
 _atom_site_symmetry_multiplicity
 _atom_site_fract_x
 _atom_site_fract_y
 _atom_site_fract_z
 _atom_site_occupancy
  Tb  Tb0  1  0.02372000  0.87476000  0.05070000  1
  Tb  Tb1  1  0.03898000  0.89555000  0.31033000  1
  Tb  Tb2  1  0.46102000  0.60445000  0.81033000  1
  Tb  Tb3  1  0.47628000  0.62524000  0.55070000  1
  Tb  Tb4  1  0.52372000  0.37476000  0.44930000  1
  Tb  Tb5  1  0.53898000  0.39555000  0.18967000  1
  Tb  Tb6  1  0.96102000  0.10445000  0.68967000  1
  Tb  Tb7  1  0.97628000  0.12524000  0.94930000  1
  Cu  Cu8  1  0.00473000  0.24205000  0.15768000  1
  Cu  Cu9  1  0.00838000  0.77997000  0.52191000  1
  Cu  Cu10  1  0.02659000  0.38826000  0.81556000  1
  Cu  Cu11  1  0.47341000  0.11174000  0.31556000  1
  Cu  Cu12  1  0.49162000  0.72003000  0.02191000  1
  Cu  Cu13  1  0.49527000  0.25795000  0.65768000  1
  Cu  Cu14  1  0.50473000  0.74205000  0.34232000  1
  Cu  Cu15  1  0.50838000  0.27997000  0.97809000  1
  Cu  Cu16  1  0.52659000  0.88826000  0.68444000  1
  Cu  Cu17  1  0.97341000  0.61174000  0.18444000  1
  Cu  Cu18  1  0.99162000  0.22003000  0.47809000  1
  Cu  Cu19  1  0.99527000  0.75795000  0.84232000  1
  H  H20  1  0.00600000  0.20200000  0.86900000  1
  H  H21  1  0.01200000  0.03600000  0.90900000  1
  H  H22  1  0.04230000  0.11210000  0.41600000  1
  H  H23  1  0.05250000  0.68880000  0.10630000  1
  H  H24  1  0.06010000  0.24040000  0.06130000  1
  H  H25  1  0.07010000  0.29440000  0.74730000  1
  H  H26  1  0.07470000  0.79470000  0.42730000  1
  H  H27  1  0.09170000  0.86490000  0.78150000  1
  H  H28  1  0.11400000  0.04700000  0.91900000  1
  H  H29  1  0.14390000  0.54770000  0.17410000  1
  H  H30  1  0.15990000  0.69440000  0.82100000  1
  H  H31  1  0.17920000  0.08910000  0.37940000  1
  H  H32  1  0.18430000  0.71990000  0.53090000  1
  H  H33  1  0.18610000  0.27940000  0.46090000  1
  H  H34  1  0.19570000  0.70550000  0.06670000  1
  H  H35  1  0.19780000  0.27000000  0.01910000  1
  H  H36  1  0.20070000  0.27260000  0.70600000  1
  H  H37  1  0.20100000  0.77000000  0.38480000  1
  H  H38  1  0.20740000  0.29500000  0.16850000  1
  H  H39  1  0.22060000  0.45750000  0.79420000  1
  H  H40  1  0.23820000  0.88980000  0.74430000  1
  H  H41  1  0.26180000  0.61020000  0.24430000  1
  H  H42  1  0.27940000  0.04250000  0.29420000  1
  H  H43  1  0.29260000  0.20500000  0.66850000  1
  H  H44  1  0.29900000  0.73000000  0.88480000  1
  H  H45  1  0.29930000  0.22740000  0.20600000  1
  H  H46  1  0.30220000  0.23000000  0.51910000  1
  H  H47  1  0.30430000  0.79450000  0.56670000  1
  H  H48  1  0.31390000  0.22060000  0.96090000  1
  H  H49  1  0.31570000  0.78010000  0.03090000  1
  H  H50  1  0.32080000  0.41090000  0.87940000  1
  H  H51  1  0.34010000  0.80560000  0.32100000  1
  H  H52  1  0.35610000  0.95230000  0.67410000  1
  H  H53  1  0.38600000  0.45300000  0.41900000  1
  H  H54  1  0.40830000  0.63510000  0.28150000  1
  H  H55  1  0.42530000  0.70530000  0.92730000  1
  H  H56  1  0.42990000  0.20560000  0.24730000  1
  H  H57  1  0.43990000  0.25960000  0.56130000  1
  H  H58  1  0.44750000  0.81120000  0.60630000  1
  H  H59  1  0.45770000  0.38790000  0.91600000  1
  H  H60  1  0.48800000  0.46400000  0.40900000  1
  H  H61  1  0.49400000  0.29800000  0.36900000  1
  H  H62  1  0.50600000  0.70200000  0.63100000  1
  H  H63  1  0.51200000  0.53600000  0.59100000  1
  H  H64  1  0.54230000  0.61210000  0.08400000  1
  H  H65  1  0.55250000  0.18880000  0.39370000  1
  H  H66  1  0.56010000  0.74040000  0.43870000  1
  H  H67  1  0.57010000  0.79440000  0.75270000  1
  H  H68  1  0.57470000  0.29470000  0.07270000  1
  H  H69  1  0.59170000  0.36490000  0.71850000  1
  H  H70  1  0.61400000  0.54700000  0.58100000  1
  H  H71  1  0.64390000  0.04770000  0.32590000  1
  H  H72  1  0.65990000  0.19440000  0.67900000  1
  H  H73  1  0.67920000  0.58910000  0.12060000  1
  H  H74  1  0.68430000  0.21990000  0.96910000  1
  H  H75  1  0.68610000  0.77940000  0.03910000  1
  H  H76  1  0.69570000  0.20550000  0.43330000  1
  H  H77  1  0.69780000  0.77000000  0.48090000  1
  H  H78  1  0.70070000  0.77260000  0.79400000  1
  H  H79  1  0.70100000  0.27000000  0.11520000  1
  H  H80  1  0.70740000  0.79500000  0.33150000  1
  H  H81  1  0.72060000  0.95750000  0.70580000  1
  H  H82  1  0.73820000  0.38980000  0.75570000  1
  H  H83  1  0.76180000  0.11020000  0.25570000  1
  H  H84  1  0.77940000  0.54250000  0.20580000  1
  H  H85  1  0.79260000  0.70500000  0.83150000  1
  H  H86  1  0.79900000  0.23000000  0.61520000  1
  H  H87  1  0.79930000  0.72740000  0.29400000  1
  H  H88  1  0.80220000  0.73000000  0.98090000  1
  H  H89  1  0.80430000  0.29450000  0.93330000  1
  H  H90  1  0.81390000  0.72060000  0.53910000  1
  H  H91  1  0.81570000  0.28010000  0.46910000  1
  H  H92  1  0.82080000  0.91090000  0.62060000  1
  H  H93  1  0.84010000  0.30560000  0.17900000  1
  H  H94  1  0.85610000  0.45230000  0.82590000  1
  H  H95  1  0.88600000  0.95300000  0.08100000  1
  H  H96  1  0.90830000  0.13510000  0.21850000  1
  H  H97  1  0.92530000  0.20530000  0.57270000  1
  H  H98  1  0.92990000  0.70560000  0.25270000  1
  H  H99  1  0.93990000  0.75960000  0.93870000  1
  H  H100  1  0.94750000  0.31120000  0.89370000  1
  H  H101  1  0.95770000  0.88790000  0.58400000  1
  H  H102  1  0.98800000  0.96400000  0.09100000  1
  H  H103  1  0.99400000  0.79800000  0.13100000  1
  C  C104  1  0.10090000  0.14240000  0.41790000  1
  C  C105  1  0.10150000  0.66250000  0.11250000  1
  C  C106  1  0.10980000  0.04140000  0.25830000  1
  C  C107  1  0.11610000  0.17040000  0.63990000  1
  C  C108  1  0.11700000  0.68290000  0.23530000  1
  C  C109  1  0.11950000  0.25730000  0.07520000  1
  C  C110  1  0.12210000  0.18410000  0.54050000  1
  C  C111  1  0.12400000  0.77400000  0.44040000  1
  C  C112  1  0.12500000  0.15800000  0.19550000  1
  C  C113  1  0.12920000  0.32420000  0.74870000  1
  C  C114  1  0.13660000  0.83440000  0.78240000  1
  C  C115  1  0.13960000  0.22180000  0.93150000  1
  C  C116  1  0.14390000  0.33450000  0.87050000  1
  C  C117  1  0.14980000  0.79110000  0.90390000  1
  C  C118  1  0.15060000  0.85600000  0.56920000  1
  C  C119  1  0.15490000  0.81260000  0.00170000  1
  C  C120  1  0.15500000  0.58010000  0.15190000  1
  C  C121  1  0.16410000  0.80160000  0.29190000  1
  C  C122  1  0.17700000  0.73490000  0.80590000  1
  C  C123  1  0.18250000  0.12840000  0.39600000  1
  C  C124  1  0.18340000  0.95570000  0.64290000  1
  C  C125  1  0.18540000  0.24000000  0.44450000  1
  C  C126  1  0.18670000  0.67260000  0.08870000  1
  C  C127  1  0.18850000  0.73090000  0.50080000  1
  C  C128  1  0.19930000  0.75940000  0.41500000  1
  C  C129  1  0.20140000  0.09030000  0.25240000  1
  C  C130  1  0.20190000  0.27460000  0.04990000  1
  C  C131  1  0.20620000  0.14560000  0.22570000  1
  C  C132  1  0.20620000  0.28860000  0.13790000  1
  C  C133  1  0.20670000  0.19430000  0.61450000  1
  C  C134  1  0.20670000  0.31080000  0.72390000  1
  C  C135  1  0.20930000  0.69440000  0.26180000  1
  C  C136  1  0.20960000  0.20150000  0.56920000  1
  C  C137  1  0.21690000  0.41960000  0.77620000  1
  C  C138  1  0.22410000  0.84980000  0.76030000  1
  C  C139  1  0.22740000  0.77050000  0.93310000  1
  C  C140  1  0.22940000  0.27120000  0.92420000  1
  C  C141  1  0.23060000  0.32780000  0.89840000  1
  C  C142  1  0.23250000  0.78410000  0.97740000  1
  C  C143  1  0.23290000  0.75230000  0.28580000  1
  C  C144  1  0.24090000  0.86540000  0.59690000  1
  C  C145  1  0.24190000  0.58680000  0.12930000  1
  C  C146  1  0.25810000  0.91320000  0.62930000  1
  C  C147  1  0.25910000  0.63460000  0.09690000  1
  C  C148  1  0.26710000  0.74770000  0.78580000  1
  C  C149  1  0.26750000  0.71590000  0.47740000  1
  C  C150  1  0.26940000  0.17220000  0.39840000  1
  C  C151  1  0.27060000  0.22880000  0.42420000  1
  C  C152  1  0.27260000  0.72950000  0.43310000  1
  C  C153  1  0.27590000  0.65020000  0.26030000  1
  C  C154  1  0.28310000  0.08040000  0.27620000  1
  C  C155  1  0.29040000  0.29850000  0.06920000  1
  C  C156  1  0.29070000  0.80560000  0.76180000  1
  C  C157  1  0.29330000  0.18920000  0.22390000  1
  C  C158  1  0.29330000  0.30570000  0.11450000  1
  C  C159  1  0.29380000  0.21140000  0.63790000  1
  C  C160  1  0.29380000  0.35440000  0.72570000  1
  C  C161  1  0.29810000  0.22540000  0.54990000  1
  C  C162  1  0.29860000  0.40970000  0.75240000  1
  C  C163  1  0.30070000  0.74060000  0.91500000  1
  C  C164  1  0.31150000  0.76910000  0.00080000  1
  C  C165  1  0.31330000  0.82740000  0.58870000  1
  C  C166  1  0.31460000  0.26000000  0.94450000  1
  C  C167  1  0.31660000  0.54430000  0.14290000  1
  C  C168  1  0.31750000  0.37160000  0.89600000  1
  C  C169  1  0.32300000  0.76510000  0.30590000  1
  C  C170  1  0.33590000  0.69840000  0.79190000  1
  C  C171  1  0.34500000  0.91990000  0.65190000  1
  C  C172  1  0.34510000  0.68740000  0.50170000  1
  C  C173  1  0.34940000  0.64400000  0.06920000  1
  C  C174  1  0.35020000  0.70890000  0.40390000  1
  C  C175  1  0.35610000  0.16550000  0.37050000  1
  C  C176  1  0.36040000  0.27820000  0.43150000  1
  C  C177  1  0.36340000  0.66560000  0.28240000  1
  C  C178  1  0.37080000  0.17580000  0.24870000  1
  C  C179  1  0.37500000  0.34200000  0.69550000  1
  C  C180  1  0.37600000  0.72600000  0.94040000  1
  C  C181  1  0.37790000  0.31590000  0.04050000  1
  C  C182  1  0.38050000  0.24270000  0.57520000  1
  C  C183  1  0.38300000  0.81710000  0.73530000  1
  C  C184  1  0.38390000  0.32960000  0.13990000  1
  C  C185  1  0.39020000  0.45860000  0.75830000  1
  C  C186  1  0.39850000  0.83750000  0.61250000  1
  C  C187  1  0.39910000  0.35760000  0.91790000  1
  C  C188  1  0.60090000  0.64240000  0.08210000  1
  C  C189  1  0.60150000  0.16250000  0.38750000  1
  C  C190  1  0.60980000  0.54140000  0.24170000  1
  C  C191  1  0.61610000  0.67040000  0.86010000  1
  C  C192  1  0.61700000  0.18290000  0.26470000  1
  C  C193  1  0.61950000  0.75730000  0.42480000  1
  C  C194  1  0.62210000  0.68410000  0.95950000  1
  C  C195  1  0.62400000  0.27400000  0.05960000  1
  C  C196  1  0.62500000  0.65800000  0.30450000  1
  C  C197  1  0.62920000  0.82420000  0.75130000  1
  C  C198  1  0.63660000  0.33440000  0.71760000  1
  C  C199  1  0.63960000  0.72180000  0.56850000  1
  C  C200  1  0.64390000  0.83450000  0.62950000  1
  C  C201  1  0.64980000  0.29110000  0.59610000  1
  C  C202  1  0.65060000  0.35600000  0.93080000  1
  C  C203  1  0.65490000  0.31260000  0.49830000  1
  C  C204  1  0.65500000  0.08010000  0.34810000  1
  C  C205  1  0.66410000  0.30160000  0.20810000  1
  C  C206  1  0.67700000  0.23490000  0.69410000  1
  C  C207  1  0.68250000  0.62840000  0.10400000  1
  C  C208  1  0.68340000  0.45570000  0.85710000  1
  C  C209  1  0.68540000  0.74000000  0.05550000  1
  C  C210  1  0.68670000  0.17260000  0.41130000  1
  C  C211  1  0.68850000  0.23090000  0.99920000  1
  C  C212  1  0.69930000  0.25940000  0.08500000  1
  C  C213  1  0.70140000  0.59030000  0.24760000  1
  C  C214  1  0.70190000  0.77460000  0.45010000  1
  C  C215  1  0.70620000  0.64560000  0.27430000  1
  C  C216  1  0.70620000  0.78860000  0.36210000  1
  C  C217  1  0.70670000  0.69430000  0.88550000  1
  C  C218  1  0.70670000  0.81080000  0.77610000  1
  C  C219  1  0.70930000  0.19440000  0.23820000  1
  C  C220  1  0.70960000  0.70150000  0.93080000  1
  C  C221  1  0.71690000  0.91960000  0.72380000  1
  C  C222  1  0.72410000  0.34980000  0.73970000  1
  C  C223  1  0.72740000  0.27050000  0.56690000  1
  C  C224  1  0.72940000  0.77120000  0.57580000  1
  C  C225  1  0.73060000  0.82780000  0.60160000  1
  C  C226  1  0.73250000  0.28410000  0.52260000  1
  C  C227  1  0.73290000  0.25230000  0.21420000  1
  C  C228  1  0.74090000  0.36540000  0.90310000  1
  C  C229  1  0.74190000  0.08680000  0.37070000  1
  C  C230  1  0.75810000  0.41320000  0.87070000  1
  C  C231  1  0.75910000  0.13460000  0.40310000  1
  C  C232  1  0.76710000  0.24770000  0.71420000  1
  C  C233  1  0.76750000  0.21590000  0.02260000  1
  C  C234  1  0.76940000  0.67220000  0.10160000  1
  C  C235  1  0.77060000  0.72880000  0.07580000  1
  C  C236  1  0.77260000  0.22950000  0.06690000  1
  C  C237  1  0.77590000  0.15020000  0.23970000  1
  C  C238  1  0.78310000  0.58040000  0.22380000  1
  C  C239  1  0.79040000  0.79850000  0.43080000  1
  C  C240  1  0.79070000  0.30560000  0.73820000  1
  C  C241  1  0.79330000  0.68920000  0.27610000  1
  C  C242  1  0.79330000  0.80570000  0.38550000  1
  C  C243  1  0.79380000  0.71140000  0.86210000  1
  C  C244  1  0.79380000  0.85440000  0.77430000  1
  C  C245  1  0.79810000  0.72540000  0.95010000  1
  C  C246  1  0.79860000  0.90970000  0.74760000  1
  C  C247  1  0.80070000  0.24060000  0.58500000  1
  C  C248  1  0.81150000  0.26910000  0.49920000  1
  C  C249  1  0.81330000  0.32740000  0.91130000  1
  C  C250  1  0.81460000  0.76000000  0.55550000  1
  C  C251  1  0.81660000  0.04430000  0.35710000  1
  C  C252  1  0.81750000  0.87160000  0.60400000  1
  C  C253  1  0.82300000  0.26510000  0.19410000  1
  C  C254  1  0.83590000  0.19840000  0.70810000  1
  C  C255  1  0.84500000  0.41990000  0.84810000  1
  C  C256  1  0.84510000  0.18740000  0.99830000  1
  C  C257  1  0.84940000  0.14400000  0.43080000  1
  C  C258  1  0.85020000  0.20890000  0.09610000  1
  C  C259  1  0.85610000  0.66550000  0.12950000  1
  C  C260  1  0.86040000  0.77820000  0.06850000  1
  C  C261  1  0.86340000  0.16560000  0.21760000  1
  C  C262  1  0.87080000  0.67580000  0.25130000  1
  C  C263  1  0.87500000  0.84200000  0.80450000  1
  C  C264  1  0.87600000  0.22600000  0.55960000  1
  C  C265  1  0.87790000  0.81590000  0.45950000  1
  C  C266  1  0.88050000  0.74270000  0.92480000  1
  C  C267  1  0.88300000  0.31710000  0.76470000  1
  C  C268  1  0.88390000  0.82960000  0.36010000  1
  C  C269  1  0.89020000  0.95860000  0.74170000  1
  C  C270  1  0.89850000  0.33750000  0.88750000  1
  C  C271  1  0.89910000  0.85760000  0.58210000  1
  N  N272  1  0.08570000  0.61740000  0.14374000  1
  N  N273  1  0.10230000  0.19770000  0.44194000  1
  N  N274  1  0.11290000  0.77810000  0.80488000  1
  N  N275  1  0.11780000  0.75990000  0.48330000  1
  N  N276  1  0.12110000  0.26370000  0.11888000  1
  N  N277  1  0.13340000  0.37760000  0.77459000  1
  N  N278  1  0.36660000  0.12240000  0.27459000  1
  N  N279  1  0.37890000  0.23630000  0.61888000  1
  N  N280  1  0.38220000  0.74010000  0.98330000  1
  N  N281  1  0.38710000  0.72190000  0.30488000  1
  N  N282  1  0.39770000  0.30230000  0.94194000  1
  N  N283  1  0.41430000  0.88260000  0.64374000  1
  N  N284  1  0.58570000  0.11740000  0.35626000  1
  N  N285  1  0.60230000  0.69770000  0.05806000  1
  N  N286  1  0.61290000  0.27810000  0.69512000  1
  N  N287  1  0.61780000  0.25990000  0.01670000  1
  N  N288  1  0.62110000  0.76370000  0.38112000  1
  N  N289  1  0.63340000  0.87760000  0.72541000  1
  N  N290  1  0.86660000  0.62240000  0.22541000  1
  N  N291  1  0.87890000  0.73630000  0.88112000  1
  N  N292  1  0.88220000  0.24010000  0.51670000  1
  N  N293  1  0.88710000  0.22190000  0.19512000  1
  N  N294  1  0.89770000  0.80230000  0.55806000  1
  N  N295  1  0.91430000  0.38260000  0.85626000  1
  O  O296  1  0.03050000  0.06040000  0.25010000  1
  O  O297  1  0.03770000  0.15430000  0.61999000  1
  O  O298  1  0.03820000  0.82750000  0.12167000  1
  O  O299  1  0.05640000  0.03450000  0.92730000  1
  O  O300  1  0.06730000  0.24020000  0.94968000  1
  O  O301  1  0.07230000  0.62400000  0.23319000  1
  O  O302  1  0.07890000  0.82190000  0.98266000  1
  O  O303  1  0.08130000  0.23230000  0.52868000  1
  O  O304  1  0.08200000  0.78220000  0.30887000  1
  O  O305  1  0.08270000  0.74590000  0.89221000  1
  O  O306  1  0.08450000  0.20740000  0.20336000  1
  O  O307  1  0.09140000  0.73110000  0.21636000  1
  O  O308  1  0.09680000  0.92820000  0.64370000  1
  O  O309  1  0.09860000  0.12680000  0.52795000  1
  O  O310  1  0.10000000  0.28260000  0.85418000  1
  O  O311  1  0.10100000  0.79870000  0.57074000  1
  O  O312  1  0.11010000  0.12080000  0.16330000  1
  O  O313  1  0.12070000  0.98470000  0.27130000  1
  O  O314  1  0.12200000  0.16710000  0.68084000  1
  O  O315  1  0.12420000  0.39170000  0.86407000  1
  O  O316  1  0.13120000  0.90090000  0.54590000  1
  O  O317  1  0.14100000  0.16250000  0.92160000  1
  O  O318  1  0.16050000  0.84910000  0.89090000  1
  O  O319  1  0.16820000  0.82580000  0.04152000  1
  O  O320  1  0.19160000  0.86100000  0.28250000  1
  O  O321  1  0.21300000  0.01410000  0.65370000  1
  O  O322  1  0.28700000  0.48590000  0.15370000  1
  O  O323  1  0.30840000  0.63900000  0.78250000  1
  O  O324  1  0.33180000  0.67420000  0.54152000  1
  O  O325  1  0.33950000  0.65090000  0.39090000  1
  O  O326  1  0.35900000  0.33750000  0.42160000  1
  O  O327  1  0.36880000  0.59910000  0.04590000  1
  O  O328  1  0.37580000  0.10830000  0.36407000  1
  O  O329  1  0.37800000  0.33290000  0.18084000  1
  O  O330  1  0.37930000  0.51530000  0.77130000  1
  O  O331  1  0.38990000  0.37920000  0.66330000  1
  O  O332  1  0.39900000  0.70130000  0.07074000  1
  O  O333  1  0.40000000  0.21740000  0.35418000  1
  O  O334  1  0.40140000  0.37320000  0.02795000  1
  O  O335  1  0.40320000  0.57180000  0.14370000  1
  O  O336  1  0.40860000  0.76890000  0.71636000  1
  O  O337  1  0.41550000  0.29260000  0.70336000  1
  O  O338  1  0.41730000  0.75410000  0.39221000  1
  O  O339  1  0.41800000  0.71780000  0.80887000  1
  O  O340  1  0.41870000  0.26770000  0.02868000  1
  O  O341  1  0.42110000  0.67810000  0.48266000  1
  O  O342  1  0.42770000  0.87600000  0.73319000  1
  O  O343  1  0.43270000  0.25980000  0.44968000  1
  O  O344  1  0.44360000  0.46550000  0.42730000  1
  O  O345  1  0.46180000  0.67250000  0.62167000  1
  O  O346  1  0.46230000  0.34570000  0.11999000  1
  O  O347  1  0.46950000  0.43960000  0.75010000  1
  O  O348  1  0.53050000  0.56040000  0.24990000  1
  O  O349  1  0.53770000  0.65430000  0.88001000  1
  O  O350  1  0.53820000  0.32750000  0.37833000  1
  O  O351  1  0.55640000  0.53450000  0.57270000  1
  O  O352  1  0.56730000  0.74020000  0.55032000  1
  O  O353  1  0.57230000  0.12400000  0.26681000  1
  O  O354  1  0.57890000  0.32190000  0.51734000  1
  O  O355  1  0.58130000  0.73230000  0.97132000  1
  O  O356  1  0.58200000  0.28220000  0.19113000  1
  O  O357  1  0.58270000  0.24590000  0.60779000  1
  O  O358  1  0.58450000  0.70740000  0.29664000  1
  O  O359  1  0.59140000  0.23110000  0.28364000  1
  O  O360  1  0.59680000  0.42820000  0.85630000  1
  O  O361  1  0.59860000  0.62680000  0.97205000  1
  O  O362  1  0.60000000  0.78260000  0.64582000  1
  O  O363  1  0.60100000  0.29870000  0.92926000  1
  O  O364  1  0.61010000  0.62080000  0.33670000  1
  O  O365  1  0.62070000  0.48470000  0.22870000  1
  O  O366  1  0.62200000  0.66710000  0.81916000  1
  O  O367  1  0.62420000  0.89170000  0.63593000  1
  O  O368  1  0.63120000  0.40090000  0.95410000  1
  O  O369  1  0.64100000  0.66250000  0.57840000  1
  O  O370  1  0.66050000  0.34910000  0.60910000  1
  O  O371  1  0.66820000  0.32580000  0.45848000  1
  O  O372  1  0.69160000  0.36100000  0.21750000  1
  O  O373  1  0.71300000  0.51410000  0.84630000  1
  O  O374  1  0.78700000  0.98590000  0.34630000  1
  O  O375  1  0.80840000  0.13900000  0.71750000  1
  O  O376  1  0.83180000  0.17420000  0.95848000  1
  O  O377  1  0.83950000  0.15090000  0.10910000  1
  O  O378  1  0.85900000  0.83750000  0.07840000  1
  O  O379  1  0.86880000  0.09910000  0.45410000  1
  O  O380  1  0.87580000  0.60830000  0.13593000  1
  O  O381  1  0.87800000  0.83290000  0.31916000  1
  O  O382  1  0.87930000  0.01530000  0.72870000  1
  O  O383  1  0.88990000  0.87920000  0.83670000  1
  O  O384  1  0.89900000  0.20130000  0.42926000  1
  O  O385  1  0.90000000  0.71740000  0.14582000  1
  O  O386  1  0.90140000  0.87320000  0.47205000  1
  O  O387  1  0.90320000  0.07180000  0.35630000  1
  O  O388  1  0.90860000  0.26890000  0.78364000  1
  O  O389  1  0.91550000  0.79260000  0.79664000  1
  O  O390  1  0.91730000  0.25410000  0.10779000  1
  O  O391  1  0.91800000  0.21780000  0.69113000  1
  O  O392  1  0.91870000  0.76770000  0.47132000  1
  O  O393  1  0.92110000  0.17810000  0.01734000  1
  O  O394  1  0.92770000  0.37600000  0.76681000  1
  O  O395  1  0.93270000  0.75980000  0.05032000  1
  O  O396  1  0.94360000  0.96550000  0.07270000  1
  O  O397  1  0.96180000  0.17250000  0.87833000  1
  O  O398  1  0.96230000  0.84570000  0.38001000  1
  O  O399  1  0.96950000  0.93960000  0.74990000  1
