# generated using pymatgen
data_CoH16C24(NO2)2
_symmetry_space_group_name_H-M   'P 1'
_cell_length_a   12.69500000
_cell_length_b   22.69040000
_cell_length_c   22.69040000
_cell_angle_alpha   90.00000000
_cell_angle_beta   90.00000000
_cell_angle_gamma   90.00000000
_symmetry_Int_Tables_number   1
_chemical_formula_structural   CoH16C24(NO2)2
_chemical_formula_sum   'Co8 H128 C192 N16 O32'
_cell_volume   6536.07473117
_cell_formula_units_Z   8
loop_
 _symmetry_equiv_pos_site_id
 _symmetry_equiv_pos_as_xyz
  1  'x, y, z'
loop_
 _atom_site_type_symbol
 _atom_site_label
 _atom_site_symmetry_multiplicity
 _atom_site_fract_x
 _atom_site_fract_y
 _atom_site_fract_z
 _atom_site_occupancy
  Co  Co0  1  0.25335000  0.24086000  0.23208000  1
  Co  Co1  1  0.25335000  0.26792000  0.74086000  1
  Co  Co2  1  0.25335000  0.73208000  0.25914000  1
  Co  Co3  1  0.25335000  0.75914000  0.76792000  1
  Co  Co4  1  0.74665000  0.23208000  0.24086000  1
  Co  Co5  1  0.74665000  0.25914000  0.73208000  1
  Co  Co6  1  0.74665000  0.74086000  0.26792000  1
  Co  Co7  1  0.74665000  0.76792000  0.75914000  1
  H  H8  1  0.02000000  0.13800000  0.77720000  1
  H  H9  1  0.02000000  0.27720000  0.36200000  1
  H  H10  1  0.02000000  0.72280000  0.63800000  1
  H  H11  1  0.02000000  0.86200000  0.22280000  1
  H  H12  1  0.04070000  0.19640000  0.26530000  1
  H  H13  1  0.04070000  0.23470000  0.69640000  1
  H  H14  1  0.04070000  0.76530000  0.30360000  1
  H  H15  1  0.04070000  0.80360000  0.73470000  1
  H  H16  1  0.05120000  0.27590000  0.10750000  1
  H  H17  1  0.05120000  0.39250000  0.77590000  1
  H  H18  1  0.05120000  0.60750000  0.22410000  1
  H  H19  1  0.05120000  0.72410000  0.89250000  1
  H  H20  1  0.10040000  0.32500000  0.02820000  1
  H  H21  1  0.10040000  0.47180000  0.82500000  1
  H  H22  1  0.10040000  0.52820000  0.17500000  1
  H  H23  1  0.10040000  0.67500000  0.97180000  1
  H  H24  1  0.11270000  0.04980000  0.78110000  1
  H  H25  1  0.11270000  0.28110000  0.45020000  1
  H  H26  1  0.11270000  0.71890000  0.54980000  1
  H  H27  1  0.11270000  0.95020000  0.21890000  1
  H  H28  1  0.19550000  0.32940000  0.93930000  1
  H  H29  1  0.19550000  0.43930000  0.17060000  1
  H  H30  1  0.19550000  0.56070000  0.82940000  1
  H  H31  1  0.19550000  0.67060000  0.06070000  1
  H  H32  1  0.22300000  0.02130000  0.25950000  1
  H  H33  1  0.22300000  0.24050000  0.52130000  1
  H  H34  1  0.22300000  0.75950000  0.47870000  1
  H  H35  1  0.22300000  0.97870000  0.74050000  1
  H  H36  1  0.23870000  0.15540000  0.81270000  1
  H  H37  1  0.23870000  0.31270000  0.34460000  1
  H  H38  1  0.23870000  0.68730000  0.65540000  1
  H  H39  1  0.23870000  0.84460000  0.18730000  1
  H  H40  1  0.24880000  0.22470000  0.02200000  1
  H  H41  1  0.24880000  0.47800000  0.72470000  1
  H  H42  1  0.24880000  0.52200000  0.27530000  1
  H  H43  1  0.24880000  0.77530000  0.97800000  1
  H  H44  1  0.30730000  0.11040000  0.24940000  1
  H  H45  1  0.30730000  0.25060000  0.61040000  1
  H  H46  1  0.30730000  0.74940000  0.38960000  1
  H  H47  1  0.30730000  0.88960000  0.75060000  1
  H  H48  1  0.33440000  0.07060000  0.83450000  1
  H  H49  1  0.33440000  0.33450000  0.42940000  1
  H  H50  1  0.33440000  0.66550000  0.57060000  1
  H  H51  1  0.33440000  0.92940000  0.16550000  1
  H  H52  1  0.33640000  0.22460000  0.93300000  1
  H  H53  1  0.33640000  0.43300000  0.27540000  1
  H  H54  1  0.33640000  0.56700000  0.72460000  1
  H  H55  1  0.33640000  0.77540000  0.06700000  1
  H  H56  1  0.38970000  0.01750000  0.19120000  1
  H  H57  1  0.38970000  0.30880000  0.51750000  1
  H  H58  1  0.38970000  0.69120000  0.48250000  1
  H  H59  1  0.38970000  0.98250000  0.80880000  1
  H  H60  1  0.43940000  0.27750000  0.87250000  1
  H  H61  1  0.43940000  0.37250000  0.22250000  1
  H  H62  1  0.43940000  0.62750000  0.77750000  1
  H  H63  1  0.43940000  0.72250000  0.12750000  1
  H  H64  1  0.46130000  0.20840000  0.28640000  1
  H  H65  1  0.46130000  0.21360000  0.70840000  1
  H  H66  1  0.46130000  0.78640000  0.29160000  1
  H  H67  1  0.46130000  0.79160000  0.71360000  1
  H  H68  1  0.48170000  0.10790000  0.19240000  1
  H  H69  1  0.48170000  0.30760000  0.60790000  1
  H  H70  1  0.48170000  0.69240000  0.39210000  1
  H  H71  1  0.48170000  0.89210000  0.80760000  1
  H  H72  1  0.51830000  0.19240000  0.10790000  1
  H  H73  1  0.51830000  0.39210000  0.69240000  1
  H  H74  1  0.51830000  0.60790000  0.30760000  1
  H  H75  1  0.51830000  0.80760000  0.89210000  1
  H  H76  1  0.53870000  0.28640000  0.20840000  1
  H  H77  1  0.53870000  0.29160000  0.78640000  1
  H  H78  1  0.53870000  0.70840000  0.21360000  1
  H  H79  1  0.53870000  0.71360000  0.79160000  1
  H  H80  1  0.56060000  0.12750000  0.72250000  1
  H  H81  1  0.56060000  0.22250000  0.37250000  1
  H  H82  1  0.56060000  0.77750000  0.62750000  1
  H  H83  1  0.56060000  0.87250000  0.27750000  1
  H  H84  1  0.61030000  0.19120000  0.01750000  1
  H  H85  1  0.61030000  0.48250000  0.69120000  1
  H  H86  1  0.61030000  0.51750000  0.30880000  1
  H  H87  1  0.61030000  0.80880000  0.98250000  1
  H  H88  1  0.66360000  0.06700000  0.77540000  1
  H  H89  1  0.66360000  0.27540000  0.43300000  1
  H  H90  1  0.66360000  0.72460000  0.56700000  1
  H  H91  1  0.66360000  0.93300000  0.22460000  1
  H  H92  1  0.66560000  0.16550000  0.92940000  1
  H  H93  1  0.66560000  0.42940000  0.33450000  1
  H  H94  1  0.66560000  0.57060000  0.66550000  1
  H  H95  1  0.66560000  0.83450000  0.07060000  1
  H  H96  1  0.69270000  0.24940000  0.11040000  1
  H  H97  1  0.69270000  0.38960000  0.74940000  1
  H  H98  1  0.69270000  0.61040000  0.25060000  1
  H  H99  1  0.69270000  0.75060000  0.88960000  1
  H  H100  1  0.75120000  0.02200000  0.22470000  1
  H  H101  1  0.75120000  0.27530000  0.52200000  1
  H  H102  1  0.75120000  0.72470000  0.47800000  1
  H  H103  1  0.75120000  0.97800000  0.77530000  1
  H  H104  1  0.76130000  0.18730000  0.84460000  1
  H  H105  1  0.76130000  0.34460000  0.31270000  1
  H  H106  1  0.76130000  0.65540000  0.68730000  1
  H  H107  1  0.76130000  0.81270000  0.15540000  1
  H  H108  1  0.77700000  0.25950000  0.02130000  1
  H  H109  1  0.77700000  0.47870000  0.75950000  1
  H  H110  1  0.77700000  0.52130000  0.24050000  1
  H  H111  1  0.77700000  0.74050000  0.97870000  1
  H  H112  1  0.80450000  0.06070000  0.67060000  1
  H  H113  1  0.80450000  0.17060000  0.43930000  1
  H  H114  1  0.80450000  0.82940000  0.56070000  1
  H  H115  1  0.80450000  0.93930000  0.32940000  1
  H  H116  1  0.88730000  0.21890000  0.95020000  1
  H  H117  1  0.88730000  0.45020000  0.28110000  1
  H  H118  1  0.88730000  0.54980000  0.71890000  1
  H  H119  1  0.88730000  0.78110000  0.04980000  1
  H  H120  1  0.89960000  0.02820000  0.32500000  1
  H  H121  1  0.89960000  0.17500000  0.52820000  1
  H  H122  1  0.89960000  0.82500000  0.47180000  1
  H  H123  1  0.89960000  0.97180000  0.67500000  1
  H  H124  1  0.94880000  0.10750000  0.27590000  1
  H  H125  1  0.94880000  0.22410000  0.60750000  1
  H  H126  1  0.94880000  0.77590000  0.39250000  1
  H  H127  1  0.94880000  0.89250000  0.72410000  1
  H  H128  1  0.95930000  0.26530000  0.19640000  1
  H  H129  1  0.95930000  0.30360000  0.76530000  1
  H  H130  1  0.95930000  0.69640000  0.23470000  1
  H  H131  1  0.95930000  0.73470000  0.80360000  1
  H  H132  1  0.98000000  0.22280000  0.86200000  1
  H  H133  1  0.98000000  0.36200000  0.27720000  1
  H  H134  1  0.98000000  0.63800000  0.72280000  1
  H  H135  1  0.98000000  0.77720000  0.13800000  1
  C  C136  1  0.00540000  0.24340000  0.89560000  1
  C  C137  1  0.00540000  0.39560000  0.25660000  1
  C  C138  1  0.00540000  0.60440000  0.74340000  1
  C  C139  1  0.00540000  0.75660000  0.10440000  1
  C  C140  1  0.01560000  0.00170000  0.72760000  1
  C  C141  1  0.01560000  0.22760000  0.49830000  1
  C  C142  1  0.01560000  0.77240000  0.50170000  1
  C  C143  1  0.01560000  0.99830000  0.27240000  1
  C  C144  1  0.02280000  0.10690000  0.26970000  1
  C  C145  1  0.02280000  0.23030000  0.60690000  1
  C  C146  1  0.02280000  0.76970000  0.39310000  1
  C  C147  1  0.02280000  0.89310000  0.73030000  1
  C  C148  1  0.04990000  0.05200000  0.75850000  1
  C  C149  1  0.04990000  0.25850000  0.44800000  1
  C  C150  1  0.04990000  0.74150000  0.55200000  1
  C  C151  1  0.04990000  0.94800000  0.24150000  1
  C  C152  1  0.07520000  0.05430000  0.26700000  1
  C  C153  1  0.07520000  0.23300000  0.55430000  1
  C  C154  1  0.07520000  0.76700000  0.44570000  1
  C  C155  1  0.07520000  0.94570000  0.73300000  1
  C  C156  1  0.07550000  0.30420000  0.99460000  1
  C  C157  1  0.07550000  0.49460000  0.19580000  1
  C  C158  1  0.07550000  0.50540000  0.80420000  1
  C  C159  1  0.07550000  0.69580000  0.00540000  1
  C  C160  1  0.07820000  0.16020000  0.26320000  1
  C  C161  1  0.07820000  0.23680000  0.66020000  1
  C  C162  1  0.07820000  0.76320000  0.33980000  1
  C  C163  1  0.07820000  0.83980000  0.73680000  1
  C  C164  1  0.09810000  0.27530000  0.89240000  1
  C  C165  1  0.09810000  0.39240000  0.22470000  1
  C  C166  1  0.09810000  0.60760000  0.77530000  1
  C  C167  1  0.09810000  0.72470000  0.10760000  1
  C  C168  1  0.13300000  0.30650000  0.94160000  1
  C  C169  1  0.13300000  0.44160000  0.19350000  1
  C  C170  1  0.13300000  0.55840000  0.80650000  1
  C  C171  1  0.13300000  0.69350000  0.05840000  1
  C  C172  1  0.16220000  0.27470000  0.83720000  1
  C  C173  1  0.16220000  0.33720000  0.22530000  1
  C  C174  1  0.16220000  0.66280000  0.77470000  1
  C  C175  1  0.16220000  0.72530000  0.16280000  1
  C  C176  1  0.18310000  0.05670000  0.26010000  1
  C  C177  1  0.18310000  0.23990000  0.55670000  1
  C  C178  1  0.18310000  0.76010000  0.44330000  1
  C  C179  1  0.18310000  0.94330000  0.73990000  1
  C  C180  1  0.23300000  0.11000000  0.25400000  1
  C  C181  1  0.23300000  0.24600000  0.61000000  1
  C  C182  1  0.23300000  0.75400000  0.39000000  1
  C  C183  1  0.23300000  0.89000000  0.74600000  1
  C  C184  1  0.30510000  0.14970000  0.79410000  1
  C  C185  1  0.30510000  0.29410000  0.35030000  1
  C  C186  1  0.30510000  0.70590000  0.64970000  1
  C  C187  1  0.30510000  0.85030000  0.20590000  1
  C  C188  1  0.31980000  0.21450000  0.13270000  1
  C  C189  1  0.31980000  0.36730000  0.71450000  1
  C  C190  1  0.31980000  0.63270000  0.28550000  1
  C  C191  1  0.31980000  0.78550000  0.86730000  1
  C  C192  1  0.32270000  0.21840000  0.02120000  1
  C  C193  1  0.32270000  0.47880000  0.71840000  1
  C  C194  1  0.32270000  0.52120000  0.28160000  1
  C  C195  1  0.32270000  0.78160000  0.97880000  1
  C  C196  1  0.36150000  0.09880000  0.80740000  1
  C  C197  1  0.36150000  0.30740000  0.40120000  1
  C  C198  1  0.36150000  0.69260000  0.59880000  1
  C  C199  1  0.36150000  0.90120000  0.19260000  1
  C  C200  1  0.37500000  0.21930000  0.96850000  1
  C  C201  1  0.37500000  0.46850000  0.28070000  1
  C  C202  1  0.37500000  0.53150000  0.71930000  1
  C  C203  1  0.37500000  0.78070000  0.03150000  1
  C  C204  1  0.37610000  0.20840000  0.07280000  1
  C  C205  1  0.37610000  0.42720000  0.70840000  1
  C  C206  1  0.37610000  0.57280000  0.29160000  1
  C  C207  1  0.37610000  0.79160000  0.92720000  1
  C  C208  1  0.43320000  0.18350000  0.73290000  1
  C  C209  1  0.43320000  0.23290000  0.31650000  1
  C  C210  1  0.43320000  0.76710000  0.68350000  1
  C  C211  1  0.43320000  0.81650000  0.26710000  1
  C  C212  1  0.45700000  0.09020000  0.78050000  1
  C  C213  1  0.45700000  0.28050000  0.40980000  1
  C  C214  1  0.45700000  0.71950000  0.59020000  1
  C  C215  1  0.45700000  0.90980000  0.21950000  1
  C  C216  1  0.46300000  0.01830000  0.19970000  1
  C  C217  1  0.46300000  0.30030000  0.51830000  1
  C  C218  1  0.46300000  0.69970000  0.48170000  1
  C  C219  1  0.46300000  0.98170000  0.80030000  1
  C  C220  1  0.48160000  0.19920000  0.07210000  1
  C  C221  1  0.48160000  0.42790000  0.69920000  1
  C  C222  1  0.48160000  0.57210000  0.30080000  1
  C  C223  1  0.48160000  0.80080000  0.92790000  1
  C  C224  1  0.48380000  0.21260000  0.96610000  1
  C  C225  1  0.48380000  0.46610000  0.28740000  1
  C  C226  1  0.48380000  0.53390000  0.71260000  1
  C  C227  1  0.48380000  0.78740000  0.03390000  1
  C  C228  1  0.49500000  0.13250000  0.74210000  1
  C  C229  1  0.49500000  0.24210000  0.36750000  1
  C  C230  1  0.49500000  0.75790000  0.63250000  1
  C  C231  1  0.49500000  0.86750000  0.25790000  1
  C  C232  1  0.50500000  0.25790000  0.86750000  1
  C  C233  1  0.50500000  0.36750000  0.24210000  1
  C  C234  1  0.50500000  0.63250000  0.75790000  1
  C  C235  1  0.50500000  0.74210000  0.13250000  1
  C  C236  1  0.51620000  0.03390000  0.78740000  1
  C  C237  1  0.51620000  0.28740000  0.46610000  1
  C  C238  1  0.51620000  0.71260000  0.53390000  1
  C  C239  1  0.51620000  0.96610000  0.21260000  1
  C  C240  1  0.51840000  0.07210000  0.19920000  1
  C  C241  1  0.51840000  0.30080000  0.57210000  1
  C  C242  1  0.51840000  0.69920000  0.42790000  1
  C  C243  1  0.51840000  0.92790000  0.80080000  1
  C  C244  1  0.53700000  0.19970000  0.01830000  1
  C  C245  1  0.53700000  0.48170000  0.69970000  1
  C  C246  1  0.53700000  0.51830000  0.30030000  1
  C  C247  1  0.53700000  0.80030000  0.98170000  1
  C  C248  1  0.54300000  0.21950000  0.90980000  1
  C  C249  1  0.54300000  0.40980000  0.28050000  1
  C  C250  1  0.54300000  0.59020000  0.71950000  1
  C  C251  1  0.54300000  0.78050000  0.09020000  1
  C  C252  1  0.56680000  0.26710000  0.81650000  1
  C  C253  1  0.56680000  0.31650000  0.23290000  1
  C  C254  1  0.56680000  0.68350000  0.76710000  1
  C  C255  1  0.56680000  0.73290000  0.18350000  1
  C  C256  1  0.62390000  0.07280000  0.20840000  1
  C  C257  1  0.62390000  0.29160000  0.57280000  1
  C  C258  1  0.62390000  0.70840000  0.42720000  1
  C  C259  1  0.62390000  0.92720000  0.79160000  1
  C  C260  1  0.62500000  0.03150000  0.78070000  1
  C  C261  1  0.62500000  0.28070000  0.46850000  1
  C  C262  1  0.62500000  0.71930000  0.53150000  1
  C  C263  1  0.62500000  0.96850000  0.21930000  1
  C  C264  1  0.63850000  0.19260000  0.90120000  1
  C  C265  1  0.63850000  0.40120000  0.30740000  1
  C  C266  1  0.63850000  0.59880000  0.69260000  1
  C  C267  1  0.63850000  0.80740000  0.09880000  1
  C  C268  1  0.67730000  0.02120000  0.21840000  1
  C  C269  1  0.67730000  0.28160000  0.52120000  1
  C  C270  1  0.67730000  0.71840000  0.47880000  1
  C  C271  1  0.67730000  0.97880000  0.78160000  1
  C  C272  1  0.68020000  0.13270000  0.21450000  1
  C  C273  1  0.68020000  0.28550000  0.63270000  1
  C  C274  1  0.68020000  0.71450000  0.36730000  1
  C  C275  1  0.68020000  0.86730000  0.78550000  1
  C  C276  1  0.69490000  0.20590000  0.85030000  1
  C  C277  1  0.69490000  0.35030000  0.29410000  1
  C  C278  1  0.69490000  0.64970000  0.70590000  1
  C  C279  1  0.69490000  0.79410000  0.14970000  1
  C  C280  1  0.76700000  0.25400000  0.11000000  1
  C  C281  1  0.76700000  0.39000000  0.75400000  1
  C  C282  1  0.76700000  0.61000000  0.24600000  1
  C  C283  1  0.76700000  0.74600000  0.89000000  1
  C  C284  1  0.81690000  0.26010000  0.05670000  1
  C  C285  1  0.81690000  0.44330000  0.76010000  1
  C  C286  1  0.81690000  0.55670000  0.23990000  1
  C  C287  1  0.81690000  0.73990000  0.94330000  1
  C  C288  1  0.83780000  0.16280000  0.72530000  1
  C  C289  1  0.83780000  0.22530000  0.33720000  1
  C  C290  1  0.83780000  0.77470000  0.66280000  1
  C  C291  1  0.83780000  0.83720000  0.27470000  1
  C  C292  1  0.86700000  0.05840000  0.69350000  1
  C  C293  1  0.86700000  0.19350000  0.44160000  1
  C  C294  1  0.86700000  0.80650000  0.55840000  1
  C  C295  1  0.86700000  0.94160000  0.30650000  1
  C  C296  1  0.90190000  0.10760000  0.72470000  1
  C  C297  1  0.90190000  0.22470000  0.39240000  1
  C  C298  1  0.90190000  0.77530000  0.60760000  1
  C  C299  1  0.90190000  0.89240000  0.27530000  1
  C  C300  1  0.92180000  0.26320000  0.16020000  1
  C  C301  1  0.92180000  0.33980000  0.76320000  1
  C  C302  1  0.92180000  0.66020000  0.23680000  1
  C  C303  1  0.92180000  0.73680000  0.83980000  1
  C  C304  1  0.92450000  0.00540000  0.69580000  1
  C  C305  1  0.92450000  0.19580000  0.49460000  1
  C  C306  1  0.92450000  0.80420000  0.50540000  1
  C  C307  1  0.92450000  0.99460000  0.30420000  1
  C  C308  1  0.92480000  0.26700000  0.05430000  1
  C  C309  1  0.92480000  0.44570000  0.76700000  1
  C  C310  1  0.92480000  0.55430000  0.23300000  1
  C  C311  1  0.92480000  0.73300000  0.94570000  1
  C  C312  1  0.95010000  0.24150000  0.94800000  1
  C  C313  1  0.95010000  0.44800000  0.25850000  1
  C  C314  1  0.95010000  0.55200000  0.74150000  1
  C  C315  1  0.95010000  0.75850000  0.05200000  1
  C  C316  1  0.97720000  0.26970000  0.10690000  1
  C  C317  1  0.97720000  0.39310000  0.76970000  1
  C  C318  1  0.97720000  0.60690000  0.23030000  1
  C  C319  1  0.97720000  0.73030000  0.89310000  1
  C  C320  1  0.98440000  0.27240000  0.99830000  1
  C  C321  1  0.98440000  0.49830000  0.22760000  1
  C  C322  1  0.98440000  0.50170000  0.77240000  1
  C  C323  1  0.98440000  0.72760000  0.00170000  1
  C  C324  1  0.99460000  0.10440000  0.75660000  1
  C  C325  1  0.99460000  0.25660000  0.39560000  1
  C  C326  1  0.99460000  0.74340000  0.60440000  1
  C  C327  1  0.99460000  0.89560000  0.24340000  1
  N  N328  1  0.18130000  0.16130000  0.25430000  1
  N  N329  1  0.18130000  0.24570000  0.66130000  1
  N  N330  1  0.18130000  0.75430000  0.33870000  1
  N  N331  1  0.18130000  0.83870000  0.74570000  1
  N  N332  1  0.33990000  0.19200000  0.75590000  1
  N  N333  1  0.33990000  0.25590000  0.30800000  1
  N  N334  1  0.33990000  0.74410000  0.69200000  1
  N  N335  1  0.33990000  0.80800000  0.24410000  1
  N  N336  1  0.66010000  0.24410000  0.80800000  1
  N  N337  1  0.66010000  0.30800000  0.25590000  1
  N  N338  1  0.66010000  0.69200000  0.74410000  1
  N  N339  1  0.66010000  0.75590000  0.19200000  1
  N  N340  1  0.81870000  0.25430000  0.16130000  1
  N  N341  1  0.81870000  0.33870000  0.75430000  1
  N  N342  1  0.81870000  0.66130000  0.24570000  1
  N  N343  1  0.81870000  0.74570000  0.83870000  1
  O  O344  1  0.12300000  0.24942000  0.79206000  1
  O  O345  1  0.12300000  0.29206000  0.25058000  1
  O  O346  1  0.12300000  0.70794000  0.74942000  1
  O  O347  1  0.12300000  0.75058000  0.20794000  1
  O  O348  1  0.22270000  0.22120000  0.13335000  1
  O  O349  1  0.22270000  0.36665000  0.72120000  1
  O  O350  1  0.22270000  0.63335000  0.27880000  1
  O  O351  1  0.22270000  0.77880000  0.86665000  1
  O  O352  1  0.25320000  0.29381000  0.83654000  1
  O  O353  1  0.25320000  0.33654000  0.20619000  1
  O  O354  1  0.25320000  0.66346000  0.79381000  1
  O  O355  1  0.25320000  0.70619000  0.16346000  1
  O  O356  1  0.37490000  0.21404000  0.17862000  1
  O  O357  1  0.37490000  0.32138000  0.71404000  1
  O  O358  1  0.37490000  0.67862000  0.28596000  1
  O  O359  1  0.37490000  0.78596000  0.82138000  1
  O  O360  1  0.62510000  0.17862000  0.21404000  1
  O  O361  1  0.62510000  0.28596000  0.67862000  1
  O  O362  1  0.62510000  0.71404000  0.32138000  1
  O  O363  1  0.62510000  0.82138000  0.78596000  1
  O  O364  1  0.74680000  0.16346000  0.70619000  1
  O  O365  1  0.74680000  0.20619000  0.33654000  1
  O  O366  1  0.74680000  0.79381000  0.66346000  1
  O  O367  1  0.74680000  0.83654000  0.29381000  1
  O  O368  1  0.77730000  0.13335000  0.22120000  1
  O  O369  1  0.77730000  0.27880000  0.63335000  1
  O  O370  1  0.77730000  0.72120000  0.36665000  1
  O  O371  1  0.77730000  0.86665000  0.77880000  1
  O  O372  1  0.87700000  0.20794000  0.75058000  1
  O  O373  1  0.87700000  0.25058000  0.29206000  1
  O  O374  1  0.87700000  0.74942000  0.70794000  1
  O  O375  1  0.87700000  0.79206000  0.24942000  1
