# generated using pymatgen
data_Cu2H4C8O9
_symmetry_space_group_name_H-M   'P 1'
_cell_length_a   20.27600000
_cell_length_b   20.27600000
_cell_length_c   20.27600000
_cell_angle_alpha   90.00000000
_cell_angle_beta   90.00000000
_cell_angle_gamma   90.00000000
_symmetry_Int_Tables_number   1
_chemical_formula_structural   Cu2H4C8O9
_chemical_formula_sum   'Cu48 H96 C192 O216'
_cell_volume   8335.79158458
_cell_formula_units_Z   24
loop_
 _symmetry_equiv_pos_site_id
 _symmetry_equiv_pos_as_xyz
  1  'x, y, z'
loop_
 _atom_site_type_symbol
 _atom_site_label
 _atom_site_symmetry_multiplicity
 _atom_site_fract_x
 _atom_site_fract_y
 _atom_site_fract_z
 _atom_site_occupancy
  Cu  Cu0  1  0.00424000  0.55222000  0.27044000  1
  Cu  Cu1  1  0.00424000  0.94778000  0.77044000  1
  Cu  Cu2  1  0.05222000  0.22956000  0.99576000  1
  Cu  Cu3  1  0.05222000  0.27044000  0.49576000  1
  Cu  Cu4  1  0.10641000  0.63910000  0.15493000  1
  Cu  Cu5  1  0.10641000  0.86090000  0.65493000  1
  Cu  Cu6  1  0.13910000  0.15493000  0.39359000  1
  Cu  Cu7  1  0.13910000  0.34507000  0.89359000  1
  Cu  Cu8  1  0.15493000  0.10641000  0.63910000  1
  Cu  Cu9  1  0.15493000  0.39359000  0.13910000  1
  Cu  Cu10  1  0.22956000  0.50424000  0.55222000  1
  Cu  Cu11  1  0.22956000  0.99576000  0.05222000  1
  Cu  Cu12  1  0.27044000  0.00424000  0.55222000  1
  Cu  Cu13  1  0.27044000  0.49576000  0.05222000  1
  Cu  Cu14  1  0.34507000  0.60641000  0.63910000  1
  Cu  Cu15  1  0.34507000  0.89359000  0.13910000  1
  Cu  Cu16  1  0.36090000  0.65493000  0.39359000  1
  Cu  Cu17  1  0.36090000  0.84507000  0.89359000  1
  Cu  Cu18  1  0.39359000  0.13910000  0.15493000  1
  Cu  Cu19  1  0.39359000  0.36090000  0.65493000  1
  Cu  Cu20  1  0.44778000  0.72956000  0.99576000  1
  Cu  Cu21  1  0.44778000  0.77044000  0.49576000  1
  Cu  Cu22  1  0.49576000  0.05222000  0.27044000  1
  Cu  Cu23  1  0.49576000  0.44778000  0.77044000  1
  Cu  Cu24  1  0.50424000  0.55222000  0.22956000  1
  Cu  Cu25  1  0.50424000  0.94778000  0.72956000  1
  Cu  Cu26  1  0.55222000  0.22956000  0.50424000  1
  Cu  Cu27  1  0.55222000  0.27044000  0.00424000  1
  Cu  Cu28  1  0.60641000  0.63910000  0.34507000  1
  Cu  Cu29  1  0.60641000  0.86090000  0.84507000  1
  Cu  Cu30  1  0.63910000  0.15493000  0.10641000  1
  Cu  Cu31  1  0.63910000  0.34507000  0.60641000  1
  Cu  Cu32  1  0.65493000  0.10641000  0.86090000  1
  Cu  Cu33  1  0.65493000  0.39359000  0.36090000  1
  Cu  Cu34  1  0.72956000  0.50424000  0.94778000  1
  Cu  Cu35  1  0.72956000  0.99576000  0.44778000  1
  Cu  Cu36  1  0.77044000  0.00424000  0.94778000  1
  Cu  Cu37  1  0.77044000  0.49576000  0.44778000  1
  Cu  Cu38  1  0.84507000  0.60641000  0.86090000  1
  Cu  Cu39  1  0.84507000  0.89359000  0.36090000  1
  Cu  Cu40  1  0.86090000  0.65493000  0.10641000  1
  Cu  Cu41  1  0.86090000  0.84507000  0.60641000  1
  Cu  Cu42  1  0.89359000  0.13910000  0.34507000  1
  Cu  Cu43  1  0.89359000  0.36090000  0.84507000  1
  Cu  Cu44  1  0.94778000  0.72956000  0.50424000  1
  Cu  Cu45  1  0.94778000  0.77044000  0.00424000  1
  Cu  Cu46  1  0.99576000  0.05222000  0.22956000  1
  Cu  Cu47  1  0.99576000  0.44778000  0.72956000  1
  H  H48  1  0.00840000  0.66700000  0.69170000  1
  H  H49  1  0.00840000  0.83300000  0.19170000  1
  H  H50  1  0.01680000  0.71060000  0.79400000  1
  H  H51  1  0.01680000  0.78940000  0.29400000  1
  H  H52  1  0.10460000  0.22590000  0.19840000  1
  H  H53  1  0.10460000  0.27410000  0.69840000  1
  H  H54  1  0.11190000  0.12950000  0.80500000  1
  H  H55  1  0.11190000  0.37050000  0.30500000  1
  H  H56  1  0.12950000  0.69500000  0.61190000  1
  H  H57  1  0.12950000  0.80500000  0.11190000  1
  H  H58  1  0.16700000  0.69170000  0.49160000  1
  H  H59  1  0.16700000  0.80830000  0.99160000  1
  H  H60  1  0.19170000  0.00840000  0.83300000  1
  H  H61  1  0.19170000  0.49160000  0.33300000  1
  H  H62  1  0.19500000  0.61190000  0.37050000  1
  H  H63  1  0.19500000  0.88810000  0.87050000  1
  H  H64  1  0.19840000  0.10460000  0.22590000  1
  H  H65  1  0.19840000  0.39540000  0.72590000  1
  H  H66  1  0.20600000  0.51680000  0.78940000  1
  H  H67  1  0.20600000  0.98320000  0.28940000  1
  H  H68  1  0.21060000  0.70600000  0.98320000  1
  H  H69  1  0.21060000  0.79400000  0.48320000  1
  H  H70  1  0.22590000  0.19840000  0.10460000  1
  H  H71  1  0.22590000  0.30160000  0.60460000  1
  H  H72  1  0.27410000  0.69840000  0.10460000  1
  H  H73  1  0.27410000  0.80160000  0.60460000  1
  H  H74  1  0.28940000  0.20600000  0.98320000  1
  H  H75  1  0.28940000  0.29400000  0.48320000  1
  H  H76  1  0.29400000  0.01680000  0.78940000  1
  H  H77  1  0.29400000  0.48320000  0.28940000  1
  H  H78  1  0.30160000  0.60460000  0.22590000  1
  H  H79  1  0.30160000  0.89540000  0.72590000  1
  H  H80  1  0.30500000  0.11190000  0.37050000  1
  H  H81  1  0.30500000  0.38810000  0.87050000  1
  H  H82  1  0.30830000  0.50840000  0.83300000  1
  H  H83  1  0.30830000  0.99160000  0.33300000  1
  H  H84  1  0.33300000  0.19170000  0.49160000  1
  H  H85  1  0.33300000  0.30830000  0.99160000  1
  H  H86  1  0.37050000  0.19500000  0.61190000  1
  H  H87  1  0.37050000  0.30500000  0.11190000  1
  H  H88  1  0.38810000  0.62950000  0.80500000  1
  H  H89  1  0.38810000  0.87050000  0.30500000  1
  H  H90  1  0.39540000  0.72590000  0.19840000  1
  H  H91  1  0.39540000  0.77410000  0.69840000  1
  H  H92  1  0.48320000  0.21060000  0.79400000  1
  H  H93  1  0.48320000  0.28940000  0.29400000  1
  H  H94  1  0.49160000  0.16700000  0.69170000  1
  H  H95  1  0.49160000  0.33300000  0.19170000  1
  H  H96  1  0.50840000  0.66700000  0.80830000  1
  H  H97  1  0.50840000  0.83300000  0.30830000  1
  H  H98  1  0.51680000  0.71060000  0.70600000  1
  H  H99  1  0.51680000  0.78940000  0.20600000  1
  H  H100  1  0.60460000  0.22590000  0.30160000  1
  H  H101  1  0.60460000  0.27410000  0.80160000  1
  H  H102  1  0.61190000  0.12950000  0.69500000  1
  H  H103  1  0.61190000  0.37050000  0.19500000  1
  H  H104  1  0.62950000  0.69500000  0.88810000  1
  H  H105  1  0.62950000  0.80500000  0.38810000  1
  H  H106  1  0.66700000  0.69170000  0.00840000  1
  H  H107  1  0.66700000  0.80830000  0.50840000  1
  H  H108  1  0.69170000  0.00840000  0.66700000  1
  H  H109  1  0.69170000  0.49160000  0.16700000  1
  H  H110  1  0.69500000  0.61190000  0.12950000  1
  H  H111  1  0.69500000  0.88810000  0.62950000  1
  H  H112  1  0.69840000  0.10460000  0.27410000  1
  H  H113  1  0.69840000  0.39540000  0.77410000  1
  H  H114  1  0.70600000  0.51680000  0.71060000  1
  H  H115  1  0.70600000  0.98320000  0.21060000  1
  H  H116  1  0.71060000  0.70600000  0.51680000  1
  H  H117  1  0.71060000  0.79400000  0.01680000  1
  H  H118  1  0.72590000  0.19840000  0.39540000  1
  H  H119  1  0.72590000  0.30160000  0.89540000  1
  H  H120  1  0.77410000  0.69840000  0.39540000  1
  H  H121  1  0.77410000  0.80160000  0.89540000  1
  H  H122  1  0.78940000  0.20600000  0.51680000  1
  H  H123  1  0.78940000  0.29400000  0.01680000  1
  H  H124  1  0.79400000  0.01680000  0.71060000  1
  H  H125  1  0.79400000  0.48320000  0.21060000  1
  H  H126  1  0.80160000  0.60460000  0.27410000  1
  H  H127  1  0.80160000  0.89540000  0.77410000  1
  H  H128  1  0.80500000  0.11190000  0.12950000  1
  H  H129  1  0.80500000  0.38810000  0.62950000  1
  H  H130  1  0.80830000  0.50840000  0.66700000  1
  H  H131  1  0.80830000  0.99160000  0.16700000  1
  H  H132  1  0.83300000  0.19170000  0.00840000  1
  H  H133  1  0.83300000  0.30830000  0.50840000  1
  H  H134  1  0.87050000  0.19500000  0.88810000  1
  H  H135  1  0.87050000  0.30500000  0.38810000  1
  H  H136  1  0.88810000  0.62950000  0.69500000  1
  H  H137  1  0.88810000  0.87050000  0.19500000  1
  H  H138  1  0.89540000  0.72590000  0.30160000  1
  H  H139  1  0.89540000  0.77410000  0.80160000  1
  H  H140  1  0.98320000  0.21060000  0.70600000  1
  H  H141  1  0.98320000  0.28940000  0.20600000  1
  H  H142  1  0.99160000  0.16700000  0.80830000  1
  H  H143  1  0.99160000  0.33300000  0.30830000  1
  C  C144  1  0.01060000  0.69770000  0.25120000  1
  C  C145  1  0.01060000  0.80230000  0.75120000  1
  C  C146  1  0.01660000  0.23360000  0.73240000  1
  C  C147  1  0.01660000  0.26640000  0.23240000  1
  C  C148  1  0.03130000  0.19050000  0.79380000  1
  C  C149  1  0.03130000  0.30950000  0.29380000  1
  C  C150  1  0.05590000  0.07920000  0.73690000  1
  C  C151  1  0.05590000  0.42080000  0.23690000  1
  C  C152  1  0.06270000  0.22830000  0.85130000  1
  C  C153  1  0.06270000  0.27170000  0.35130000  1
  C  C154  1  0.07050000  0.21820000  0.62080000  1
  C  C155  1  0.07050000  0.28180000  0.12080000  1
  C  C156  1  0.07920000  0.73690000  0.05590000  1
  C  C157  1  0.07920000  0.76310000  0.55590000  1
  C  C158  1  0.08180000  0.23170000  0.69340000  1
  C  C159  1  0.08180000  0.26830000  0.19340000  1
  C  C160  1  0.08330000  0.14210000  0.76810000  1
  C  C161  1  0.08330000  0.35790000  0.26810000  1
  C  C162  1  0.12080000  0.07050000  0.28180000  1
  C  C163  1  0.12080000  0.42950000  0.78180000  1
  C  C164  1  0.14210000  0.73190000  0.58330000  1
  C  C165  1  0.14210000  0.76810000  0.08330000  1
  C  C166  1  0.14870000  0.56270000  0.27170000  1
  C  C167  1  0.14870000  0.93730000  0.77170000  1
  C  C168  1  0.19050000  0.70620000  0.53130000  1
  C  C169  1  0.19050000  0.79380000  0.03130000  1
  C  C170  1  0.19340000  0.08180000  0.26830000  1
  C  C171  1  0.19340000  0.41820000  0.76830000  1
  C  C172  1  0.19770000  0.24880000  0.98940000  1
  C  C173  1  0.19770000  0.25120000  0.48940000  1
  C  C174  1  0.20620000  0.53130000  0.30950000  1
  C  C175  1  0.20620000  0.96870000  0.80950000  1
  C  C176  1  0.21820000  0.62080000  0.07050000  1
  C  C177  1  0.21820000  0.87920000  0.57050000  1
  C  C178  1  0.22830000  0.64870000  0.56270000  1
  C  C179  1  0.22830000  0.85130000  0.06270000  1
  C  C180  1  0.23170000  0.69340000  0.08180000  1
  C  C181  1  0.23170000  0.80660000  0.58180000  1
  C  C182  1  0.23190000  0.58330000  0.35790000  1
  C  C183  1  0.23190000  0.91670000  0.85790000  1
  C  C184  1  0.23240000  0.01660000  0.26640000  1
  C  C185  1  0.23240000  0.48340000  0.76640000  1
  C  C186  1  0.23360000  0.73240000  0.01660000  1
  C  C187  1  0.23360000  0.76760000  0.51660000  1
  C  C188  1  0.23690000  0.05590000  0.42080000  1
  C  C189  1  0.23690000  0.44410000  0.92080000  1
  C  C190  1  0.24880000  0.51060000  0.69770000  1
  C  C191  1  0.24880000  0.98940000  0.19770000  1
  C  C192  1  0.25120000  0.01060000  0.69770000  1
  C  C193  1  0.25120000  0.48940000  0.19770000  1
  C  C194  1  0.26310000  0.55590000  0.42080000  1
  C  C195  1  0.26310000  0.94410000  0.92080000  1
  C  C196  1  0.26640000  0.23240000  0.01660000  1
  C  C197  1  0.26640000  0.26760000  0.51660000  1
  C  C198  1  0.26760000  0.51660000  0.26640000  1
  C  C199  1  0.26760000  0.98340000  0.76640000  1
  C  C200  1  0.26810000  0.08330000  0.35790000  1
  C  C201  1  0.26810000  0.41670000  0.85790000  1
  C  C202  1  0.26830000  0.19340000  0.08180000  1
  C  C203  1  0.26830000  0.30660000  0.58180000  1
  C  C204  1  0.27170000  0.14870000  0.56270000  1
  C  C205  1  0.27170000  0.35130000  0.06270000  1
  C  C206  1  0.28180000  0.12080000  0.07050000  1
  C  C207  1  0.28180000  0.37920000  0.57050000  1
  C  C208  1  0.29380000  0.03130000  0.30950000  1
  C  C209  1  0.29380000  0.46870000  0.80950000  1
  C  C210  1  0.30230000  0.74880000  0.98940000  1
  C  C211  1  0.30230000  0.75120000  0.48940000  1
  C  C212  1  0.30660000  0.58180000  0.26830000  1
  C  C213  1  0.30660000  0.91820000  0.76830000  1
  C  C214  1  0.30950000  0.20620000  0.53130000  1
  C  C215  1  0.30950000  0.29380000  0.03130000  1
  C  C216  1  0.35130000  0.06270000  0.27170000  1
  C  C217  1  0.35130000  0.43730000  0.77170000  1
  C  C218  1  0.35790000  0.23190000  0.58330000  1
  C  C219  1  0.35790000  0.26810000  0.08330000  1
  C  C220  1  0.37920000  0.57050000  0.28180000  1
  C  C221  1  0.37920000  0.92950000  0.78180000  1
  C  C222  1  0.41670000  0.64210000  0.76810000  1
  C  C223  1  0.41670000  0.85790000  0.26810000  1
  C  C224  1  0.41820000  0.73170000  0.69340000  1
  C  C225  1  0.41820000  0.76830000  0.19340000  1
  C  C226  1  0.42080000  0.23690000  0.05590000  1
  C  C227  1  0.42080000  0.26310000  0.55590000  1
  C  C228  1  0.42950000  0.71820000  0.62080000  1
  C  C229  1  0.42950000  0.78180000  0.12080000  1
  C  C230  1  0.43730000  0.72830000  0.85130000  1
  C  C231  1  0.43730000  0.77170000  0.35130000  1
  C  C232  1  0.44410000  0.57920000  0.73690000  1
  C  C233  1  0.44410000  0.92080000  0.23690000  1
  C  C234  1  0.46870000  0.69050000  0.79380000  1
  C  C235  1  0.46870000  0.80950000  0.29380000  1
  C  C236  1  0.48340000  0.73360000  0.73240000  1
  C  C237  1  0.48340000  0.76640000  0.23240000  1
  C  C238  1  0.48940000  0.19770000  0.25120000  1
  C  C239  1  0.48940000  0.30230000  0.75120000  1
  C  C240  1  0.51060000  0.69770000  0.24880000  1
  C  C241  1  0.51060000  0.80230000  0.74880000  1
  C  C242  1  0.51660000  0.23360000  0.76760000  1
  C  C243  1  0.51660000  0.26640000  0.26760000  1
  C  C244  1  0.53130000  0.19050000  0.70620000  1
  C  C245  1  0.53130000  0.30950000  0.20620000  1
  C  C246  1  0.55590000  0.07920000  0.76310000  1
  C  C247  1  0.55590000  0.42080000  0.26310000  1
  C  C248  1  0.56270000  0.22830000  0.64870000  1
  C  C249  1  0.56270000  0.27170000  0.14870000  1
  C  C250  1  0.57050000  0.21820000  0.87920000  1
  C  C251  1  0.57050000  0.28180000  0.37920000  1
  C  C252  1  0.57920000  0.73690000  0.44410000  1
  C  C253  1  0.57920000  0.76310000  0.94410000  1
  C  C254  1  0.58180000  0.23170000  0.80660000  1
  C  C255  1  0.58180000  0.26830000  0.30660000  1
  C  C256  1  0.58330000  0.14210000  0.73190000  1
  C  C257  1  0.58330000  0.35790000  0.23190000  1
  C  C258  1  0.62080000  0.07050000  0.21820000  1
  C  C259  1  0.62080000  0.42950000  0.71820000  1
  C  C260  1  0.64210000  0.73190000  0.91670000  1
  C  C261  1  0.64210000  0.76810000  0.41670000  1
  C  C262  1  0.64870000  0.56270000  0.22830000  1
  C  C263  1  0.64870000  0.93730000  0.72830000  1
  C  C264  1  0.69050000  0.70620000  0.96870000  1
  C  C265  1  0.69050000  0.79380000  0.46870000  1
  C  C266  1  0.69340000  0.08180000  0.23170000  1
  C  C267  1  0.69340000  0.41820000  0.73170000  1
  C  C268  1  0.69770000  0.24880000  0.51060000  1
  C  C269  1  0.69770000  0.25120000  0.01060000  1
  C  C270  1  0.70620000  0.53130000  0.19050000  1
  C  C271  1  0.70620000  0.96870000  0.69050000  1
  C  C272  1  0.71820000  0.62080000  0.42950000  1
  C  C273  1  0.71820000  0.87920000  0.92950000  1
  C  C274  1  0.72830000  0.64870000  0.93730000  1
  C  C275  1  0.72830000  0.85130000  0.43730000  1
  C  C276  1  0.73170000  0.69340000  0.41820000  1
  C  C277  1  0.73170000  0.80660000  0.91820000  1
  C  C278  1  0.73190000  0.58330000  0.14210000  1
  C  C279  1  0.73190000  0.91670000  0.64210000  1
  C  C280  1  0.73240000  0.01660000  0.23360000  1
  C  C281  1  0.73240000  0.48340000  0.73360000  1
  C  C282  1  0.73360000  0.73240000  0.48340000  1
  C  C283  1  0.73360000  0.76760000  0.98340000  1
  C  C284  1  0.73690000  0.05590000  0.07920000  1
  C  C285  1  0.73690000  0.44410000  0.57920000  1
  C  C286  1  0.74880000  0.51060000  0.80230000  1
  C  C287  1  0.74880000  0.98940000  0.30230000  1
  C  C288  1  0.75120000  0.01060000  0.80230000  1
  C  C289  1  0.75120000  0.48940000  0.30230000  1
  C  C290  1  0.76310000  0.55590000  0.07920000  1
  C  C291  1  0.76310000  0.94410000  0.57920000  1
  C  C292  1  0.76640000  0.23240000  0.48340000  1
  C  C293  1  0.76640000  0.26760000  0.98340000  1
  C  C294  1  0.76760000  0.51660000  0.23360000  1
  C  C295  1  0.76760000  0.98340000  0.73360000  1
  C  C296  1  0.76810000  0.08330000  0.14210000  1
  C  C297  1  0.76810000  0.41670000  0.64210000  1
  C  C298  1  0.76830000  0.19340000  0.41820000  1
  C  C299  1  0.76830000  0.30660000  0.91820000  1
  C  C300  1  0.77170000  0.14870000  0.93730000  1
  C  C301  1  0.77170000  0.35130000  0.43730000  1
  C  C302  1  0.78180000  0.12080000  0.42950000  1
  C  C303  1  0.78180000  0.37920000  0.92950000  1
  C  C304  1  0.79380000  0.03130000  0.19050000  1
  C  C305  1  0.79380000  0.46870000  0.69050000  1
  C  C306  1  0.80230000  0.74880000  0.51060000  1
  C  C307  1  0.80230000  0.75120000  0.01060000  1
  C  C308  1  0.80660000  0.58180000  0.23170000  1
  C  C309  1  0.80660000  0.91820000  0.73170000  1
  C  C310  1  0.80950000  0.20620000  0.96870000  1
  C  C311  1  0.80950000  0.29380000  0.46870000  1
  C  C312  1  0.85130000  0.06270000  0.22830000  1
  C  C313  1  0.85130000  0.43730000  0.72830000  1
  C  C314  1  0.85790000  0.23190000  0.91670000  1
  C  C315  1  0.85790000  0.26810000  0.41670000  1
  C  C316  1  0.87920000  0.57050000  0.21820000  1
  C  C317  1  0.87920000  0.92950000  0.71820000  1
  C  C318  1  0.91670000  0.64210000  0.73190000  1
  C  C319  1  0.91670000  0.85790000  0.23190000  1
  C  C320  1  0.91820000  0.73170000  0.80660000  1
  C  C321  1  0.91820000  0.76830000  0.30660000  1
  C  C322  1  0.92080000  0.23690000  0.44410000  1
  C  C323  1  0.92080000  0.26310000  0.94410000  1
  C  C324  1  0.92950000  0.71820000  0.87920000  1
  C  C325  1  0.92950000  0.78180000  0.37920000  1
  C  C326  1  0.93730000  0.72830000  0.64870000  1
  C  C327  1  0.93730000  0.77170000  0.14870000  1
  C  C328  1  0.94410000  0.57920000  0.76310000  1
  C  C329  1  0.94410000  0.92080000  0.26310000  1
  C  C330  1  0.96870000  0.69050000  0.70620000  1
  C  C331  1  0.96870000  0.80950000  0.20620000  1
  C  C332  1  0.98340000  0.73360000  0.76760000  1
  C  C333  1  0.98340000  0.76640000  0.26760000  1
  C  C334  1  0.98940000  0.19770000  0.24880000  1
  C  C335  1  0.98940000  0.30230000  0.74880000  1
  O  O336  1  0.01283000  0.14857000  0.22194000  1
  O  O337  1  0.01283000  0.35143000  0.72194000  1
  O  O338  1  0.01410000  0.04763000  0.76970000  1
  O  O339  1  0.01410000  0.45237000  0.26970000  1
  O  O340  1  0.04030000  0.23750000  0.09010000  1
  O  O341  1  0.04030000  0.26250000  0.59010000  1
  O  O342  1  0.04763000  0.73030000  0.51410000  1
  O  O343  1  0.04763000  0.76970000  0.01410000  1
  O  O344  1  0.05450000  0.20156000  0.90616000  1
  O  O345  1  0.05450000  0.29844000  0.40616000  1
  O  O346  1  0.05842000  0.69936000  0.21100000  1
  O  O347  1  0.05842000  0.80064000  0.71100000  1
  O  O348  1  0.06065000  0.68257000  0.07888000  1
  O  O349  1  0.06065000  0.81743000  0.57888000  1
  O  O350  1  0.07888000  0.06065000  0.68257000  1
  O  O351  1  0.07888000  0.43935000  0.18257000  1
  O  O352  1  0.09010000  0.04030000  0.23750000  1
  O  O353  1  0.09010000  0.45970000  0.73750000  1
  O  O354  1  0.09028000  0.16534000  0.59526000  1
  O  O355  1  0.09028000  0.33466000  0.09526000  1
  O  O356  1  0.09384000  0.55450000  0.29844000  1
  O  O357  1  0.09384000  0.94550000  0.79844000  1
  O  O358  1  0.09453000  0.22074000  0.33860000  1
  O  O359  1  0.09453000  0.27926000  0.83860000  1
  O  O360  1  0.09526000  0.09028000  0.33466000  1
  O  O361  1  0.09526000  0.40972000  0.83466000  1
  O  O362  1  0.12161000  0.18027000  0.72220000  1
  O  O363  1  0.12161000  0.31973000  0.22220000  1
  O  O364  1  0.14857000  0.22194000  0.01283000  1
  O  O365  1  0.14857000  0.27806000  0.51283000  1
  O  O366  1  0.16140000  0.59453000  0.22074000  1
  O  O367  1  0.16140000  0.90547000  0.72074000  1
  O  O368  1  0.16534000  0.59526000  0.09028000  1
  O  O369  1  0.16534000  0.90474000  0.59028000  1
  O  O370  1  0.18027000  0.72220000  0.12161000  1
  O  O371  1  0.18027000  0.77780000  0.62161000  1
  O  O372  1  0.18257000  0.07888000  0.43935000  1
  O  O373  1  0.18257000  0.42112000  0.93935000  1
  O  O374  1  0.19936000  0.21100000  0.44158000  1
  O  O375  1  0.19936000  0.28900000  0.94158000  1
  O  O376  1  0.20156000  0.59384000  0.55450000  1
  O  O377  1  0.20156000  0.90616000  0.05450000  1
  O  O378  1  0.21100000  0.05842000  0.69936000  1
  O  O379  1  0.21100000  0.44158000  0.19936000  1
  O  O380  1  0.22074000  0.16140000  0.59453000  1
  O  O381  1  0.22074000  0.33860000  0.09453000  1
  O  O382  1  0.22194000  0.01283000  0.14857000  1
  O  O383  1  0.22194000  0.48717000  0.64857000  1
  O  O384  1  0.22220000  0.12161000  0.31973000  1
  O  O385  1  0.22220000  0.37839000  0.81973000  1
  O  O386  1  0.23030000  0.51410000  0.45237000  1
  O  O387  1  0.23030000  0.98590000  0.95237000  1
  O  O388  1  0.23750000  0.09010000  0.04030000  1
  O  O389  1  0.23750000  0.40990000  0.54030000  1
  O  O390  1  0.26250000  0.59010000  0.04030000  1
  O  O391  1  0.26250000  0.90990000  0.54030000  1
  O  O392  1  0.26970000  0.01410000  0.45237000  1
  O  O393  1  0.26970000  0.48590000  0.95237000  1
  O  O394  1  0.27780000  0.62161000  0.31973000  1
  O  O395  1  0.27780000  0.87839000  0.81973000  1
  O  O396  1  0.27806000  0.51283000  0.14857000  1
  O  O397  1  0.27806000  0.98717000  0.64857000  1
  O  O398  1  0.27926000  0.66140000  0.59453000  1
  O  O399  1  0.27926000  0.83860000  0.09453000  1
  O  O400  1  0.28900000  0.55842000  0.69936000  1
  O  O401  1  0.28900000  0.94158000  0.19936000  1
  O  O402  1  0.29844000  0.09384000  0.55450000  1
  O  O403  1  0.29844000  0.40616000  0.05450000  1
  O  O404  1  0.30064000  0.71100000  0.44158000  1
  O  O405  1  0.30064000  0.78900000  0.94158000  1
  O  O406  1  0.31743000  0.57888000  0.43935000  1
  O  O407  1  0.31743000  0.92112000  0.93935000  1
  O  O408  1  0.31973000  0.22220000  0.12161000  1
  O  O409  1  0.31973000  0.27780000  0.62161000  1
  O  O410  1  0.33466000  0.09526000  0.09028000  1
  O  O411  1  0.33466000  0.40474000  0.59028000  1
  O  O412  1  0.33860000  0.09453000  0.22074000  1
  O  O413  1  0.33860000  0.40547000  0.72074000  1
  O  O414  1  0.35143000  0.72194000  0.01283000  1
  O  O415  1  0.35143000  0.77806000  0.51283000  1
  O  O416  1  0.37839000  0.68027000  0.72220000  1
  O  O417  1  0.37839000  0.81973000  0.22220000  1
  O  O418  1  0.40474000  0.59028000  0.33466000  1
  O  O419  1  0.40474000  0.90972000  0.83466000  1
  O  O420  1  0.40547000  0.72074000  0.33860000  1
  O  O421  1  0.40547000  0.77926000  0.83860000  1
  O  O422  1  0.40616000  0.05450000  0.29844000  1
  O  O423  1  0.40616000  0.44550000  0.79844000  1
  O  O424  1  0.40972000  0.66534000  0.59526000  1
  O  O425  1  0.40972000  0.83466000  0.09526000  1
  O  O426  1  0.40990000  0.54030000  0.23750000  1
  O  O427  1  0.40990000  0.95970000  0.73750000  1
  O  O428  1  0.42112000  0.56065000  0.68257000  1
  O  O429  1  0.42112000  0.93935000  0.18257000  1
  O  O430  1  0.43935000  0.18257000  0.07888000  1
  O  O431  1  0.43935000  0.31743000  0.57888000  1
  O  O432  1  0.44158000  0.19936000  0.21100000  1
  O  O433  1  0.44158000  0.30064000  0.71100000  1
  O  O434  1  0.44550000  0.70156000  0.90616000  1
  O  O435  1  0.44550000  0.79844000  0.40616000  1
  O  O436  1  0.45237000  0.23030000  0.51410000  1
  O  O437  1  0.45237000  0.26970000  0.01410000  1
  O  O438  1  0.45970000  0.73750000  0.09010000  1
  O  O439  1  0.45970000  0.76250000  0.59010000  1
  O  O440  1  0.48590000  0.54763000  0.76970000  1
  O  O441  1  0.48590000  0.95237000  0.26970000  1
  O  O442  1  0.48717000  0.64857000  0.22194000  1
  O  O443  1  0.48717000  0.85143000  0.72194000  1
  O  O444  1  0.51283000  0.14857000  0.27806000  1
  O  O445  1  0.51283000  0.35143000  0.77806000  1
  O  O446  1  0.51410000  0.04763000  0.73030000  1
  O  O447  1  0.51410000  0.45237000  0.23030000  1
  O  O448  1  0.54030000  0.23750000  0.40990000  1
  O  O449  1  0.54030000  0.26250000  0.90990000  1
  O  O450  1  0.54763000  0.73030000  0.98590000  1
  O  O451  1  0.54763000  0.76970000  0.48590000  1
  O  O452  1  0.55450000  0.20156000  0.59384000  1
  O  O453  1  0.55450000  0.29844000  0.09384000  1
  O  O454  1  0.55842000  0.69936000  0.28900000  1
  O  O455  1  0.55842000  0.80064000  0.78900000  1
  O  O456  1  0.56065000  0.68257000  0.42112000  1
  O  O457  1  0.56065000  0.81743000  0.92112000  1
  O  O458  1  0.57888000  0.06065000  0.81743000  1
  O  O459  1  0.57888000  0.43935000  0.31743000  1
  O  O460  1  0.59010000  0.04030000  0.26250000  1
  O  O461  1  0.59010000  0.45970000  0.76250000  1
  O  O462  1  0.59028000  0.16534000  0.90474000  1
  O  O463  1  0.59028000  0.33466000  0.40474000  1
  O  O464  1  0.59384000  0.55450000  0.20156000  1
  O  O465  1  0.59384000  0.94550000  0.70156000  1
  O  O466  1  0.59453000  0.22074000  0.16140000  1
  O  O467  1  0.59453000  0.27926000  0.66140000  1
  O  O468  1  0.59526000  0.09028000  0.16534000  1
  O  O469  1  0.59526000  0.40972000  0.66534000  1
  O  O470  1  0.62161000  0.18027000  0.77780000  1
  O  O471  1  0.62161000  0.31973000  0.27780000  1
  O  O472  1  0.64857000  0.22194000  0.48717000  1
  O  O473  1  0.64857000  0.27806000  0.98717000  1
  O  O474  1  0.66140000  0.59453000  0.27926000  1
  O  O475  1  0.66140000  0.90547000  0.77926000  1
  O  O476  1  0.66534000  0.59526000  0.40972000  1
  O  O477  1  0.66534000  0.90474000  0.90972000  1
  O  O478  1  0.68027000  0.72220000  0.37839000  1
  O  O479  1  0.68027000  0.77780000  0.87839000  1
  O  O480  1  0.68257000  0.07888000  0.06065000  1
  O  O481  1  0.68257000  0.42112000  0.56065000  1
  O  O482  1  0.69936000  0.21100000  0.05842000  1
  O  O483  1  0.69936000  0.28900000  0.55842000  1
  O  O484  1  0.70156000  0.59384000  0.94550000  1
  O  O485  1  0.70156000  0.90616000  0.44550000  1
  O  O486  1  0.71100000  0.05842000  0.80064000  1
  O  O487  1  0.71100000  0.44158000  0.30064000  1
  O  O488  1  0.72074000  0.16140000  0.90547000  1
  O  O489  1  0.72074000  0.33860000  0.40547000  1
  O  O490  1  0.72194000  0.01283000  0.35143000  1
  O  O491  1  0.72194000  0.48717000  0.85143000  1
  O  O492  1  0.72220000  0.12161000  0.18027000  1
  O  O493  1  0.72220000  0.37839000  0.68027000  1
  O  O494  1  0.73030000  0.51410000  0.04763000  1
  O  O495  1  0.73030000  0.98590000  0.54763000  1
  O  O496  1  0.73750000  0.09010000  0.45970000  1
  O  O497  1  0.73750000  0.40990000  0.95970000  1
  O  O498  1  0.76250000  0.59010000  0.45970000  1
  O  O499  1  0.76250000  0.90990000  0.95970000  1
  O  O500  1  0.76970000  0.01410000  0.04763000  1
  O  O501  1  0.76970000  0.48590000  0.54763000  1
  O  O502  1  0.77780000  0.62161000  0.18027000  1
  O  O503  1  0.77780000  0.87839000  0.68027000  1
  O  O504  1  0.77806000  0.51283000  0.35143000  1
  O  O505  1  0.77806000  0.98717000  0.85143000  1
  O  O506  1  0.77926000  0.66140000  0.90547000  1
  O  O507  1  0.77926000  0.83860000  0.40547000  1
  O  O508  1  0.78900000  0.55842000  0.80064000  1
  O  O509  1  0.78900000  0.94158000  0.30064000  1
  O  O510  1  0.79844000  0.09384000  0.94550000  1
  O  O511  1  0.79844000  0.40616000  0.44550000  1
  O  O512  1  0.80064000  0.71100000  0.05842000  1
  O  O513  1  0.80064000  0.78900000  0.55842000  1
  O  O514  1  0.81743000  0.57888000  0.06065000  1
  O  O515  1  0.81743000  0.92112000  0.56065000  1
  O  O516  1  0.81973000  0.22220000  0.37839000  1
  O  O517  1  0.81973000  0.27780000  0.87839000  1
  O  O518  1  0.83466000  0.09526000  0.40972000  1
  O  O519  1  0.83466000  0.40474000  0.90972000  1
  O  O520  1  0.83860000  0.09453000  0.27926000  1
  O  O521  1  0.83860000  0.40547000  0.77926000  1
  O  O522  1  0.85143000  0.72194000  0.48717000  1
  O  O523  1  0.85143000  0.77806000  0.98717000  1
  O  O524  1  0.87839000  0.68027000  0.77780000  1
  O  O525  1  0.87839000  0.81973000  0.27780000  1
  O  O526  1  0.90474000  0.59028000  0.16534000  1
  O  O527  1  0.90474000  0.90972000  0.66534000  1
  O  O528  1  0.90547000  0.72074000  0.16140000  1
  O  O529  1  0.90547000  0.77926000  0.66140000  1
  O  O530  1  0.90616000  0.05450000  0.20156000  1
  O  O531  1  0.90616000  0.44550000  0.70156000  1
  O  O532  1  0.90972000  0.66534000  0.90474000  1
  O  O533  1  0.90972000  0.83466000  0.40474000  1
  O  O534  1  0.90990000  0.54030000  0.26250000  1
  O  O535  1  0.90990000  0.95970000  0.76250000  1
  O  O536  1  0.92112000  0.56065000  0.81743000  1
  O  O537  1  0.92112000  0.93935000  0.31743000  1
  O  O538  1  0.93935000  0.18257000  0.42112000  1
  O  O539  1  0.93935000  0.31743000  0.92112000  1
  O  O540  1  0.94158000  0.19936000  0.28900000  1
  O  O541  1  0.94158000  0.30064000  0.78900000  1
  O  O542  1  0.94550000  0.70156000  0.59384000  1
  O  O543  1  0.94550000  0.79844000  0.09384000  1
  O  O544  1  0.95237000  0.23030000  0.98590000  1
  O  O545  1  0.95237000  0.26970000  0.48590000  1
  O  O546  1  0.95970000  0.73750000  0.40990000  1
  O  O547  1  0.95970000  0.76250000  0.90990000  1
  O  O548  1  0.98590000  0.54763000  0.73030000  1
  O  O549  1  0.98590000  0.95237000  0.23030000  1
  O  O550  1  0.98717000  0.64857000  0.27806000  1
  O  O551  1  0.98717000  0.85143000  0.77806000  1
