# generated using pymatgen
data_Cu2H3C10O9
_symmetry_space_group_name_H-M   'P 1'
_cell_length_a   10.57500000
_cell_length_b   11.66000000
_cell_length_c   15.76700000
_cell_angle_alpha   106.08000000
_cell_angle_beta   90.73000000
_cell_angle_gamma   94.05000000
_symmetry_Int_Tables_number   1
_chemical_formula_structural   Cu2H3C10O9
_chemical_formula_sum   'Cu8 H12 C40 O36'
_cell_volume   1862.35569317
_cell_formula_units_Z   4
loop_
 _symmetry_equiv_pos_site_id
 _symmetry_equiv_pos_as_xyz
  1  'x, y, z'
loop_
 _atom_site_type_symbol
 _atom_site_label
 _atom_site_symmetry_multiplicity
 _atom_site_fract_x
 _atom_site_fract_y
 _atom_site_fract_z
 _atom_site_occupancy
  Cu  Cu0  1  0.00736000  0.64248000  0.18503000  1
  Cu  Cu1  1  0.01317000  0.64399000  0.68569000  1
  Cu  Cu2  1  0.13781000  0.49601000  0.49972000  1
  Cu  Cu3  1  0.13876000  0.52520000  0.00175000  1
  Cu  Cu4  1  0.86124000  0.47480000  0.99825000  1
  Cu  Cu5  1  0.86219000  0.50399000  0.50028000  1
  Cu  Cu6  1  0.98683000  0.35601000  0.31431000  1
  Cu  Cu7  1  0.99264000  0.35752000  0.81497000  1
  H  H8  1  0.01010000  0.52350000  0.87100000  1
  H  H9  1  0.01310000  0.53220000  0.37500000  1
  H  H10  1  0.01490000  0.99820000  0.14620000  1
  H  H11  1  0.02890000  0.00650000  0.35670000  1
  H  H12  1  0.49010000  0.43210000  0.37670000  1
  H  H13  1  0.49930000  0.44880000  0.87860000  1
  H  H14  1  0.50070000  0.55120000  0.12140000  1
  H  H15  1  0.50990000  0.56790000  0.62330000  1
  H  H16  1  0.97110000  0.99350000  0.64330000  1
  H  H17  1  0.98510000  0.00180000  0.85380000  1
  H  H18  1  0.98690000  0.46780000  0.62500000  1
  H  H19  1  0.98990000  0.47650000  0.12900000  1
  C  C20  1  0.00250000  0.22100000  0.14060000  1
  C  C21  1  0.00470000  0.89420000  0.93260000  1
  C  C22  1  0.00780000  0.89360000  0.43210000  1
  C  C23  1  0.00900000  0.99850000  0.08730000  1
  C  C24  1  0.01170000  0.11110000  0.48030000  1
  C  C25  1  0.01420000  0.89120000  0.02110000  1
  C  C26  1  0.01780000  0.00400000  0.41460000  1
  C  C27  1  0.02220000  0.78120000  0.36070000  1
  C  C28  1  0.02940000  0.22600000  0.45380000  1
  C  C29  1  0.03500000  0.78040000  0.04880000  1
  C  C30  1  0.25870000  0.45780000  0.33480000  1
  C  C31  1  0.26630000  0.46860000  0.83300000  1
  C  C32  1  0.26690000  0.54760000  0.16770000  1
  C  C33  1  0.27410000  0.55860000  0.67010000  1
  C  C34  1  0.37890000  0.47800000  0.28820000  1
  C  C35  1  0.38220000  0.51610000  0.21170000  1
  C  C36  1  0.38820000  0.49180000  0.78940000  1
  C  C37  1  0.39130000  0.53020000  0.71280000  1
  C  C38  1  0.49230000  0.45620000  0.32530000  1
  C  C39  1  0.49870000  0.52850000  0.17350000  1
  C  C40  1  0.50130000  0.47150000  0.82650000  1
  C  C41  1  0.50770000  0.54380000  0.67470000  1
  C  C42  1  0.60870000  0.46980000  0.28720000  1
  C  C43  1  0.61180000  0.50820000  0.21060000  1
  C  C44  1  0.61780000  0.48390000  0.78830000  1
  C  C45  1  0.62110000  0.52200000  0.71180000  1
  C  C46  1  0.72590000  0.44140000  0.32990000  1
  C  C47  1  0.73310000  0.45240000  0.83230000  1
  C  C48  1  0.73370000  0.53140000  0.16700000  1
  C  C49  1  0.74130000  0.54220000  0.66520000  1
  C  C50  1  0.96500000  0.21960000  0.95120000  1
  C  C51  1  0.97060000  0.77400000  0.54620000  1
  C  C52  1  0.97780000  0.21880000  0.63930000  1
  C  C53  1  0.98220000  0.99600000  0.58540000  1
  C  C54  1  0.98580000  0.10880000  0.97890000  1
  C  C55  1  0.98830000  0.88890000  0.51970000  1
  C  C56  1  0.99100000  0.00150000  0.91270000  1
  C  C57  1  0.99220000  0.10640000  0.56790000  1
  C  C58  1  0.99530000  0.10580000  0.06740000  1
  C  C59  1  0.99750000  0.77900000  0.85940000  1
  O  O60  1  0.00230000  0.78630000  0.28070000  1
  O  O61  1  0.00320000  0.50640000  0.58360000  1
  O  O62  1  0.00330000  0.50630000  0.08270000  1
  O  O63  1  0.02850000  0.78910000  0.78260000  1
  O  O64  1  0.03960000  0.31520000  0.12600000  1
  O  O65  1  0.04950000  0.25110000  0.90320000  1
  O  O66  1  0.05300000  0.69230000  0.37980000  1
  O  O67  1  0.05860000  0.75580000  0.59580000  1
  O  O68  1  0.12800000  0.29260000  0.47630000  1
  O  O69  1  0.13550000  0.73090000  0.03100000  1
  O  O70  1  0.17320000  0.38600000  0.29280000  1
  O  O71  1  0.18170000  0.39670000  0.78890000  1
  O  O72  1  0.18400000  0.60240000  0.21590000  1
  O  O73  1  0.18960000  0.60730000  0.71880000  1
  O  O74  1  0.26450000  0.51420000  0.41630000  1
  O  O75  1  0.26800000  0.52310000  0.91460000  1
  O  O76  1  0.26980000  0.51940000  0.08500000  1
  O  O77  1  0.27580000  0.53390000  0.58710000  1
  O  O78  1  0.72420000  0.46610000  0.41290000  1
  O  O79  1  0.73020000  0.48060000  0.91500000  1
  O  O80  1  0.73200000  0.47690000  0.08540000  1
  O  O81  1  0.73550000  0.48580000  0.58370000  1
  O  O82  1  0.81040000  0.39270000  0.28120000  1
  O  O83  1  0.81600000  0.39760000  0.78410000  1
  O  O84  1  0.81830000  0.60330000  0.21110000  1
  O  O85  1  0.82680000  0.61400000  0.70720000  1
  O  O86  1  0.86450000  0.26910000  0.96900000  1
  O  O87  1  0.87200000  0.70740000  0.52370000  1
  O  O88  1  0.94140000  0.24420000  0.40420000  1
  O  O89  1  0.94700000  0.30770000  0.62020000  1
  O  O90  1  0.95050000  0.74890000  0.09680000  1
  O  O91  1  0.96040000  0.68480000  0.87400000  1
  O  O92  1  0.97150000  0.21090000  0.21740000  1
  O  O93  1  0.99670000  0.49370000  0.91730000  1
  O  O94  1  0.99680000  0.49360000  0.41640000  1
  O  O95  1  0.99770000  0.21370000  0.71930000  1
