# generated using pymatgen
data_CuH2C3O4
_symmetry_space_group_name_H-M   'P 1'
_cell_length_a   8.40150000
_cell_length_b   8.40150000
_cell_length_c   12.01500000
_cell_angle_alpha   90.00000000
_cell_angle_beta   90.00000000
_cell_angle_gamma   90.00000000
_symmetry_Int_Tables_number   1
_chemical_formula_structural   CuH2C3O4
_chemical_formula_sum   'Cu4 H8 C12 O16'
_cell_volume   848.08120503
_cell_formula_units_Z   4
loop_
 _symmetry_equiv_pos_site_id
 _symmetry_equiv_pos_as_xyz
  1  'x, y, z'
loop_
 _atom_site_type_symbol
 _atom_site_label
 _atom_site_symmetry_multiplicity
 _atom_site_fract_x
 _atom_site_fract_y
 _atom_site_fract_z
 _atom_site_occupancy
  Cu  Cu0  1  0.19336000  0.59728000  0.87512000  1
  Cu  Cu1  1  0.40272000  0.19336000  0.62512000  1
  Cu  Cu2  1  0.59728000  0.80664000  0.12512000  1
  Cu  Cu3  1  0.80664000  0.40272000  0.37512000  1
  H  H4  1  0.02890000  0.16680000  0.66030000  1
  H  H5  1  0.06240000  0.67920000  0.12460000  1
  H  H6  1  0.16680000  0.97110000  0.91030000  1
  H  H7  1  0.32080000  0.06240000  0.87460000  1
  H  H8  1  0.67920000  0.93760000  0.37460000  1
  H  H9  1  0.83320000  0.02890000  0.41030000  1
  H  H10  1  0.93760000  0.32080000  0.62460000  1
  H  H11  1  0.97110000  0.83320000  0.16030000  1
  C  C12  1  0.04240000  0.27300000  0.63000000  1
  C  C13  1  0.11190000  0.25850000  0.51250000  1
  C  C14  1  0.14120000  0.37020000  0.71150000  1
  C  C15  1  0.25850000  0.88810000  0.76250000  1
  C  C16  1  0.27300000  0.95760000  0.88000000  1
  C  C17  1  0.37020000  0.85880000  0.96150000  1
  C  C18  1  0.62980000  0.14120000  0.46150000  1
  C  C19  1  0.72700000  0.04240000  0.38000000  1
  C  C20  1  0.74150000  0.11190000  0.26250000  1
  C  C21  1  0.85880000  0.62980000  0.21150000  1
  C  C22  1  0.88810000  0.74150000  0.01250000  1
  C  C23  1  0.95760000  0.72700000  0.13000000  1
  O  O24  1  0.02160000  0.26710000  0.43230000  1
  O  O25  1  0.06630000  0.46410000  0.77330000  1
  O  O26  1  0.23210000  0.74080000  0.75290000  1
  O  O27  1  0.25920000  0.23210000  0.50290000  1
  O  O28  1  0.26710000  0.97840000  0.68230000  1
  O  O29  1  0.28870000  0.35190000  0.71620000  1
  O  O30  1  0.35190000  0.71130000  0.96620000  1
  O  O31  1  0.46410000  0.93370000  0.02330000  1
  O  O32  1  0.53590000  0.06630000  0.52330000  1
  O  O33  1  0.64810000  0.28870000  0.46620000  1
  O  O34  1  0.71130000  0.64810000  0.21620000  1
  O  O35  1  0.73290000  0.02160000  0.18230000  1
  O  O36  1  0.74080000  0.76790000  0.00290000  1
  O  O37  1  0.76790000  0.25920000  0.25290000  1
  O  O38  1  0.93370000  0.53590000  0.27330000  1
  O  O39  1  0.97840000  0.73290000  0.93230000  1
