# generated using pymatgen
data_Cu4H65(C39O8)2
_symmetry_space_group_name_H-M   'P 1'
_cell_length_a   18.40590000
_cell_length_b   18.76450000
_cell_length_c   34.52110000
_cell_angle_alpha   90.00000000
_cell_angle_beta   90.00000000
_cell_angle_gamma   90.00000000
_symmetry_Int_Tables_number   1
_chemical_formula_structural   Cu4H65(C39O8)2
_chemical_formula_sum   'Cu16 H260 C312 O64'
_cell_volume   11922.81157945
_cell_formula_units_Z   4
loop_
 _symmetry_equiv_pos_site_id
 _symmetry_equiv_pos_as_xyz
  1  'x, y, z'
loop_
 _atom_site_type_symbol
 _atom_site_label
 _atom_site_symmetry_multiplicity
 _atom_site_fract_x
 _atom_site_fract_y
 _atom_site_fract_z
 _atom_site_occupancy
  Cu  Cu0  1  0.04445000  0.71061000  0.47425000  1
  Cu  Cu1  1  0.04518000  0.21042000  0.52545000  1
  Cu  Cu2  1  0.11779000  0.77105000  0.53137000  1
  Cu  Cu3  1  0.11843000  0.27147000  0.46832000  1
  Cu  Cu4  1  0.38157000  0.72853000  0.96832000  1
  Cu  Cu5  1  0.38221000  0.22895000  0.03137000  1
  Cu  Cu6  1  0.45482000  0.78958000  0.02545000  1
  Cu  Cu7  1  0.45555000  0.28939000  0.97425000  1
  Cu  Cu8  1  0.54445000  0.78939000  0.52575000  1
  Cu  Cu9  1  0.54518000  0.28958000  0.47455000  1
  Cu  Cu10  1  0.61779000  0.72895000  0.46863000  1
  Cu  Cu11  1  0.61843000  0.22853000  0.53168000  1
  Cu  Cu12  1  0.88157000  0.77147000  0.03168000  1
  Cu  Cu13  1  0.88221000  0.27105000  0.96863000  1
  Cu  Cu14  1  0.95482000  0.71042000  0.97455000  1
  Cu  Cu15  1  0.95555000  0.21061000  0.02575000  1
  H  H16  1  0.00400000  0.49700000  0.26710000  1
  H  H17  1  0.00980000  0.89200000  0.65020000  1
  H  H18  1  0.01410000  0.48090000  0.75860000  1
  H  H19  1  0.01600000  0.49100000  0.81530000  1
  H  H20  1  0.02160000  0.34880000  0.27660000  1
  H  H21  1  0.02280000  0.43240000  0.32940000  1
  H  H22  1  0.02370000  0.84720000  0.71960000  1
  H  H23  1  0.03100000  0.37300000  0.23380000  1
  H  H24  1  0.03750000  0.86160000  0.76380000  1
  H  H25  1  0.04080000  0.96160000  0.63120000  1
  H  H26  1  0.04140000  0.40300000  0.67430000  1
  H  H27  1  0.05130000  0.28430000  0.71310000  1
  H  H28  1  0.05340000  0.78180000  0.28370000  1
  H  H29  1  0.05710000  0.89700000  0.33060000  1
  H  H30  1  0.05790000  0.25910000  0.75610000  1
  H  H31  1  0.06090000  0.33060000  0.89500000  1
  H  H32  1  0.06130000  0.82610000  0.10900000  1
  H  H33  1  0.06540000  0.49400000  0.51130000  1
  H  H34  1  0.06540000  0.76140000  0.24040000  1
  H  H35  1  0.06550000  0.00830000  0.68790000  1
  H  H36  1  0.07810000  0.46080000  0.19790000  1
  H  H37  1  0.07970000  0.87950000  0.39160000  1
  H  H38  1  0.08140000  0.49170000  0.32230000  1
  H  H39  1  0.08350000  0.53860000  0.21440000  1
  H  H40  1  0.08550000  0.99250000  0.48990000  1
  H  H41  1  0.08750000  0.97640000  0.78070000  1
  H  H42  1  0.08890000  0.31520000  0.82710000  1
  H  H43  1  0.09010000  0.03800000  0.75010000  1
  H  H44  1  0.09180000  0.81620000  0.17440000  1
  H  H45  1  0.09230000  0.27510000  0.66050000  1
  H  H46  1  0.09280000  0.90960000  0.65350000  1
  H  H47  1  0.10000000  0.41160000  0.31390000  1
  H  H48  1  0.10080000  0.37740000  0.60860000  1
  H  H49  1  0.11180000  0.58970000  0.61280000  1
  H  H50  1  0.12350000  0.09210000  0.38980000  1
  H  H51  1  0.12930000  0.15820000  0.71310000  1
  H  H52  1  0.13170000  0.20110000  0.66090000  1
  H  H53  1  0.13590000  0.96860000  0.74360000  1
  H  H54  1  0.13680000  0.41610000  0.25470000  1
  H  H55  1  0.13770000  0.16720000  0.75800000  1
  H  H56  1  0.14230000  0.49410000  0.27120000  1
  H  H57  1  0.15130000  0.71110000  0.27920000  1
  H  H58  1  0.15420000  0.49750000  0.20230000  1
  H  H59  1  0.15870000  0.26150000  0.63310000  1
  H  H60  1  0.16710000  0.75250000  0.01450000  1
  H  H61  1  0.17070000  0.25610000  0.98640000  1
  H  H62  1  0.17230000  0.90170000  0.31920000  1
  H  H63  1  0.17440000  0.77940000  0.32710000  1
  H  H64  1  0.18870000  0.28230000  0.74800000  1
  H  H65  1  0.19260000  0.06590000  0.33630000  1
  H  H66  1  0.19580000  0.32870000  0.68580000  1
  H  H67  1  0.20180000  0.54790000  0.65890000  1
  H  H68  1  0.20690000  0.16320000  0.73160000  1
  H  H69  1  0.22160000  0.15700000  0.60200000  1
  H  H70  1  0.22350000  0.64740000  0.39740000  1
  H  H71  1  0.22500000  0.04740000  0.27360000  1
  H  H72  1  0.22650000  0.54680000  0.72690000  1
  H  H73  1  0.23530000  0.25450000  0.68620000  1
  H  H74  1  0.24090000  0.45350000  0.86210000  1
  H  H75  1  0.24380000  0.87550000  0.33940000  1
  H  H76  1  0.24420000  0.00680000  0.19720000  1
  H  H77  1  0.24480000  0.89720000  0.29550000  1
  H  H78  1  0.24560000  0.50780000  0.79990000  1
  H  H79  1  0.24570000  0.77500000  0.30390000  1
  H  H80  1  0.24790000  0.95290000  0.13820000  1
  H  H81  1  0.25210000  0.04710000  0.63820000  1
  H  H82  1  0.25430000  0.22500000  0.80390000  1
  H  H83  1  0.25440000  0.49220000  0.29990000  1
  H  H84  1  0.25520000  0.10280000  0.79550000  1
  H  H85  1  0.25580000  0.99320000  0.69720000  1
  H  H86  1  0.25620000  0.12450000  0.83940000  1
  H  H87  1  0.25910000  0.54650000  0.36210000  1
  H  H88  1  0.26470000  0.74550000  0.18620000  1
  H  H89  1  0.27350000  0.45320000  0.22690000  1
  H  H90  1  0.27500000  0.95260000  0.77360000  1
  H  H91  1  0.27650000  0.35260000  0.89740000  1
  H  H92  1  0.27840000  0.84300000  0.10200000  1
  H  H93  1  0.29310000  0.83680000  0.23160000  1
  H  H94  1  0.29820000  0.45210000  0.15890000  1
  H  H95  1  0.30420000  0.67130000  0.18580000  1
  H  H96  1  0.30740000  0.93410000  0.83630000  1
  H  H97  1  0.31130000  0.71770000  0.24800000  1
  H  H98  1  0.32560000  0.22060000  0.82710000  1
  H  H99  1  0.32770000  0.09830000  0.81920000  1
  H  H100  1  0.32930000  0.74390000  0.48640000  1
  H  H101  1  0.33290000  0.24750000  0.51450000  1
  H  H102  1  0.34130000  0.73850000  0.13310000  1
  H  H103  1  0.34580000  0.50250000  0.70230000  1
  H  H104  1  0.34870000  0.28890000  0.77920000  1
  H  H105  1  0.35770000  0.50590000  0.77120000  1
  H  H106  1  0.36230000  0.83280000  0.25800000  1
  H  H107  1  0.36320000  0.58390000  0.75470000  1
  H  H108  1  0.36410000  0.03140000  0.24360000  1
  H  H109  1  0.36830000  0.79890000  0.16090000  1
  H  H110  1  0.37070000  0.84180000  0.21310000  1
  H  H111  1  0.37650000  0.90790000  0.88980000  1
  H  H112  1  0.38820000  0.41030000  0.11280000  1
  H  H113  1  0.39920000  0.62260000  0.10860000  1
  H  H114  1  0.40000000  0.58840000  0.81390000  1
  H  H115  1  0.40720000  0.09040000  0.15350000  1
  H  H116  1  0.40770000  0.72490000  0.16050000  1
  H  H117  1  0.40820000  0.18380000  0.67440000  1
  H  H118  1  0.40990000  0.96200000  0.25010000  1
  H  H119  1  0.41110000  0.68480000  0.32710000  1
  H  H120  1  0.41250000  0.02360000  0.28070000  1
  H  H121  1  0.41450000  0.00750000  0.98990000  1
  H  H122  1  0.41650000  0.46140000  0.71440000  1
  H  H123  1  0.41860000  0.50830000  0.82230000  1
  H  H124  1  0.42030000  0.12050000  0.89160000  1
  H  H125  1  0.42190000  0.53920000  0.69790000  1
  H  H126  1  0.43450000  0.99170000  0.18790000  1
  H  H127  1  0.43460000  0.23860000  0.74040000  1
  H  H128  1  0.43460000  0.50600000  0.01130000  1
  H  H129  1  0.43870000  0.17390000  0.60900000  1
  H  H130  1  0.43910000  0.66940000  0.39500000  1
  H  H131  1  0.44210000  0.74090000  0.25610000  1
  H  H132  1  0.44290000  0.10300000  0.83060000  1
  H  H133  1  0.44660000  0.21820000  0.78370000  1
  H  H134  1  0.44870000  0.71570000  0.21310000  1
  H  H135  1  0.45860000  0.59700000  0.17430000  1
  H  H136  1  0.45920000  0.03840000  0.13120000  1
  H  H137  1  0.46250000  0.13840000  0.26380000  1
  H  H138  1  0.46900000  0.62700000  0.73380000  1
  H  H139  1  0.47630000  0.15280000  0.21960000  1
  H  H140  1  0.47720000  0.56760000  0.82940000  1
  H  H141  1  0.47840000  0.65120000  0.77660000  1
  H  H142  1  0.48400000  0.50900000  0.31530000  1
  H  H143  1  0.48590000  0.51910000  0.25860000  1
  H  H144  1  0.49020000  0.10800000  0.15020000  1
  H  H145  1  0.49600000  0.50300000  0.76710000  1
  H  H146  1  0.50400000  0.00300000  0.73290000  1
  H  H147  1  0.50980000  0.60800000  0.34980000  1
  H  H148  1  0.51410000  0.01910000  0.24140000  1
  H  H149  1  0.51600000  0.00900000  0.18470000  1
  H  H150  1  0.52160000  0.15120000  0.72340000  1
  H  H151  1  0.52280000  0.06760000  0.67060000  1
  H  H152  1  0.52370000  0.65280000  0.28040000  1
  H  H153  1  0.53100000  0.12700000  0.76620000  1
  H  H154  1  0.53750000  0.63840000  0.23620000  1
  H  H155  1  0.54080000  0.53840000  0.36880000  1
  H  H156  1  0.54140000  0.09700000  0.32570000  1
  H  H157  1  0.55130000  0.21570000  0.28690000  1
  H  H158  1  0.55340000  0.71820000  0.71630000  1
  H  H159  1  0.55710000  0.60300000  0.66940000  1
  H  H160  1  0.55790000  0.24090000  0.24390000  1
  H  H161  1  0.56090000  0.16940000  0.10500000  1
  H  H162  1  0.56130000  0.67390000  0.89100000  1
  H  H163  1  0.56540000  0.00600000  0.48870000  1
  H  H164  1  0.56540000  0.73860000  0.75960000  1
  H  H165  1  0.56550000  0.49170000  0.31210000  1
  H  H166  1  0.57810000  0.03920000  0.80210000  1
  H  H167  1  0.57970000  0.62050000  0.60840000  1
  H  H168  1  0.58140000  0.00830000  0.67770000  1
  H  H169  1  0.58350000  0.96140000  0.78560000  1
  H  H170  1  0.58550000  0.50750000  0.51010000  1
  H  H171  1  0.58750000  0.52360000  0.21930000  1
  H  H172  1  0.58890000  0.18480000  0.17290000  1
  H  H173  1  0.59010000  0.46200000  0.24990000  1
  H  H174  1  0.59180000  0.68380000  0.82560000  1
  H  H175  1  0.59230000  0.22490000  0.33950000  1
  H  H176  1  0.59280000  0.59040000  0.34650000  1
  H  H177  1  0.60000000  0.08840000  0.68610000  1
  H  H178  1  0.60080000  0.12260000  0.39140000  1
  H  H179  1  0.61180000  0.91030000  0.38720000  1
  H  H180  1  0.62350000  0.40790000  0.61020000  1
  H  H181  1  0.62930000  0.34180000  0.28690000  1
  H  H182  1  0.63170000  0.29890000  0.33910000  1
  H  H183  1  0.63590000  0.53140000  0.25640000  1
  H  H184  1  0.63680000  0.08390000  0.74530000  1
  H  H185  1  0.63770000  0.33280000  0.24200000  1
  H  H186  1  0.64230000  0.00590000  0.72880000  1
  H  H187  1  0.65130000  0.78890000  0.72080000  1
  H  H188  1  0.65420000  0.00250000  0.79770000  1
  H  H189  1  0.65870000  0.23850000  0.36690000  1
  H  H190  1  0.66710000  0.74750000  0.98550000  1
  H  H191  1  0.67070000  0.24390000  0.01360000  1
  H  H192  1  0.67230000  0.59830000  0.68080000  1
  H  H193  1  0.67440000  0.72060000  0.67290000  1
  H  H194  1  0.68870000  0.21770000  0.25200000  1
  H  H195  1  0.69260000  0.43410000  0.66370000  1
  H  H196  1  0.69580000  0.17130000  0.31420000  1
  H  H197  1  0.70180000  0.95210000  0.34110000  1
  H  H198  1  0.70690000  0.33680000  0.26840000  1
  H  H199  1  0.72160000  0.34300000  0.39800000  1
  H  H200  1  0.72350000  0.85260000  0.60260000  1
  H  H201  1  0.72500000  0.45260000  0.72640000  1
  H  H202  1  0.72650000  0.95320000  0.27310000  1
  H  H203  1  0.73530000  0.24550000  0.31380000  1
  H  H204  1  0.74090000  0.04650000  0.13790000  1
  H  H205  1  0.74380000  0.62450000  0.66060000  1
  H  H206  1  0.74420000  0.49320000  0.80280000  1
  H  H207  1  0.74480000  0.60280000  0.70450000  1
  H  H208  1  0.74560000  0.99220000  0.20010000  1
  H  H209  1  0.74570000  0.72500000  0.69610000  1
  H  H210  1  0.74790000  0.54710000  0.86180000  1
  H  H211  1  0.75210000  0.45290000  0.36180000  1
  H  H212  1  0.75430000  0.27500000  0.19610000  1
  H  H213  1  0.75440000  0.00780000  0.70010000  1
  H  H214  1  0.75520000  0.39720000  0.20450000  1
  H  H215  1  0.75580000  0.50680000  0.30280000  1
  H  H216  1  0.75620000  0.37550000  0.16060000  1
  H  H217  1  0.75910000  0.95350000  0.63790000  1
  H  H218  1  0.76470000  0.75450000  0.81380000  1
  H  H219  1  0.77350000  0.04680000  0.77310000  1
  H  H220  1  0.77500000  0.54740000  0.22640000  1
  H  H221  1  0.77650000  0.14740000  0.10260000  1
  H  H222  1  0.77840000  0.65700000  0.89800000  1
  H  H223  1  0.79310000  0.66320000  0.76840000  1
  H  H224  1  0.79820000  0.04790000  0.84110000  1
  H  H225  1  0.80420000  0.82870000  0.81420000  1
  H  H226  1  0.80740000  0.56590000  0.16370000  1
  H  H227  1  0.81130000  0.78230000  0.75200000  1
  H  H228  1  0.82560000  0.27940000  0.17290000  1
  H  H229  1  0.82770000  0.40170000  0.18080000  1
  H  H230  1  0.82930000  0.75610000  0.51360000  1
  H  H231  1  0.83290000  0.25250000  0.48550000  1
  H  H232  1  0.84130000  0.76150000  0.86690000  1
  H  H233  1  0.84580000  0.99750000  0.29770000  1
  H  H234  1  0.84870000  0.21110000  0.22080000  1
  H  H235  1  0.85770000  0.99410000  0.22880000  1
  H  H236  1  0.86230000  0.66720000  0.74200000  1
  H  H237  1  0.86320000  0.91610000  0.24530000  1
  H  H238  1  0.86410000  0.46860000  0.75640000  1
  H  H239  1  0.86830000  0.70110000  0.83910000  1
  H  H240  1  0.87070000  0.65820000  0.78690000  1
  H  H241  1  0.87650000  0.59210000  0.11020000  1
  H  H242  1  0.88820000  0.08970000  0.88720000  1
  H  H243  1  0.89920000  0.87740000  0.89140000  1
  H  H244  1  0.90000000  0.91160000  0.18610000  1
  H  H245  1  0.90720000  0.40960000  0.84650000  1
  H  H246  1  0.90770000  0.77510000  0.83950000  1
  H  H247  1  0.90820000  0.31620000  0.32560000  1
  H  H248  1  0.90990000  0.53800000  0.74990000  1
  H  H249  1  0.91110000  0.81520000  0.67290000  1
  H  H250  1  0.91250000  0.47640000  0.71930000  1
  H  H251  1  0.91450000  0.49250000  0.01010000  1
  H  H252  1  0.91650000  0.03860000  0.28560000  1
  H  H253  1  0.91860000  0.99170000  0.17770000  1
  H  H254  1  0.92030000  0.37950000  0.10840000  1
  H  H255  1  0.92190000  0.96080000  0.30210000  1
  H  H256  1  0.93450000  0.50830000  0.81210000  1
  H  H257  1  0.93460000  0.26140000  0.25960000  1
  H  H258  1  0.93460000  0.99400000  0.98870000  1
  H  H259  1  0.93870000  0.32610000  0.39100000  1
  H  H260  1  0.93910000  0.83060000  0.60500000  1
  H  H261  1  0.94210000  0.75910000  0.74390000  1
  H  H262  1  0.94290000  0.39700000  0.16940000  1
  H  H263  1  0.94660000  0.28180000  0.21630000  1
  H  H264  1  0.94870000  0.78430000  0.78690000  1
  H  H265  1  0.95860000  0.90300000  0.82570000  1
  H  H266  1  0.95920000  0.46160000  0.86880000  1
  H  H267  1  0.96250000  0.36160000  0.73620000  1
  H  H268  1  0.96900000  0.87300000  0.26620000  1
  H  H269  1  0.97630000  0.34720000  0.78040000  1
  H  H270  1  0.97720000  0.93240000  0.17060000  1
  H  H271  1  0.97840000  0.84880000  0.22340000  1
  H  H272  1  0.98400000  0.99100000  0.68470000  1
  H  H273  1  0.98590000  0.98090000  0.74140000  1
  H  H274  1  0.99020000  0.39200000  0.84980000  1
  H  H275  1  0.99600000  0.99700000  0.23290000  1
  C  C276  1  0.00580000  0.38390000  0.25780000  1
  C  C277  1  0.00990000  0.87700000  0.74140000  1
  C  C278  1  0.02840000  0.95410000  0.73230000  1
  C  C279  1  0.03100000  0.96930000  0.68950000  1
  C  C280  1  0.03230000  0.77410000  0.03770000  1
  C  C281  1  0.03560000  0.26730000  0.96120000  1
  C  C282  1  0.03570000  0.45580000  0.27170000  1
  C  C283  1  0.04480000  0.92960000  0.65280000  1
  C  C284  1  0.06240000  0.44710000  0.31320000  1
  C  C285  1  0.07090000  0.36780000  0.75060000  1
  C  C286  1  0.07500000  0.85890000  0.46650000  1
  C  C287  1  0.07500000  0.86900000  0.24970000  1
  C  C288  1  0.07590000  0.49110000  0.53760000  1
  C  C289  1  0.07750000  0.42400000  0.55590000  1
  C  C290  1  0.07800000  0.35630000  0.53390000  1
  C  C291  1  0.07940000  0.43050000  0.68390000  1
  C  C292  1  0.07960000  0.28980000  0.73670000  1
  C  C293  1  0.08450000  0.79010000  0.26150000  1
  C  C294  1  0.08740000  0.12510000  0.46150000  1
  C  C295  1  0.08830000  0.92550000  0.44430000  1
  C  C296  1  0.08840000  0.92230000  0.40430000  1
  C  C297  1  0.08940000  0.55100000  0.55800000  1
  C  C298  1  0.08970000  0.92830000  0.31900000  1
  C  C299  1  0.08990000  0.99090000  0.46310000  1
  C  C300  1  0.09110000  0.98730000  0.75360000  1
  C  C301  1  0.09280000  0.62250000  0.53740000  1
  C  C302  1  0.09620000  0.42120000  0.59620000  1
  C  C303  1  0.09800000  0.05490000  0.44220000  1
  C  C304  1  0.10260000  0.29190000  0.94110000  1
  C  C305  1  0.10280000  0.92140000  0.27890000  1
  C  C306  1  0.10280000  0.98860000  0.38180000  1
  C  C307  1  0.10400000  0.42230000  0.72020000  1
  C  C308  1  0.10420000  0.54820000  0.59850000  1
  C  C309  1  0.10440000  0.78760000  0.05590000  1
  C  C310  1  0.10450000  0.82180000  0.09520000  1
  C  C311  1  0.10460000  0.32130000  0.90750000  1
  C  C312  1  0.10670000  0.49270000  0.21350000  1
  C  C313  1  0.10690000  0.48150000  0.61610000  1
  C  C314  1  0.10990000  0.05080000  0.40290000  1
  C  C315  1  0.11340000  0.46240000  0.25520000  1
  C  C316  1  0.11340000  0.48210000  0.66120000  1
  C  C317  1  0.11980000  0.38720000  0.78460000  1
  C  C318  1  0.12040000  0.88500000  0.21330000  1
  C  C319  1  0.12100000  0.85570000  0.17930000  1
  C  C320  1  0.12140000  0.35200000  0.82200000  1
  C  C321  1  0.12280000  0.97890000  0.34160000  1
  C  C322  1  0.13840000  0.25150000  0.65810000  1
  C  C323  1  0.14980000  0.46440000  0.73840000  1
  C  C324  1  0.15610000  0.26190000  0.72850000  1
  C  C325  1  0.15760000  0.17980000  0.73320000  1
  C  C326  1  0.15830000  0.76080000  0.27130000  1
  C  C327  1  0.16110000  0.96630000  0.26320000  1
  C  C328  1  0.16360000  0.94560000  0.22050000  1
  C  C329  1  0.16580000  0.84590000  0.11030000  1
  C  C330  1  0.16640000  0.77580000  0.03830000  1
  C  C331  1  0.16650000  0.88410000  0.14930000  1
  C  C332  1  0.16900000  0.44210000  0.77580000  1
  C  C333  1  0.17000000  0.37220000  0.85000000  1
  C  C334  1  0.17120000  0.27850000  0.96240000  1
  C  C335  1  0.17140000  0.34070000  0.88820000  1
  C  C336  1  0.17290000  0.02780000  0.32260000  1
  C  C337  1  0.17370000  0.52050000  0.67570000  1
  C  C338  1  0.18850000  0.27780000  0.68870000  1
  C  C339  1  0.19070000  0.01750000  0.28480000  1
  C  C340  1  0.19150000  0.51760000  0.71580000  1
  C  C341  1  0.19180000  0.75960000  0.23100000  1
  C  C342  1  0.19380000  0.71490000  0.46490000  1
  C  C343  1  0.19560000  0.21180000  0.53270000  1
  C  C344  1  0.19840000  0.79780000  0.30420000  1
  C  C345  1  0.21280000  0.96930000  0.19180000  1
  C  C346  1  0.21300000  0.43450000  0.84210000  1
  C  C347  1  0.21470000  0.93820000  0.15690000  1
  C  C348  1  0.21510000  0.46930000  0.80460000  1
  C  C349  1  0.21660000  0.87540000  0.31570000  1
  C  C350  1  0.23230000  0.79850000  0.05560000  1
  C  C351  1  0.23380000  0.33460000  0.90800000  1
  C  C352  1  0.23430000  0.83080000  0.09070000  1
  C  C353  1  0.23570000  0.30000000  0.94580000  1
  C  C354  1  0.26430000  0.70000000  0.44580000  1
  C  C355  1  0.26570000  0.16920000  0.59070000  1
  C  C356  1  0.26620000  0.66540000  0.40800000  1
  C  C357  1  0.26770000  0.20150000  0.55560000  1
  C  C358  1  0.28340000  0.12460000  0.81570000  1
  C  C359  1  0.28490000  0.53070000  0.30460000  1
  C  C360  1  0.28530000  0.06180000  0.65690000  1
  C  C361  1  0.28700000  0.56550000  0.34210000  1
  C  C362  1  0.28720000  0.03070000  0.69180000  1
  C  C363  1  0.30160000  0.20220000  0.80420000  1
  C  C364  1  0.30440000  0.78820000  0.03270000  1
  C  C365  1  0.30620000  0.28510000  0.96490000  1
  C  C366  1  0.30820000  0.24040000  0.73100000  1
  C  C367  1  0.30850000  0.48240000  0.21580000  1
  C  C368  1  0.30930000  0.98250000  0.78480000  1
  C  C369  1  0.31150000  0.72220000  0.18870000  1
  C  C370  1  0.32630000  0.47950000  0.17570000  1
  C  C371  1  0.32710000  0.97220000  0.82260000  1
  C  C372  1  0.32860000  0.65930000  0.38820000  1
  C  C373  1  0.32880000  0.72150000  0.46240000  1
  C  C374  1  0.33000000  0.62780000  0.35000000  1
  C  C375  1  0.33100000  0.55790000  0.27580000  1
  C  C376  1  0.33350000  0.11590000  0.64930000  1
  C  C377  1  0.33360000  0.22420000  0.53830000  1
  C  C378  1  0.33420000  0.15410000  0.61030000  1
  C  C379  1  0.33640000  0.05440000  0.72050000  1
  C  C380  1  0.33890000  0.03370000  0.76320000  1
  C  C381  1  0.34170000  0.23920000  0.77130000  1
  C  C382  1  0.34240000  0.82020000  0.23320000  1
  C  C383  1  0.34390000  0.73810000  0.22850000  1
  C  C384  1  0.35020000  0.53560000  0.23840000  1
  C  C385  1  0.36160000  0.74850000  0.15810000  1
  C  C386  1  0.37720000  0.02110000  0.84160000  1
  C  C387  1  0.37860000  0.64800000  0.32200000  1
  C  C388  1  0.37900000  0.14430000  0.67930000  1
  C  C389  1  0.37960000  0.11500000  0.71330000  1
  C  C390  1  0.38020000  0.61280000  0.28460000  1
  C  C391  1  0.38660000  0.51790000  0.16120000  1
  C  C392  1  0.38660000  0.53760000  0.75520000  1
  C  C393  1  0.39010000  0.94920000  0.90290000  1
  C  C394  1  0.39310000  0.51850000  0.11610000  1
  C  C395  1  0.39330000  0.50730000  0.71350000  1
  C  C396  1  0.39540000  0.67870000  0.40750000  1
  C  C397  1  0.39550000  0.17820000  0.59520000  1
  C  C398  1  0.39560000  0.21240000  0.55590000  1
  C  C399  1  0.39580000  0.45180000  0.09850000  1
  C  C400  1  0.39600000  0.57770000  0.22020000  1
  C  C401  1  0.39720000  0.01140000  0.88180000  1
  C  C402  1  0.39720000  0.07860000  0.77890000  1
  C  C403  1  0.39740000  0.70810000  0.44110000  1
  C  C404  1  0.40200000  0.94510000  0.94220000  1
  C  C405  1  0.40380000  0.57880000  0.09620000  1
  C  C406  1  0.40720000  0.37750000  0.03740000  1
  C  C407  1  0.40890000  0.01270000  0.25360000  1
  C  C408  1  0.41010000  0.00910000  0.96310000  1
  C  C409  1  0.41030000  0.07170000  0.81900000  1
  C  C410  1  0.41060000  0.44900000  0.05800000  1
  C  C411  1  0.41160000  0.07770000  0.90430000  1
  C  C412  1  0.41170000  0.07450000  0.94430000  1
  C  C413  1  0.41260000  0.87490000  0.96150000  1
  C  C414  1  0.41550000  0.20990000  0.76150000  1
  C  C415  1  0.42040000  0.71020000  0.23670000  1
  C  C416  1  0.42060000  0.56950000  0.18390000  1
  C  C417  1  0.42200000  0.64370000  0.03390000  1
  C  C418  1  0.42250000  0.57600000  0.05590000  1
  C  C419  1  0.42410000  0.50890000  0.03760000  1
  C  C420  1  0.42500000  0.13100000  0.74970000  1
  C  C421  1  0.42500000  0.14110000  0.96650000  1
  C  C422  1  0.42910000  0.63220000  0.25060000  1
  C  C423  1  0.43760000  0.55290000  0.81320000  1
  C  C424  1  0.45520000  0.07040000  0.15280000  1
  C  C425  1  0.46430000  0.54420000  0.77170000  1
  C  C426  1  0.46440000  0.73270000  0.46120000  1
  C  C427  1  0.46770000  0.22590000  0.53770000  1
  C  C428  1  0.46900000  0.03070000  0.18950000  1
  C  C429  1  0.47160000  0.04590000  0.23230000  1
  C  C430  1  0.49010000  0.12300000  0.24140000  1
  C  C431  1  0.49420000  0.61610000  0.75780000  1
  C  C432  1  0.50580000  0.11610000  0.74220000  1
  C  C433  1  0.50990000  0.62300000  0.25860000  1
  C  C434  1  0.52840000  0.54590000  0.26770000  1
  C  C435  1  0.53100000  0.53070000  0.31050000  1
  C  C436  1  0.53230000  0.72590000  0.96230000  1
  C  C437  1  0.53560000  0.23270000  0.03880000  1
  C  C438  1  0.53570000  0.04420000  0.72830000  1
  C  C439  1  0.54480000  0.57040000  0.34720000  1
  C  C440  1  0.56240000  0.05290000  0.68680000  1
  C  C441  1  0.57090000  0.13220000  0.24940000  1
  C  C442  1  0.57500000  0.63100000  0.75030000  1
  C  C443  1  0.57500000  0.64110000  0.53350000  1
  C  C444  1  0.57590000  0.00890000  0.46240000  1
  C  C445  1  0.57750000  0.07600000  0.44410000  1
  C  C446  1  0.57800000  0.14370000  0.46610000  1
  C  C447  1  0.57940000  0.06950000  0.31610000  1
  C  C448  1  0.57960000  0.21020000  0.26330000  1
  C  C449  1  0.58450000  0.70990000  0.73850000  1
  C  C450  1  0.58740000  0.37490000  0.53850000  1
  C  C451  1  0.58830000  0.57450000  0.55570000  1
  C  C452  1  0.58840000  0.57770000  0.59570000  1
  C  C453  1  0.58940000  0.94900000  0.44200000  1
  C  C454  1  0.58970000  0.57170000  0.68100000  1
  C  C455  1  0.58990000  0.50910000  0.53690000  1
  C  C456  1  0.59110000  0.51270000  0.24640000  1
  C  C457  1  0.59280000  0.87750000  0.46260000  1
  C  C458  1  0.59620000  0.07880000  0.40380000  1
  C  C459  1  0.59800000  0.44510000  0.55780000  1
  C  C460  1  0.60260000  0.20810000  0.05890000  1
  C  C461  1  0.60280000  0.51140000  0.61820000  1
  C  C462  1  0.60280000  0.57860000  0.72110000  1
  C  C463  1  0.60400000  0.07770000  0.27980000  1
  C  C464  1  0.60420000  0.95180000  0.40150000  1
  C  C465  1  0.60440000  0.71240000  0.94410000  1
  C  C466  1  0.60450000  0.67820000  0.90480000  1
  C  C467  1  0.60460000  0.17870000  0.09250000  1
  C  C468  1  0.60670000  0.00730000  0.78650000  1
  C  C469  1  0.60690000  0.01850000  0.38390000  1
  C  C470  1  0.60990000  0.44920000  0.59710000  1
  C  C471  1  0.61340000  0.01790000  0.33880000  1
  C  C472  1  0.61340000  0.03760000  0.74480000  1
  C  C473  1  0.61980000  0.11280000  0.21540000  1
  C  C474  1  0.62040000  0.61500000  0.78670000  1
  C  C475  1  0.62100000  0.64430000  0.82070000  1
  C  C476  1  0.62140000  0.14800000  0.17800000  1
  C  C477  1  0.62280000  0.52110000  0.65840000  1
  C  C478  1  0.63840000  0.24850000  0.34190000  1
  C  C479  1  0.64980000  0.03560000  0.26160000  1
  C  C480  1  0.65610000  0.23810000  0.27150000  1
  C  C481  1  0.65760000  0.32020000  0.26680000  1
  C  C482  1  0.65830000  0.73920000  0.72870000  1
  C  C483  1  0.66110000  0.53370000  0.73680000  1
  C  C484  1  0.66360000  0.55440000  0.77950000  1
  C  C485  1  0.66580000  0.65410000  0.88970000  1
  C  C486  1  0.66640000  0.72420000  0.96170000  1
  C  C487  1  0.66650000  0.61590000  0.85070000  1
  C  C488  1  0.66900000  0.05790000  0.22420000  1
  C  C489  1  0.67000000  0.12780000  0.15000000  1
  C  C490  1  0.67120000  0.22150000  0.03760000  1
  C  C491  1  0.67140000  0.15930000  0.11180000  1
  C  C492  1  0.67290000  0.47220000  0.67740000  1
  C  C493  1  0.67370000  0.97950000  0.32430000  1
  C  C494  1  0.68850000  0.22220000  0.31130000  1
  C  C495  1  0.69070000  0.48250000  0.71520000  1
  C  C496  1  0.69150000  0.98240000  0.28420000  1
  C  C497  1  0.69180000  0.74040000  0.76900000  1
  C  C498  1  0.69380000  0.78510000  0.53510000  1
  C  C499  1  0.69560000  0.28820000  0.46730000  1
  C  C500  1  0.69840000  0.70220000  0.69580000  1
  C  C501  1  0.71280000  0.53070000  0.80820000  1
  C  C502  1  0.71300000  0.06550000  0.15790000  1
  C  C503  1  0.71470000  0.56180000  0.84310000  1
  C  C504  1  0.71510000  0.03070000  0.19540000  1
  C  C505  1  0.71660000  0.62460000  0.68430000  1
  C  C506  1  0.73230000  0.70150000  0.94440000  1
  C  C507  1  0.73380000  0.16540000  0.09200000  1
  C  C508  1  0.73430000  0.66920000  0.90930000  1
  C  C509  1  0.73570000  0.20000000  0.05420000  1
  C  C510  1  0.76430000  0.80000000  0.55420000  1
  C  C511  1  0.76570000  0.33080000  0.40930000  1
  C  C512  1  0.76620000  0.83460000  0.59200000  1
  C  C513  1  0.76770000  0.29850000  0.44440000  1
  C  C514  1  0.78340000  0.37540000  0.18430000  1
  C  C515  1  0.78490000  0.96930000  0.69540000  1
  C  C516  1  0.78530000  0.43820000  0.34310000  1
  C  C517  1  0.78700000  0.93450000  0.65790000  1
  C  C518  1  0.78720000  0.46930000  0.30820000  1
  C  C519  1  0.80160000  0.29780000  0.19580000  1
  C  C520  1  0.80440000  0.71180000  0.96730000  1
  C  C521  1  0.80620000  0.21490000  0.03510000  1
  C  C522  1  0.80820000  0.25960000  0.26900000  1
  C  C523  1  0.80850000  0.01760000  0.78420000  1
  C  C524  1  0.80930000  0.51750000  0.21520000  1
  C  C525  1  0.81150000  0.77780000  0.81130000  1
  C  C526  1  0.82630000  0.02050000  0.82430000  1
  C  C527  1  0.82710000  0.52780000  0.17740000  1
  C  C528  1  0.82860000  0.84070000  0.61180000  1
  C  C529  1  0.82880000  0.77850000  0.53760000  1
  C  C530  1  0.83000000  0.87220000  0.65000000  1
  C  C531  1  0.83100000  0.94210000  0.72420000  1
  C  C532  1  0.83350000  0.38410000  0.35070000  1
  C  C533  1  0.83360000  0.27580000  0.46170000  1
  C  C534  1  0.83420000  0.34590000  0.38970000  1
  C  C535  1  0.83640000  0.44560000  0.27950000  1
  C  C536  1  0.83890000  0.46630000  0.23680000  1
  C  C537  1  0.84170000  0.26080000  0.22870000  1
  C  C538  1  0.84240000  0.67980000  0.76680000  1
  C  C539  1  0.84390000  0.76190000  0.77150000  1
  C  C540  1  0.85020000  0.96440000  0.76160000  1
  C  C541  1  0.86160000  0.75150000  0.84190000  1
  C  C542  1  0.87720000  0.47890000  0.15840000  1
  C  C543  1  0.87860000  0.85200000  0.67800000  1
  C  C544  1  0.87900000  0.35570000  0.32070000  1
  C  C545  1  0.87960000  0.38500000  0.28670000  1
  C  C546  1  0.88020000  0.88720000  0.71540000  1
  C  C547  1  0.88660000  0.96240000  0.24480000  1
  C  C548  1  0.88660000  0.98210000  0.83880000  1
  C  C549  1  0.89010000  0.55080000  0.09710000  1
  C  C550  1  0.89310000  0.98150000  0.88390000  1
  C  C551  1  0.89330000  0.99270000  0.28650000  1
  C  C552  1  0.89540000  0.82130000  0.59250000  1
  C  C553  1  0.89550000  0.32180000  0.40480000  1
  C  C554  1  0.89560000  0.28760000  0.44410000  1
  C  C555  1  0.89580000  0.04820000  0.90150000  1
  C  C556  1  0.89600000  0.92230000  0.77980000  1
  C  C557  1  0.89720000  0.42140000  0.22110000  1
  C  C558  1  0.89720000  0.48860000  0.11820000  1
  C  C559  1  0.89740000  0.79190000  0.55890000  1
  C  C560  1  0.90200000  0.55490000  0.05780000  1
  C  C561  1  0.90380000  0.92120000  0.90380000  1
  C  C562  1  0.90720000  0.12250000  0.96260000  1
  C  C563  1  0.90890000  0.48730000  0.74640000  1
  C  C564  1  0.91010000  0.49090000  0.03690000  1
  C  C565  1  0.91030000  0.42830000  0.18100000  1
  C  C566  1  0.91060000  0.05100000  0.94200000  1
  C  C567  1  0.91160000  0.42230000  0.09570000  1
  C  C568  1  0.91170000  0.42550000  0.05570000  1
  C  C569  1  0.91260000  0.62510000  0.03850000  1
  C  C570  1  0.91550000  0.29010000  0.23850000  1
  C  C571  1  0.92040000  0.78980000  0.76330000  1
  C  C572  1  0.92060000  0.93050000  0.81610000  1
  C  C573  1  0.92200000  0.85630000  0.96610000  1
  C  C574  1  0.92250000  0.92400000  0.94410000  1
  C  C575  1  0.92410000  0.99110000  0.96240000  1
  C  C576  1  0.92500000  0.35890000  0.03350000  1
  C  C577  1  0.92500000  0.36900000  0.25030000  1
  C  C578  1  0.92910000  0.86780000  0.74940000  1
  C  C579  1  0.93760000  0.94710000  0.18680000  1
  C  C580  1  0.95520000  0.42960000  0.84720000  1
  C  C581  1  0.96430000  0.95580000  0.22830000  1
  C  C582  1  0.96440000  0.76730000  0.53880000  1
  C  C583  1  0.96770000  0.27410000  0.46230000  1
  C  C584  1  0.96900000  0.46930000  0.81050000  1
  C  C585  1  0.97160000  0.45410000  0.76770000  1
  C  C586  1  0.99010000  0.37700000  0.75860000  1
  C  C587  1  0.99420000  0.88390000  0.24220000  1
  O  O588  1  0.02230000  0.78610000  0.55517000  1
  O  O589  1  0.02450000  0.28140000  0.44262000  1
  O  O590  1  0.03690000  0.74300000  0.00574000  1
  O  O591  1  0.03970000  0.24120000  0.99545000  1
  O  O592  1  0.04780000  0.80510000  0.45070000  1
  O  O593  1  0.05160000  0.30320000  0.55234000  1
  O  O594  1  0.05310000  0.12770000  0.49283000  1
  O  O595  1  0.05800000  0.62300000  0.50650000  1
  O  O596  1  0.09870000  0.85930000  0.50095000  1
  O  O597  1  0.10310000  0.35710000  0.49910000  1
  O  O598  1  0.12030000  0.67620000  0.55310000  1
  O  O599  1  0.12580000  0.17330000  0.44536000  1
  O  O600  1  0.13570000  0.18960000  0.55020000  1
  O  O601  1  0.14290000  0.68850000  0.45210000  1
  O  O602  1  0.19470000  0.75080000  0.49639000  1
  O  O603  1  0.20450000  0.24570000  0.50195000  1
  O  O604  1  0.29550000  0.75430000  0.00195000  1
  O  O605  1  0.30530000  0.24920000  0.99639000  1
  O  O606  1  0.35710000  0.31150000  0.95210000  1
  O  O607  1  0.36430000  0.81040000  0.05020000  1
  O  O608  1  0.37420000  0.82670000  0.94536000  1
  O  O609  1  0.37970000  0.32380000  0.05310000  1
  O  O610  1  0.39690000  0.64290000  0.99910000  1
  O  O611  1  0.40130000  0.14070000  0.00095000  1
  O  O612  1  0.44200000  0.37700000  0.00650000  1
  O  O613  1  0.44690000  0.87230000  0.99283000  1
  O  O614  1  0.44840000  0.69680000  0.05234000  1
  O  O615  1  0.45220000  0.19490000  0.95070000  1
  O  O616  1  0.46030000  0.75880000  0.49545000  1
  O  O617  1  0.46310000  0.25700000  0.50574000  1
  O  O618  1  0.47550000  0.71860000  0.94262000  1
  O  O619  1  0.47770000  0.21390000  0.05517000  1
  O  O620  1  0.52230000  0.71390000  0.44483000  1
  O  O621  1  0.52450000  0.21860000  0.55738000  1
  O  O622  1  0.53690000  0.75700000  0.99426000  1
  O  O623  1  0.53970000  0.25880000  0.00455000  1
  O  O624  1  0.54780000  0.69490000  0.54930000  1
  O  O625  1  0.55160000  0.19680000  0.44766000  1
  O  O626  1  0.55310000  0.37230000  0.50717000  1
  O  O627  1  0.55800000  0.87700000  0.49350000  1
  O  O628  1  0.59870000  0.64070000  0.49905000  1
  O  O629  1  0.60310000  0.14290000  0.50090000  1
  O  O630  1  0.62030000  0.82380000  0.44690000  1
  O  O631  1  0.62580000  0.32670000  0.55464000  1
  O  O632  1  0.63570000  0.31040000  0.44980000  1
  O  O633  1  0.64290000  0.81150000  0.54790000  1
  O  O634  1  0.69470000  0.74920000  0.50361000  1
  O  O635  1  0.70450000  0.25430000  0.49805000  1
  O  O636  1  0.79550000  0.74570000  0.99805000  1
  O  O637  1  0.80530000  0.25080000  0.00361000  1
  O  O638  1  0.85710000  0.18850000  0.04790000  1
  O  O639  1  0.86430000  0.68960000  0.94980000  1
  O  O640  1  0.87420000  0.67330000  0.05464000  1
  O  O641  1  0.87970000  0.17620000  0.94690000  1
  O  O642  1  0.89690000  0.85710000  0.00090000  1
  O  O643  1  0.90130000  0.35930000  0.99905000  1
  O  O644  1  0.94200000  0.12300000  0.99350000  1
  O  O645  1  0.94690000  0.62770000  0.00717000  1
  O  O646  1  0.94840000  0.80320000  0.94766000  1
  O  O647  1  0.95220000  0.30510000  0.04930000  1
  O  O648  1  0.96030000  0.74120000  0.50455000  1
  O  O649  1  0.96310000  0.24300000  0.49426000  1
  O  O650  1  0.97550000  0.78140000  0.05738000  1
  O  O651  1  0.97770000  0.28610000  0.94483000  1
