# generated using pymatgen
data_BaH6C5NO4
_symmetry_space_group_name_H-M   'P 1'
_cell_length_a   8.98130000
_cell_length_b   19.71260000
_cell_length_c   19.71260000
_cell_angle_alpha   90.00000000
_cell_angle_beta   90.00000000
_cell_angle_gamma   90.00000000
_symmetry_Int_Tables_number   1
_chemical_formula_structural   BaH6C5NO4
_chemical_formula_sum   'Ba16 H96 C80 N16 O64'
_cell_volume   3490.01281944
_cell_formula_units_Z   16
loop_
 _symmetry_equiv_pos_site_id
 _symmetry_equiv_pos_as_xyz
  1  'x, y, z'
loop_
 _atom_site_type_symbol
 _atom_site_label
 _atom_site_symmetry_multiplicity
 _atom_site_fract_x
 _atom_site_fract_y
 _atom_site_fract_z
 _atom_site_occupancy
  Ba  Ba0  1  0.26630000  0.19162000  0.63353000  1
  Ba  Ba1  1  0.26630000  0.36647000  0.19162000  1
  Ba  Ba2  1  0.26630000  0.63353000  0.80838000  1
  Ba  Ba3  1  0.26630000  0.80838000  0.36647000  1
  Ba  Ba4  1  0.27256000  0.14536000  0.31713000  1
  Ba  Ba5  1  0.27256000  0.31713000  0.85464000  1
  Ba  Ba6  1  0.27256000  0.68287000  0.14536000  1
  Ba  Ba7  1  0.27256000  0.85464000  0.68287000  1
  Ba  Ba8  1  0.76630000  0.13353000  0.69162000  1
  Ba  Ba9  1  0.76630000  0.30838000  0.13353000  1
  Ba  Ba10  1  0.76630000  0.69162000  0.86647000  1
  Ba  Ba11  1  0.76630000  0.86647000  0.30838000  1
  Ba  Ba12  1  0.77256000  0.18287000  0.35464000  1
  Ba  Ba13  1  0.77256000  0.35464000  0.81713000  1
  Ba  Ba14  1  0.77256000  0.64536000  0.18287000  1
  Ba  Ba15  1  0.77256000  0.81713000  0.64536000  1
  H  H16  1  0.00200000  0.01700000  0.20500000  1
  H  H17  1  0.00200000  0.20500000  0.98300000  1
  H  H18  1  0.00200000  0.79500000  0.01700000  1
  H  H19  1  0.00200000  0.98300000  0.79500000  1
  H  H20  1  0.06600000  0.13000000  0.13700000  1
  H  H21  1  0.06600000  0.13700000  0.87000000  1
  H  H22  1  0.06600000  0.86300000  0.13000000  1
  H  H23  1  0.06600000  0.87000000  0.86300000  1
  H  H24  1  0.07200000  0.37100000  0.62500000  1
  H  H25  1  0.07200000  0.37500000  0.37100000  1
  H  H26  1  0.07200000  0.62500000  0.62900000  1
  H  H27  1  0.07200000  0.62900000  0.37500000  1
  H  H28  1  0.10200000  0.15400000  0.79700000  1
  H  H29  1  0.10200000  0.20300000  0.15400000  1
  H  H30  1  0.10200000  0.79700000  0.84600000  1
  H  H31  1  0.10200000  0.84600000  0.20300000  1
  H  H32  1  0.11800000  0.02200000  0.82300000  1
  H  H33  1  0.11800000  0.17700000  0.02200000  1
  H  H34  1  0.11800000  0.82300000  0.97800000  1
  H  H35  1  0.11800000  0.97800000  0.17700000  1
  H  H36  1  0.16700000  0.38700000  0.49900000  1
  H  H37  1  0.16700000  0.49900000  0.61300000  1
  H  H38  1  0.16700000  0.50100000  0.38700000  1
  H  H39  1  0.16700000  0.61300000  0.50100000  1
  H  H40  1  0.25700000  0.32600000  0.48400000  1
  H  H41  1  0.25700000  0.48400000  0.67400000  1
  H  H42  1  0.25700000  0.51600000  0.32600000  1
  H  H43  1  0.25700000  0.67400000  0.51600000  1
  H  H44  1  0.32400000  0.39000000  0.60100000  1
  H  H45  1  0.32400000  0.39900000  0.39000000  1
  H  H46  1  0.32400000  0.60100000  0.61000000  1
  H  H47  1  0.32400000  0.61000000  0.39900000  1
  H  H48  1  0.39900000  0.40000000  0.53400000  1
  H  H49  1  0.39900000  0.46600000  0.40000000  1
  H  H50  1  0.39900000  0.53400000  0.60000000  1
  H  H51  1  0.39900000  0.60000000  0.46600000  1
  H  H52  1  0.44500000  0.08300000  0.86700000  1
  H  H53  1  0.44500000  0.13300000  0.08300000  1
  H  H54  1  0.44500000  0.86700000  0.91700000  1
  H  H55  1  0.44500000  0.91700000  0.13300000  1
  H  H56  1  0.44800000  0.03200000  0.74200000  1
  H  H57  1  0.44800000  0.25800000  0.03200000  1
  H  H58  1  0.44800000  0.74200000  0.96800000  1
  H  H59  1  0.44800000  0.96800000  0.25800000  1
  H  H60  1  0.47800000  0.02700000  0.20300000  1
  H  H61  1  0.47800000  0.20300000  0.97300000  1
  H  H62  1  0.47800000  0.79700000  0.02700000  1
  H  H63  1  0.47800000  0.97300000  0.79700000  1
  H  H64  1  0.50200000  0.29500000  0.48300000  1
  H  H65  1  0.50200000  0.48300000  0.70500000  1
  H  H66  1  0.50200000  0.51700000  0.29500000  1
  H  H67  1  0.50200000  0.70500000  0.51700000  1
  H  H68  1  0.56600000  0.36300000  0.37000000  1
  H  H69  1  0.56600000  0.37000000  0.63700000  1
  H  H70  1  0.56600000  0.63000000  0.36300000  1
  H  H71  1  0.56600000  0.63700000  0.63000000  1
  H  H72  1  0.57200000  0.12500000  0.87100000  1
  H  H73  1  0.57200000  0.12900000  0.12500000  1
  H  H74  1  0.57200000  0.87100000  0.87500000  1
  H  H75  1  0.57200000  0.87500000  0.12900000  1
  H  H76  1  0.60200000  0.29700000  0.65400000  1
  H  H77  1  0.60200000  0.34600000  0.29700000  1
  H  H78  1  0.60200000  0.65400000  0.70300000  1
  H  H79  1  0.60200000  0.70300000  0.34600000  1
  H  H80  1  0.61800000  0.32300000  0.52200000  1
  H  H81  1  0.61800000  0.47800000  0.32300000  1
  H  H82  1  0.61800000  0.52200000  0.67700000  1
  H  H83  1  0.61800000  0.67700000  0.47800000  1
  H  H84  1  0.66700000  0.00100000  0.11300000  1
  H  H85  1  0.66700000  0.11300000  0.99900000  1
  H  H86  1  0.66700000  0.88700000  0.00100000  1
  H  H87  1  0.66700000  0.99900000  0.88700000  1
  H  H88  1  0.75700000  0.01600000  0.17400000  1
  H  H89  1  0.75700000  0.17400000  0.98400000  1
  H  H90  1  0.75700000  0.82600000  0.01600000  1
  H  H91  1  0.75700000  0.98400000  0.82600000  1
  H  H92  1  0.82400000  0.10100000  0.89000000  1
  H  H93  1  0.82400000  0.11000000  0.10100000  1
  H  H94  1  0.82400000  0.89000000  0.89900000  1
  H  H95  1  0.82400000  0.89900000  0.11000000  1
  H  H96  1  0.89900000  0.03400000  0.90000000  1
  H  H97  1  0.89900000  0.10000000  0.03400000  1
  H  H98  1  0.89900000  0.90000000  0.96600000  1
  H  H99  1  0.89900000  0.96600000  0.10000000  1
  H  H100  1  0.94500000  0.36700000  0.58300000  1
  H  H101  1  0.94500000  0.41700000  0.36700000  1
  H  H102  1  0.94500000  0.58300000  0.63300000  1
  H  H103  1  0.94500000  0.63300000  0.41700000  1
  H  H104  1  0.94800000  0.24200000  0.53200000  1
  H  H105  1  0.94800000  0.46800000  0.24200000  1
  H  H106  1  0.94800000  0.53200000  0.75800000  1
  H  H107  1  0.94800000  0.75800000  0.46800000  1
  H  H108  1  0.97800000  0.29700000  0.47300000  1
  H  H109  1  0.97800000  0.47300000  0.70300000  1
  H  H110  1  0.97800000  0.52700000  0.29700000  1
  H  H111  1  0.97800000  0.70300000  0.52700000  1
  C  C112  1  0.01860000  0.26430000  0.50610000  1
  C  C113  1  0.01860000  0.49390000  0.26430000  1
  C  C114  1  0.01860000  0.50610000  0.73570000  1
  C  C115  1  0.01860000  0.73570000  0.49390000  1
  C  C116  1  0.02010000  0.33830000  0.60330000  1
  C  C117  1  0.02010000  0.39670000  0.33830000  1
  C  C118  1  0.02010000  0.60330000  0.66170000  1
  C  C119  1  0.02010000  0.66170000  0.39670000  1
  C  C120  1  0.02560000  0.14190000  0.82850000  1
  C  C121  1  0.02560000  0.17150000  0.14190000  1
  C  C122  1  0.02560000  0.82850000  0.85810000  1
  C  C123  1  0.02560000  0.85810000  0.17150000  1
  C  C124  1  0.03730000  0.02640000  0.78680000  1
  C  C125  1  0.03730000  0.21320000  0.02640000  1
  C  C126  1  0.03730000  0.78680000  0.97360000  1
  C  C127  1  0.03730000  0.97360000  0.21320000  1
  C  C128  1  0.10440000  0.20970000  0.46790000  1
  C  C129  1  0.10440000  0.46790000  0.79030000  1
  C  C130  1  0.10440000  0.53210000  0.20970000  1
  C  C131  1  0.10440000  0.79030000  0.53210000  1
  C  C132  1  0.10450000  0.03540000  0.71570000  1
  C  C133  1  0.10450000  0.28430000  0.03540000  1
  C  C134  1  0.10450000  0.71570000  0.96460000  1
  C  C135  1  0.10450000  0.96460000  0.28430000  1
  C  C136  1  0.21360000  0.34580000  0.51820000  1
  C  C137  1  0.21360000  0.48180000  0.34580000  1
  C  C138  1  0.21360000  0.51820000  0.65420000  1
  C  C139  1  0.21360000  0.65420000  0.48180000  1
  C  C140  1  0.34670000  0.36630000  0.55990000  1
  C  C141  1  0.34670000  0.44010000  0.36630000  1
  C  C142  1  0.34670000  0.55990000  0.63370000  1
  C  C143  1  0.34670000  0.63370000  0.44010000  1
  C  C144  1  0.43310000  0.29300000  0.33010000  1
  C  C145  1  0.43310000  0.33010000  0.70700000  1
  C  C146  1  0.43310000  0.66990000  0.29300000  1
  C  C147  1  0.43310000  0.70700000  0.66990000  1
  C  C148  1  0.44290000  0.15570000  0.79450000  1
  C  C149  1  0.44290000  0.20550000  0.15570000  1
  C  C150  1  0.44290000  0.79450000  0.84430000  1
  C  C151  1  0.44290000  0.84430000  0.20550000  1
  C  C152  1  0.51860000  0.00610000  0.76430000  1
  C  C153  1  0.51860000  0.23570000  0.00610000  1
  C  C154  1  0.51860000  0.76430000  0.99390000  1
  C  C155  1  0.51860000  0.99390000  0.23570000  1
  C  C156  1  0.52010000  0.10330000  0.83830000  1
  C  C157  1  0.52010000  0.16170000  0.10330000  1
  C  C158  1  0.52010000  0.83830000  0.89670000  1
  C  C159  1  0.52010000  0.89670000  0.16170000  1
  C  C160  1  0.52560000  0.32850000  0.64190000  1
  C  C161  1  0.52560000  0.35810000  0.32850000  1
  C  C162  1  0.52560000  0.64190000  0.67150000  1
  C  C163  1  0.52560000  0.67150000  0.35810000  1
  C  C164  1  0.53730000  0.28680000  0.52640000  1
  C  C165  1  0.53730000  0.47360000  0.28680000  1
  C  C166  1  0.53730000  0.52640000  0.71320000  1
  C  C167  1  0.53730000  0.71320000  0.47360000  1
  C  C168  1  0.60440000  0.03210000  0.29030000  1
  C  C169  1  0.60440000  0.29030000  0.96790000  1
  C  C170  1  0.60440000  0.70970000  0.03210000  1
  C  C171  1  0.60440000  0.96790000  0.70970000  1
  C  C172  1  0.60450000  0.21570000  0.53540000  1
  C  C173  1  0.60450000  0.46460000  0.21570000  1
  C  C174  1  0.60450000  0.53540000  0.78430000  1
  C  C175  1  0.60450000  0.78430000  0.46460000  1
  C  C176  1  0.71360000  0.01820000  0.84580000  1
  C  C177  1  0.71360000  0.15420000  0.01820000  1
  C  C178  1  0.71360000  0.84580000  0.98180000  1
  C  C179  1  0.71360000  0.98180000  0.15420000  1
  C  C180  1  0.84670000  0.05990000  0.86630000  1
  C  C181  1  0.84670000  0.13370000  0.05990000  1
  C  C182  1  0.84670000  0.86630000  0.94010000  1
  C  C183  1  0.84670000  0.94010000  0.13370000  1
  C  C184  1  0.93310000  0.16990000  0.20700000  1
  C  C185  1  0.93310000  0.20700000  0.83010000  1
  C  C186  1  0.93310000  0.79300000  0.16990000  1
  C  C187  1  0.93310000  0.83010000  0.79300000  1
  C  C188  1  0.94290000  0.29450000  0.65570000  1
  C  C189  1  0.94290000  0.34430000  0.29450000  1
  C  C190  1  0.94290000  0.65570000  0.70550000  1
  C  C191  1  0.94290000  0.70550000  0.34430000  1
  N  N192  1  0.11060000  0.30050000  0.55440000  1
  N  N193  1  0.11060000  0.44560000  0.30050000  1
  N  N194  1  0.11060000  0.55440000  0.69950000  1
  N  N195  1  0.11060000  0.69950000  0.44560000  1
  N  N196  1  0.43860000  0.30920000  0.58120000  1
  N  N197  1  0.43860000  0.41880000  0.30920000  1
  N  N198  1  0.43860000  0.58120000  0.69080000  1
  N  N199  1  0.43860000  0.69080000  0.41880000  1
  N  N200  1  0.61060000  0.05440000  0.80050000  1
  N  N201  1  0.61060000  0.19950000  0.05440000  1
  N  N202  1  0.61060000  0.80050000  0.94560000  1
  N  N203  1  0.61060000  0.94560000  0.19950000  1
  N  N204  1  0.93860000  0.08120000  0.80920000  1
  N  N205  1  0.93860000  0.19080000  0.08120000  1
  N  N206  1  0.93860000  0.80920000  0.91880000  1
  N  N207  1  0.93860000  0.91880000  0.19080000  1
  O  O208  1  0.05970000  0.19220000  0.41110000  1
  O  O209  1  0.05970000  0.41110000  0.80780000  1
  O  O210  1  0.05970000  0.58890000  0.19220000  1
  O  O211  1  0.05970000  0.80780000  0.58890000  1
  O  O212  1  0.07140000  0.08830000  0.68370000  1
  O  O213  1  0.07140000  0.31630000  0.08830000  1
  O  O214  1  0.07140000  0.68370000  0.91170000  1
  O  O215  1  0.07140000  0.91170000  0.31630000  1
  O  O216  1  0.18830000  0.01090000  0.30440000  1
  O  O217  1  0.18830000  0.30440000  0.98910000  1
  O  O218  1  0.18830000  0.69560000  0.01090000  1
  O  O219  1  0.18830000  0.98910000  0.69560000  1
  O  O220  1  0.21470000  0.18440000  0.49800000  1
  O  O221  1  0.21470000  0.49800000  0.81560000  1
  O  O222  1  0.21470000  0.50200000  0.18440000  1
  O  O223  1  0.21470000  0.81560000  0.50200000  1
  O  O224  1  0.30050000  0.29331000  0.31055000  1
  O  O225  1  0.30050000  0.31055000  0.70669000  1
  O  O226  1  0.30050000  0.68945000  0.29331000  1
  O  O227  1  0.30050000  0.70669000  0.68945000  1
  O  O228  1  0.35000000  0.17570000  0.19210000  1
  O  O229  1  0.35000000  0.19210000  0.82430000  1
  O  O230  1  0.35000000  0.80790000  0.17570000  1
  O  O231  1  0.35000000  0.82430000  0.80790000  1
  O  O232  1  0.47650000  0.16000000  0.73290000  1
  O  O233  1  0.47650000  0.26710000  0.16000000  1
  O  O234  1  0.47650000  0.73290000  0.84000000  1
  O  O235  1  0.47650000  0.84000000  0.26710000  1
  O  O236  1  0.49890000  0.24151000  0.35180000  1
  O  O237  1  0.49890000  0.35180000  0.75849000  1
  O  O238  1  0.49890000  0.64820000  0.24151000  1
  O  O239  1  0.49890000  0.75849000  0.64820000  1
  O  O240  1  0.55970000  0.08890000  0.30780000  1
  O  O241  1  0.55970000  0.30780000  0.91110000  1
  O  O242  1  0.55970000  0.69220000  0.08890000  1
  O  O243  1  0.55970000  0.91110000  0.69220000  1
  O  O244  1  0.57140000  0.18370000  0.58830000  1
  O  O245  1  0.57140000  0.41170000  0.18370000  1
  O  O246  1  0.57140000  0.58830000  0.81630000  1
  O  O247  1  0.57140000  0.81630000  0.41170000  1
  O  O248  1  0.68830000  0.19560000  0.48910000  1
  O  O249  1  0.68830000  0.48910000  0.80440000  1
  O  O250  1  0.68830000  0.51090000  0.19560000  1
  O  O251  1  0.68830000  0.80440000  0.51090000  1
  O  O252  1  0.71470000  0.00200000  0.31560000  1
  O  O253  1  0.71470000  0.31560000  0.99800000  1
  O  O254  1  0.71470000  0.68440000  0.00200000  1
  O  O255  1  0.71470000  0.99800000  0.68440000  1
  O  O256  1  0.80050000  0.18945000  0.20669000  1
  O  O257  1  0.80050000  0.20669000  0.81055000  1
  O  O258  1  0.80050000  0.79331000  0.18945000  1
  O  O259  1  0.80050000  0.81055000  0.79331000  1
  O  O260  1  0.85000000  0.30790000  0.32430000  1
  O  O261  1  0.85000000  0.32430000  0.69210000  1
  O  O262  1  0.85000000  0.67570000  0.30790000  1
  O  O263  1  0.85000000  0.69210000  0.67570000  1
  O  O264  1  0.97650000  0.23290000  0.66000000  1
  O  O265  1  0.97650000  0.34000000  0.23290000  1
  O  O266  1  0.97650000  0.66000000  0.76710000  1
  O  O267  1  0.97650000  0.76710000  0.34000000  1
  O  O268  1  0.99890000  0.14820000  0.25849000  1
  O  O269  1  0.99890000  0.25849000  0.85180000  1
  O  O270  1  0.99890000  0.74151000  0.14820000  1
  O  O271  1  0.99890000  0.85180000  0.74151000  1
