# generated using pymatgen
data_CeH13(C3N2)4
_symmetry_space_group_name_H-M   'P 1'
_cell_length_a   14.02400000
_cell_length_b   23.25300000
_cell_length_c   23.45500000
_cell_angle_alpha   107.68000000
_cell_angle_beta   90.00000000
_cell_angle_gamma   90.00000000
_symmetry_Int_Tables_number   1
_chemical_formula_structural   CeH13(C3N2)4
_chemical_formula_sum   'Ce16 H208 C192 N128'
_cell_volume   7287.41143177
_cell_formula_units_Z   16
loop_
 _symmetry_equiv_pos_site_id
 _symmetry_equiv_pos_as_xyz
  1  'x, y, z'
loop_
 _atom_site_type_symbol
 _atom_site_label
 _atom_site_symmetry_multiplicity
 _atom_site_fract_x
 _atom_site_fract_y
 _atom_site_fract_z
 _atom_site_occupancy
  Ce  Ce0  1  0.05728000  0.74750000  0.29236000  1
  Ce  Ce1  1  0.14470000  0.25780000  0.20924000  1
  Ce  Ce2  1  0.19951000  0.77688000  0.00362000  1
  Ce  Ce3  1  0.20283000  0.51112000  0.77365000  1
  Ce  Ce4  1  0.29717000  0.01112000  0.27365000  1
  Ce  Ce5  1  0.30049000  0.27688000  0.50362000  1
  Ce  Ce6  1  0.35530000  0.75780000  0.70924000  1
  Ce  Ce7  1  0.44272000  0.24750000  0.79236000  1
  Ce  Ce8  1  0.55728000  0.75250000  0.20764000  1
  Ce  Ce9  1  0.64470000  0.24220000  0.29076000  1
  Ce  Ce10  1  0.69951000  0.72312000  0.49639000  1
  Ce  Ce11  1  0.70283000  0.98888000  0.72635000  1
  Ce  Ce12  1  0.79717000  0.48888000  0.22636000  1
  Ce  Ce13  1  0.80049000  0.22312000  0.99638000  1
  Ce  Ce14  1  0.85530000  0.74220000  0.79076000  1
  Ce  Ce15  1  0.94272000  0.25250000  0.70764000  1
  H  H16  1  0.00860000  0.28850000  0.34910000  1
  H  H17  1  0.01670000  0.84360000  0.10150000  1
  H  H18  1  0.02840000  0.86510000  0.81040000  1
  H  H19  1  0.02990000  0.63990000  0.83380000  1
  H  H20  1  0.03550000  0.84390000  0.45850000  1
  H  H21  1  0.03610000  0.65150000  0.98730000  1
  H  H22  1  0.04170000  0.54390000  0.90570000  1
  H  H23  1  0.04240000  0.69420000  0.42020000  1
  H  H24  1  0.04370000  0.43550000  0.65370000  1
  H  H25  1  0.05220000  0.17260000  0.80040000  1
  H  H26  1  0.05580000  0.54380000  0.66470000  1
  H  H27  1  0.05660000  0.92730000  0.60260000  1
  H  H28  1  0.05890000  0.87520000  0.68010000  1
  H  H29  1  0.05990000  0.49380000  0.22690000  1
  H  H30  1  0.06430000  0.28530000  0.45230000  1
  H  H31  1  0.06870000  0.76130000  0.88370000  1
  H  H32  1  0.07710000  0.20560000  0.96680000  1
  H  H33  1  0.08130000  0.10800000  0.26310000  1
  H  H34  1  0.08670000  0.92370000  0.03550000  1
  H  H35  1  0.08750000  0.36470000  0.55100000  1
  H  H36  1  0.08760000  0.99720000  0.97480000  1
  H  H37  1  0.09440000  0.16790000  0.46680000  1
  H  H38  1  0.09550000  0.38920000  0.32520000  1
  H  H39  1  0.09740000  0.69510000  0.72810000  1
  H  H40  1  0.09770000  0.15420000  0.68580000  1
  H  H41  1  0.10280000  0.01050000  0.37940000  1
  H  H42  1  0.10290000  0.09960000  0.10650000  1
  H  H43  1  0.10940000  0.37090000  0.77280000  1
  H  H44  1  0.13000000  0.80680000  0.53560000  1
  H  H45  1  0.13590000  0.36850000  0.12590000  1
  H  H46  1  0.13630000  0.87390000  0.24560000  1
  H  H47  1  0.14070000  0.77170000  0.62760000  1
  H  H48  1  0.14810000  0.62900000  0.45360000  1
  H  H49  1  0.15480000  0.27320000  0.63250000  1
  H  H50  1  0.15650000  0.00460000  0.12780000  1
  H  H51  1  0.15760000  0.59070000  0.26110000  1
  H  H52  1  0.16900000  0.71970000  0.13820000  1
  H  H53  1  0.17050000  0.86730000  0.41090000  1
  H  H54  1  0.17830000  0.95470000  0.89410000  1
  H  H55  1  0.18540000  0.89160000  0.15250000  1
  H  H56  1  0.19580000  0.19660000  0.04930000  1
  H  H57  1  0.19620000  0.85890000  0.76960000  1
  H  H58  1  0.19840000  0.12570000  0.90460000  1
  H  H59  1  0.20100000  0.30520000  0.78620000  1
  H  H60  1  0.21220000  0.19500000  0.83930000  1
  H  H61  1  0.21760000  0.36490000  0.03950000  1
  H  H62  1  0.22600000  0.63840000  0.20300000  1
  H  H63  1  0.22650000  0.45220000  0.89090000  1
  H  H64  1  0.22710000  0.73700000  0.83850000  1
  H  H65  1  0.23260000  0.64310000  0.74550000  1
  H  H66  1  0.23580000  0.13800000  0.38980000  1
  H  H67  1  0.24650000  0.86070000  0.88730000  1
  H  H68  1  0.25350000  0.36070000  0.38730000  1
  H  H69  1  0.26420000  0.63800000  0.88980000  1
  H  H70  1  0.26740000  0.14310000  0.24550000  1
  H  H71  1  0.27290000  0.23700000  0.33850000  1
  H  H72  1  0.27350000  0.95220000  0.39090000  1
  H  H73  1  0.27400000  0.13840000  0.70300000  1
  H  H74  1  0.28240000  0.86490000  0.53950000  1
  H  H75  1  0.28780000  0.69500000  0.33930000  1
  H  H76  1  0.29900000  0.80520000  0.28620000  1
  H  H77  1  0.30160000  0.62570000  0.40460000  1
  H  H78  1  0.30380000  0.35890000  0.26960000  1
  H  H79  1  0.30420000  0.69660000  0.54930000  1
  H  H80  1  0.31460000  0.39160000  0.65250000  1
  H  H81  1  0.32170000  0.45470000  0.39410000  1
  H  H82  1  0.32950000  0.36730000  0.91090000  1
  H  H83  1  0.33100000  0.21970000  0.63820000  1
  H  H84  1  0.34240000  0.09070000  0.76110000  1
  H  H85  1  0.34350000  0.50460000  0.62780000  1
  H  H86  1  0.34520000  0.77320000  0.13250000  1
  H  H87  1  0.35190000  0.12900000  0.95360000  1
  H  H88  1  0.35930000  0.27170000  0.12760000  1
  H  H89  1  0.36370000  0.37390000  0.74560000  1
  H  H90  1  0.36410000  0.86850000  0.62590000  1
  H  H91  1  0.37000000  0.30680000  0.03560000  1
  H  H92  1  0.39060000  0.87090000  0.27280000  1
  H  H93  1  0.39710000  0.59960000  0.60650000  1
  H  H94  1  0.39720000  0.51050000  0.87940000  1
  H  H95  1  0.40230000  0.65420000  0.18580000  1
  H  H96  1  0.40260000  0.19510000  0.22810000  1
  H  H97  1  0.40450000  0.88920000  0.82520000  1
  H  H98  1  0.40560000  0.66790000  0.96680000  1
  H  H99  1  0.41240000  0.49720000  0.47480000  1
  H  H100  1  0.41250000  0.86470000  0.05100000  1
  H  H101  1  0.41330000  0.42370000  0.53550000  1
  H  H102  1  0.41870000  0.60800000  0.76310000  1
  H  H103  1  0.42290000  0.70560000  0.46680000  1
  H  H104  1  0.43130000  0.26130000  0.38370000  1
  H  H105  1  0.43570000  0.78530000  0.95230000  1
  H  H106  1  0.44010000  0.99380000  0.72690000  1
  H  H107  1  0.44110000  0.37520000  0.18010000  1
  H  H108  1  0.44340000  0.42730000  0.10260000  1
  H  H109  1  0.44420000  0.04380000  0.16470000  1
  H  H110  1  0.44780000  0.67260000  0.30040000  1
  H  H111  1  0.45630000  0.93550000  0.15370000  1
  H  H112  1  0.45760000  0.19420000  0.92020000  1
  H  H113  1  0.45830000  0.04390000  0.40570000  1
  H  H114  1  0.46390000  0.15150000  0.48730000  1
  H  H115  1  0.46450000  0.34390000  0.95850000  1
  H  H116  1  0.47010000  0.13990000  0.33380000  1
  H  H117  1  0.47160000  0.36510000  0.31040000  1
  H  H118  1  0.48330000  0.34360000  0.60150000  1
  H  H119  1  0.49140000  0.78850000  0.84910000  1
  H  H120  1  0.50860000  0.21150000  0.15090000  1
  H  H121  1  0.51670000  0.65640000  0.39850000  1
  H  H122  1  0.52840000  0.63490000  0.68960000  1
  H  H123  1  0.52990000  0.86010000  0.66620000  1
  H  H124  1  0.53550000  0.65610000  0.04150000  1
  H  H125  1  0.53610000  0.84850000  0.51270000  1
  H  H126  1  0.54170000  0.95610000  0.59430000  1
  H  H127  1  0.54240000  0.80580000  0.07980000  1
  H  H128  1  0.54370000  0.06450000  0.84630000  1
  H  H129  1  0.55220000  0.32740000  0.69960000  1
  H  H130  1  0.55580000  0.95620000  0.83530000  1
  H  H131  1  0.55660000  0.57270000  0.89740000  1
  H  H132  1  0.55890000  0.62480000  0.81990000  1
  H  H133  1  0.55990000  0.00620000  0.27310000  1
  H  H134  1  0.56430000  0.21470000  0.04770000  1
  H  H135  1  0.56870000  0.73870000  0.61630000  1
  H  H136  1  0.57710000  0.29440000  0.53320000  1
  H  H137  1  0.58130000  0.39200000  0.23690000  1
  H  H138  1  0.58670000  0.57630000  0.46450000  1
  H  H139  1  0.58750000  0.13530000  0.94900000  1
  H  H140  1  0.58760000  0.50280000  0.52520000  1
  H  H141  1  0.59440000  0.33210000  0.03320000  1
  H  H142  1  0.59550000  0.11080000  0.17480000  1
  H  H143  1  0.59740000  0.80490000  0.77190000  1
  H  H144  1  0.59770000  0.34580000  0.81420000  1
  H  H145  1  0.60280000  0.48950000  0.12060000  1
  H  H146  1  0.60290000  0.40040000  0.39350000  1
  H  H147  1  0.60940000  0.12910000  0.72720000  1
  H  H148  1  0.63000000  0.69320000  0.96440000  1
  H  H149  1  0.63590000  0.13150000  0.37410000  1
  H  H150  1  0.63630000  0.62610000  0.25440000  1
  H  H151  1  0.64070000  0.72830000  0.87240000  1
  H  H152  1  0.64810000  0.87100000  0.04640000  1
  H  H153  1  0.65480000  0.22680000  0.86750000  1
  H  H154  1  0.65650000  0.49540000  0.37220000  1
  H  H155  1  0.65760000  0.90930000  0.23890000  1
  H  H156  1  0.66900000  0.78030000  0.36180000  1
  H  H157  1  0.67050000  0.63270000  0.08910000  1
  H  H158  1  0.67830000  0.54530000  0.60590000  1
  H  H159  1  0.68540000  0.60840000  0.34750000  1
  H  H160  1  0.69580000  0.30340000  0.45070000  1
  H  H161  1  0.69620000  0.64110000  0.73040000  1
  H  H162  1  0.69840000  0.37430000  0.59540000  1
  H  H163  1  0.70100000  0.19480000  0.71380000  1
  H  H164  1  0.71220000  0.30500000  0.66070000  1
  H  H165  1  0.71760000  0.13510000  0.46050000  1
  H  H166  1  0.72600000  0.86160000  0.29700000  1
  H  H167  1  0.72650000  0.04780000  0.60910000  1
  H  H168  1  0.72710000  0.76300000  0.66150000  1
  H  H169  1  0.73260000  0.85690000  0.75450000  1
  H  H170  1  0.73580000  0.36200000  0.11020000  1
  H  H171  1  0.74650000  0.63930000  0.61270000  1
  H  H172  1  0.75350000  0.13930000  0.11270000  1
  H  H173  1  0.76420000  0.86200000  0.61020000  1
  H  H174  1  0.76740000  0.35690000  0.25450000  1
  H  H175  1  0.77290000  0.26300000  0.16150000  1
  H  H176  1  0.77350000  0.54780000  0.10910000  1
  H  H177  1  0.77400000  0.36160000  0.79700000  1
  H  H178  1  0.78240000  0.63510000  0.96050000  1
  H  H179  1  0.78780000  0.80500000  0.16070000  1
  H  H180  1  0.79900000  0.69480000  0.21380000  1
  H  H181  1  0.80160000  0.87430000  0.09540000  1
  H  H182  1  0.80380000  0.14110000  0.23040000  1
  H  H183  1  0.80420000  0.80340000  0.95070000  1
  H  H184  1  0.81460000  0.10840000  0.84750000  1
  H  H185  1  0.82170000  0.04530000  0.10590000  1
  H  H186  1  0.82950000  0.13270000  0.58910000  1
  H  H187  1  0.83100000  0.28030000  0.86180000  1
  H  H188  1  0.84240000  0.40930000  0.73890000  1
  H  H189  1  0.84350000  0.99540000  0.87220000  1
  H  H190  1  0.84520000  0.72680000  0.36750000  1
  H  H191  1  0.85190000  0.37100000  0.54640000  1
  H  H192  1  0.85930000  0.22830000  0.37240000  1
  H  H193  1  0.86370000  0.12610000  0.75440000  1
  H  H194  1  0.86410000  0.63150000  0.87410000  1
  H  H195  1  0.87000000  0.19320000  0.46440000  1
  H  H196  1  0.89060000  0.62910000  0.22720000  1
  H  H197  1  0.89710000  0.90040000  0.89350000  1
  H  H198  1  0.89720000  0.98950000  0.62060000  1
  H  H199  1  0.90230000  0.84580000  0.31420000  1
  H  H200  1  0.90260000  0.30490000  0.27190000  1
  H  H201  1  0.90450000  0.61080000  0.67480000  1
  H  H202  1  0.90560000  0.83210000  0.53320000  1
  H  H203  1  0.91240000  0.00280000  0.02520000  1
  H  H204  1  0.91250000  0.63530000  0.44900000  1
  H  H205  1  0.91330000  0.07630000  0.96450000  1
  H  H206  1  0.91870000  0.89200000  0.73690000  1
  H  H207  1  0.92290000  0.79440000  0.03320000  1
  H  H208  1  0.93130000  0.23870000  0.11630000  1
  H  H209  1  0.93570000  0.71470000  0.54770000  1
  H  H210  1  0.94010000  0.50620000  0.77310000  1
  H  H211  1  0.94110000  0.12480000  0.31990000  1
  H  H212  1  0.94340000  0.07270000  0.39740000  1
  H  H213  1  0.94420000  0.45620000  0.33530000  1
  H  H214  1  0.94780000  0.82740000  0.19960000  1
  H  H215  1  0.95630000  0.56450000  0.34630000  1
  H  H216  1  0.95760000  0.30580000  0.57980000  1
  H  H217  1  0.95830000  0.45610000  0.09430000  1
  H  H218  1  0.96390000  0.34850000  0.01270000  1
  H  H219  1  0.96450000  0.15610000  0.54150000  1
  H  H220  1  0.97010000  0.36010000  0.16620000  1
  H  H221  1  0.97160000  0.13490000  0.18960000  1
  H  H222  1  0.98330000  0.15640000  0.89850000  1
  H  H223  1  0.99140000  0.71150000  0.65090000  1
  C  C224  1  0.00570000  0.80751000  0.17335000  1
  C  C225  1  0.00730000  0.92860000  0.63110000  1
  C  C226  1  0.01530000  0.77308000  0.91101000  1
  C  C227  1  0.01570000  0.62374000  0.79205000  1
  C  C228  1  0.02080000  0.18104000  0.55019000  1
  C  C229  1  0.03140000  0.57131000  0.69998000  1
  C  C230  1  0.03900000  0.81609000  0.12242000  1
  C  C231  1  0.04160000  0.53360000  0.23100000  1
  C  C232  1  0.04770000  0.39260000  0.29502000  1
  C  C233  1  0.05180000  0.39364000  0.76923000  1
  C  C234  1  0.06340000  0.83037000  0.78721000  1
  C  C235  1  0.06350000  0.21100000  0.00817000  1
  C  C236  1  0.06730000  0.28010000  0.36232000  1
  C  C237  1  0.06910000  0.08870000  0.29420000  1
  C  C238  1  0.07570000  0.04060000  0.35920000  1
  C  C239  1  0.08420000  0.63351000  0.95666000  1
  C  C240  1  0.08660000  0.57791000  0.91448000  1
  C  C241  1  0.09020000  0.18777000  0.51165000  1
  C  C242  1  0.09050000  0.58655000  0.25260000  1
  C  C243  1  0.09590000  0.27663000  0.41693000  1
  C  C244  1  0.10050000  0.73766000  0.74505000  1
  C  C245  1  0.10440000  0.41914000  0.63734000  1
  C  C246  1  0.10980000  0.68920000  0.41090000  1
  C  C247  1  0.11770000  0.96270000  0.96910000  1
  C  C248  1  0.12170000  0.24571000  0.60002000  1
  C  C249  1  0.12320000  0.74734000  0.14052000  1
  C  C250  1  0.12330000  0.92210000  0.00010000  1
  C  C251  1  0.12410000  0.21060000  0.05310000  1
  C  C252  1  0.12810000  0.38019000  0.58314000  1
  C  C253  1  0.14170000  0.18100000  0.70632000  1
  C  C254  1  0.14290000  0.09518000  0.13686000  1
  C  C255  1  0.15360000  0.88582000  0.28515000  1
  C  C256  1  0.15570000  0.82778000  0.76718000  1
  C  C257  1  0.17280000  0.88048000  0.37393000  1
  C  C258  1  0.17320000  0.04467000  0.14907000  1
  C  C259  1  0.17880000  0.81730000  0.56530000  1
  C  C260  1  0.18300000  0.79720000  0.61410000  1
  C  C261  1  0.19130000  0.34940000  0.11590000  1
  C  C262  1  0.19800000  0.26425000  0.76198000  1
  C  C263  1  0.20530000  0.88720000  0.92040000  1
  C  C264  1  0.21100000  0.62754000  0.90468000  1
  C  C265  1  0.21170000  0.25016000  0.35596000  1
  C  C266  1  0.23140000  0.92479000  0.36645000  1
  C  C267  1  0.23510000  0.12172000  0.21318000  1
  C  C268  1  0.23600000  0.17272000  0.71646000  1
  C  C269  1  0.24290000  0.68540000  0.36600000  1
  C  C270  1  0.24830000  0.89554000  0.13823000  1
  C  C271  1  0.24880000  0.14980000  0.90170000  1
  C  C272  1  0.25120000  0.64980000  0.40170000  1
  C  C273  1  0.25170000  0.39554000  0.63823000  1
  C  C274  1  0.25710000  0.18540000  0.86600000  1
  C  C275  1  0.26400000  0.67272000  0.21646000  1
  C  C276  1  0.26490000  0.62172000  0.71318000  1
  C  C277  1  0.26860000  0.42479000  0.86645000  1
  C  C278  1  0.28830000  0.75016000  0.85596000  1
  C  C279  1  0.28900000  0.12754000  0.40468000  1
  C  C280  1  0.29470000  0.38720000  0.42040000  1
  C  C281  1  0.30200000  0.76425000  0.26198000  1
  C  C282  1  0.30870000  0.84940000  0.61590000  1
  C  C283  1  0.31700000  0.29720000  0.11410000  1
  C  C284  1  0.32120000  0.31730000  0.06530000  1
  C  C285  1  0.32680000  0.54467000  0.64907000  1
  C  C286  1  0.32720000  0.38048000  0.87393000  1
  C  C287  1  0.34430000  0.32778000  0.26718000  1
  C  C288  1  0.34640000  0.38582000  0.78515000  1
  C  C289  1  0.35710000  0.59518000  0.63686000  1
  C  C290  1  0.35830000  0.68100000  0.20632000  1
  C  C291  1  0.37190000  0.88019000  0.08314000  1
  C  C292  1  0.37590000  0.71060000  0.55310000  1
  C  C293  1  0.37670000  0.42210000  0.50010000  1
  C  C294  1  0.37680000  0.24734000  0.64052000  1
  C  C295  1  0.37830000  0.74571000  0.10002000  1
  C  C296  1  0.38230000  0.46270000  0.46910000  1
  C  C297  1  0.39020000  0.18920000  0.91090000  1
  C  C298  1  0.39560000  0.91914000  0.13734000  1
  C  C299  1  0.39950000  0.23766000  0.24505000  1
  C  C300  1  0.40410000  0.77663000  0.91693000  1
  C  C301  1  0.40950000  0.08655000  0.75260000  1
  C  C302  1  0.40980000  0.68777000  0.01165000  1
  C  C303  1  0.41340000  0.07791000  0.41448000  1
  C  C304  1  0.41580000  0.13351000  0.45666000  1
  C  C305  1  0.42430000  0.54060000  0.85920000  1
  C  C306  1  0.43090000  0.58870000  0.79420000  1
  C  C307  1  0.43270000  0.78010000  0.86232000  1
  C  C308  1  0.43650000  0.71100000  0.50817000  1
  C  C309  1  0.43660000  0.33037000  0.28721000  1
  C  C310  1  0.44820000  0.89364000  0.26923000  1
  C  C311  1  0.45230000  0.89260000  0.79502000  1
  C  C312  1  0.45840000  0.03360000  0.73100000  1
  C  C313  1  0.46100000  0.31609000  0.62242000  1
  C  C314  1  0.46860000  0.07131000  0.19998000  1
  C  C315  1  0.47920000  0.68104000  0.05019000  1
  C  C316  1  0.48430000  0.12374000  0.29205000  1
  C  C317  1  0.48470000  0.27308000  0.41101000  1
  C  C318  1  0.49270000  0.42860000  0.13110000  1
  C  C319  1  0.49430000  0.30751000  0.67335000  1
  C  C320  1  0.50570000  0.69249000  0.32665000  1
  C  C321  1  0.50730000  0.57140000  0.86890000  1
  C  C322  1  0.51530000  0.72692000  0.58899000  1
  C  C323  1  0.51570000  0.87626000  0.70795000  1
  C  C324  1  0.52080000  0.31896000  0.94981000  1
  C  C325  1  0.53140000  0.92869000  0.80002000  1
  C  C326  1  0.53900000  0.68391000  0.37758000  1
  C  C327  1  0.54160000  0.96640000  0.26900000  1
  C  C328  1  0.54770000  0.10740000  0.20498000  1
  C  C329  1  0.55180000  0.10636000  0.73077000  1
  C  C330  1  0.56340000  0.66963000  0.71279000  1
  C  C331  1  0.56350000  0.28900000  0.49183000  1
  C  C332  1  0.56730000  0.21990000  0.13768000  1
  C  C333  1  0.56910000  0.41130000  0.20580000  1
  C  C334  1  0.57570000  0.45940000  0.14080000  1
  C  C335  1  0.58420000  0.86649000  0.54334000  1
  C  C336  1  0.58660000  0.92209000  0.58552000  1
  C  C337  1  0.59020000  0.31223000  0.98835000  1
  C  C338  1  0.59050000  0.91345000  0.24740000  1
  C  C339  1  0.59590000  0.22337000  0.08307000  1
  C  C340  1  0.60050000  0.76234000  0.75495000  1
  C  C341  1  0.60440000  0.08086000  0.86266000  1
  C  C342  1  0.60980000  0.81080000  0.08910000  1
  C  C343  1  0.61770000  0.53730000  0.53090000  1
  C  C344  1  0.62170000  0.25429000  0.89998000  1
  C  C345  1  0.62320000  0.75266000  0.35948000  1
  C  C346  1  0.62330000  0.57790000  0.49990000  1
  C  C347  1  0.62410000  0.28940000  0.44690000  1
  C  C348  1  0.62810000  0.11981000  0.91686000  1
  C  C349  1  0.64170000  0.31900000  0.79368000  1
  C  C350  1  0.64290000  0.40482000  0.36314000  1
  C  C351  1  0.65360000  0.61418000  0.21485000  1
  C  C352  1  0.65570000  0.67222000  0.73282000  1
  C  C353  1  0.67280000  0.61952000  0.12607000  1
  C  C354  1  0.67320000  0.45533000  0.35093000  1
  C  C355  1  0.67880000  0.68270000  0.93470000  1
  C  C356  1  0.68300000  0.70280000  0.88590000  1
  C  C357  1  0.69130000  0.15060000  0.38410000  1
  C  C358  1  0.69800000  0.23575000  0.73802000  1
  C  C359  1  0.70530000  0.61280000  0.57960000  1
  C  C360  1  0.71100000  0.87246000  0.59532000  1
  C  C361  1  0.71170000  0.24984000  0.14404000  1
  C  C362  1  0.73140000  0.57521000  0.13355000  1
  C  C363  1  0.73510000  0.37828000  0.28682000  1
  C  C364  1  0.73600000  0.32728000  0.78354000  1
  C  C365  1  0.74290000  0.81460000  0.13400000  1
  C  C366  1  0.74830000  0.60446000  0.36177000  1
  C  C367  1  0.74880000  0.35020000  0.59830000  1
  C  C368  1  0.75120000  0.85020000  0.09830000  1
  C  C369  1  0.75170000  0.10446000  0.86177000  1
  C  C370  1  0.75710000  0.31460000  0.63400000  1
  C  C371  1  0.76400000  0.82728000  0.28354000  1
  C  C372  1  0.76490000  0.87828000  0.78682000  1
  C  C373  1  0.76860000  0.07521000  0.63355000  1
  C  C374  1  0.78830000  0.74984000  0.64404000  1
  C  C375  1  0.78900000  0.37246000  0.09532000  1
  C  C376  1  0.79470000  0.11280000  0.07960000  1
  C  C377  1  0.80200000  0.73575000  0.23802000  1
  C  C378  1  0.80870000  0.65060000  0.88410000  1
  C  C379  1  0.81700000  0.20280000  0.38590000  1
  C  C380  1  0.82120000  0.18270000  0.43470000  1
  C  C381  1  0.82680000  0.95533000  0.85093000  1
  C  C382  1  0.82720000  0.11952000  0.62607000  1
  C  C383  1  0.84430000  0.17222000  0.23282000  1
  C  C384  1  0.84640000  0.11418000  0.71485000  1
  C  C385  1  0.85710000  0.90482000  0.86314000  1
  C  C386  1  0.85830000  0.81900000  0.29368000  1
  C  C387  1  0.87190000  0.61981000  0.41686000  1
  C  C388  1  0.87590000  0.78940000  0.94690000  1
  C  C389  1  0.87670000  0.07790000  0.99990000  1
  C  C390  1  0.87680000  0.25266000  0.85948000  1
  C  C391  1  0.87830000  0.75429000  0.39998000  1
  C  C392  1  0.88230000  0.03730000  0.03090000  1
  C  C393  1  0.89020000  0.31080000  0.58910000  1
  C  C394  1  0.89560000  0.58086000  0.36266000  1
  C  C395  1  0.89950000  0.26234000  0.25495000  1
  C  C396  1  0.90410000  0.72337000  0.58307000  1
  C  C397  1  0.90950000  0.41345000  0.74740000  1
  C  C398  1  0.90980000  0.81223000  0.48835000  1
  C  C399  1  0.91340000  0.42209000  0.08552000  1
  C  C400  1  0.91580000  0.36649000  0.04334000  1
  C  C401  1  0.92430000  0.95940000  0.64080000  1
  C  C402  1  0.93090000  0.91130000  0.70580000  1
  C  C403  1  0.93270000  0.71990000  0.63768000  1
  C  C404  1  0.93650000  0.78900000  0.99183000  1
  C  C405  1  0.93660000  0.16963000  0.21279000  1
  C  C406  1  0.94820000  0.60636000  0.23077000  1
  C  C407  1  0.95230000  0.60740000  0.70498000  1
  C  C408  1  0.95840000  0.46640000  0.76900000  1
  C  C409  1  0.96100000  0.18391000  0.87758000  1
  C  C410  1  0.96860000  0.42869000  0.30002000  1
  C  C411  1  0.97920000  0.81896000  0.44981000  1
  C  C412  1  0.98430000  0.37626000  0.20795000  1
  C  C413  1  0.98470000  0.22692000  0.08899000  1
  C  C414  1  0.99270000  0.07140000  0.36890000  1
  C  C415  1  0.99430000  0.19249000  0.82665000  1
  N  N416  1  0.01040000  0.89823000  0.67300000  1
  N  N417  1  0.02720000  0.77859000  0.96921000  1
  N  N418  1  0.02790000  0.77266000  0.77287000  1
  N  N419  1  0.03080000  0.63424000  0.25231000  1
  N  N420  1  0.03960000  0.21869000  0.60733000  1
  N  N421  1  0.05040000  0.45406000  0.78323000  1
  N  N422  1  0.05760000  0.35863000  0.23592000  1
  N  N423  1  0.06020000  0.76239000  0.18599000  1
  N  N424  1  0.07160000  0.58156000  0.75576000  1
  N  N425  1  0.07420000  0.22086000  0.10561000  1
  N  N426  1  0.11350000  0.77720000  0.10058000  1
  N  N427  1  0.11670000  0.24029000  0.73530000  1
  N  N428  1  0.12230000  0.85564000  0.32177000  1
  N  N429  1  0.12440000  0.05166000  0.31227000  1
  N  N430  1  0.14200000  0.26282000  0.32231000  1
  N  N431  1  0.15250000  0.71040000  0.37169000  1
  N  N432  1  0.15570000  0.22925000  0.54367000  1
  N  N433  1  0.16420000  0.66569000  0.95061000  1
  N  N434  1  0.16600000  0.65237000  0.43032000  1
  N  N435  1  0.16850000  0.57393000  0.88037000  1
  N  N436  1  0.16970000  0.93979000  0.91876000  1
  N  N437  1  0.17850000  0.87391000  0.96889000  1
  N  N438  1  0.18000000  0.76839000  0.73992000  1
  N  N439  1  0.18210000  0.14548000  0.17839000  1
  N  N440  1  0.18470000  0.42965000  0.67339000  1
  N  N441  1  0.18890000  0.25800000  0.41322000  1
  N  N442  1  0.22000000  0.92823000  0.30916000  1
  N  N443  1  0.22290000  0.36441000  0.58285000  1
  N  N444  1  0.22770000  0.72600000  0.25260000  1
  N  N445  1  0.23320000  0.06114000  0.19841000  1
  N  N446  1  0.23470000  0.31755000  0.14602000  1
  N  N447  1  0.24080000  0.35129000  0.06755000  1
  N  N448  1  0.25920000  0.85129000  0.56755000  1
  N  N449  1  0.26530000  0.81755000  0.64602000  1
  N  N450  1  0.26680000  0.56114000  0.69841000  1
  N  N451  1  0.27230000  0.22600000  0.75260000  1
  N  N452  1  0.27710000  0.86441000  0.08285000  1
  N  N453  1  0.28000000  0.42823000  0.80916000  1
  N  N454  1  0.31110000  0.75800000  0.91322000  1
  N  N455  1  0.31530000  0.92965000  0.17339000  1
  N  N456  1  0.31790000  0.64548000  0.67839000  1
  N  N457  1  0.32000000  0.26839000  0.23992000  1
  N  N458  1  0.32150000  0.37391000  0.46889000  1
  N  N459  1  0.33030000  0.43979000  0.41876000  1
  N  N460  1  0.33150000  0.07393000  0.38037000  1
  N  N461  1  0.33400000  0.15237000  0.93032000  1
  N  N462  1  0.33580000  0.16569000  0.45061000  1
  N  N463  1  0.34430000  0.72925000  0.04367000  1
  N  N464  1  0.34750000  0.21040000  0.87169000  1
  N  N465  1  0.35800000  0.76282000  0.82231000  1
  N  N466  1  0.37560000  0.55166000  0.81227000  1
  N  N467  1  0.37770000  0.35564000  0.82177000  1
  N  N468  1  0.38330000  0.74029000  0.23530000  1
  N  N469  1  0.38650000  0.27720000  0.60058000  1
  N  N470  1  0.42580000  0.72086000  0.60561000  1
  N  N471  1  0.42840000  0.08156000  0.25576000  1
  N  N472  1  0.43980000  0.26239000  0.68599000  1
  N  N473  1  0.44240000  0.85863000  0.73592000  1
  N  N474  1  0.44960000  0.95406000  0.28323000  1
  N  N475  1  0.46040000  0.71869000  0.10733000  1
  N  N476  1  0.46920000  0.13424000  0.75231000  1
  N  N477  1  0.47210000  0.27266000  0.27287000  1
  N  N478  1  0.47280000  0.27859000  0.46921000  1
  N  N479  1  0.48960000  0.39823000  0.17300000  1
  N  N480  1  0.51040000  0.60177000  0.82700000  1
  N  N481  1  0.52720000  0.72141000  0.53079000  1
  N  N482  1  0.52790000  0.72734000  0.72713000  1
  N  N483  1  0.53080000  0.86576000  0.24769000  1
  N  N484  1  0.53960000  0.28131000  0.89267000  1
  N  N485  1  0.55040000  0.04594000  0.71677000  1
  N  N486  1  0.55760000  0.14137000  0.26408000  1
  N  N487  1  0.56020000  0.73761000  0.31401000  1
  N  N488  1  0.57160000  0.91844000  0.74424000  1
  N  N489  1  0.57420000  0.27914000  0.39439000  1
  N  N490  1  0.61350000  0.72280000  0.39942000  1
  N  N491  1  0.61670000  0.25971000  0.76470000  1
  N  N492  1  0.62230000  0.64436000  0.17823000  1
  N  N493  1  0.62440000  0.44834000  0.18773000  1
  N  N494  1  0.64200000  0.23718000  0.17769000  1
  N  N495  1  0.65250000  0.78960000  0.12831000  1
  N  N496  1  0.65570000  0.27075000  0.95633000  1
  N  N497  1  0.66420000  0.83431000  0.54939000  1
  N  N498  1  0.66600000  0.84763000  0.06968000  1
  N  N499  1  0.66850000  0.92607000  0.61963000  1
  N  N500  1  0.66970000  0.56021000  0.58124000  1
  N  N501  1  0.67850000  0.62609000  0.53111000  1
  N  N502  1  0.68000000  0.73161000  0.76008000  1
  N  N503  1  0.68210000  0.35452000  0.32161000  1
  N  N504  1  0.68470000  0.07035000  0.82661000  1
  N  N505  1  0.68890000  0.24200000  0.08678000  1
  N  N506  1  0.72000000  0.57177000  0.19084000  1
  N  N507  1  0.72290000  0.13559000  0.91715000  1
  N  N508  1  0.72770000  0.77400000  0.24740000  1
  N  N509  1  0.73320000  0.43886000  0.30159000  1
  N  N510  1  0.73470000  0.18245000  0.35398000  1
  N  N511  1  0.74080000  0.14871000  0.43245000  1
  N  N512  1  0.75920000  0.64871000  0.93245000  1
  N  N513  1  0.76530000  0.68245000  0.85398000  1
  N  N514  1  0.76680000  0.93886000  0.80159000  1
  N  N515  1  0.77230000  0.27400000  0.74740000  1
  N  N516  1  0.77710000  0.63559000  0.41715000  1
  N  N517  1  0.78000000  0.07177000  0.69084000  1
  N  N518  1  0.81110000  0.74200000  0.58678000  1
  N  N519  1  0.81530000  0.57035000  0.32661000  1
  N  N520  1  0.81790000  0.85452000  0.82161000  1
  N  N521  1  0.82000000  0.23161000  0.26008000  1
  N  N522  1  0.82150000  0.12609000  0.03111000  1
  N  N523  1  0.83030000  0.06021000  0.08124000  1
  N  N524  1  0.83150000  0.42607000  0.11963000  1
  N  N525  1  0.83400000  0.34763000  0.56968000  1
  N  N526  1  0.83580000  0.33431000  0.04939000  1
  N  N527  1  0.84430000  0.77075000  0.45633000  1
  N  N528  1  0.84750000  0.28960000  0.62831000  1
  N  N529  1  0.85800000  0.73718000  0.67769000  1
  N  N530  1  0.87560000  0.94834000  0.68773000  1
  N  N531  1  0.87770000  0.14436000  0.67823000  1
  N  N532  1  0.88330000  0.75971000  0.26470000  1
  N  N533  1  0.88650000  0.22280000  0.89942000  1
  N  N534  1  0.92580000  0.77914000  0.89439000  1
  N  N535  1  0.92840000  0.41844000  0.24424000  1
  N  N536  1  0.93980000  0.23761000  0.81401000  1
  N  N537  1  0.94240000  0.64137000  0.76408000  1
  N  N538  1  0.94960000  0.54594000  0.21677000  1
  N  N539  1  0.96040000  0.78131000  0.39267000  1
  N  N540  1  0.96920000  0.36576000  0.74769000  1
  N  N541  1  0.97210000  0.22734000  0.22713000  1
  N  N542  1  0.97280000  0.22141000  0.03079000  1
  N  N543  1  0.98960000  0.10177000  0.32700000  1
