# generated using pymatgen
data_DyAgH8C18(NO2)4
_symmetry_space_group_name_H-M   'P 1'
_cell_length_a   8.45170000
_cell_length_b   17.74800000
_cell_length_c   25.32600000
_cell_angle_alpha   90.00000000
_cell_angle_beta   90.00000000
_cell_angle_gamma   90.00000000
_symmetry_Int_Tables_number   1
_chemical_formula_structural   DyAgH8C18(NO2)4
_chemical_formula_sum   'Dy8 Ag8 H64 C144 N32 O64'
_cell_volume   3798.91954154
_cell_formula_units_Z   8
loop_
 _symmetry_equiv_pos_site_id
 _symmetry_equiv_pos_as_xyz
  1  'x, y, z'
loop_
 _atom_site_type_symbol
 _atom_site_label
 _atom_site_symmetry_multiplicity
 _atom_site_fract_x
 _atom_site_fract_y
 _atom_site_fract_z
 _atom_site_occupancy
  Dy  Dy0  1  0.83456000  0.28230000  0.47616000  1
  Dy  Dy1  1  0.83456000  0.78231000  0.02384000  1
  Dy  Dy2  1  0.66544000  0.78231000  0.47616000  1
  Dy  Dy3  1  0.66544000  0.28230000  0.02384000  1
  Dy  Dy4  1  0.33456000  0.71770000  0.97616000  1
  Dy  Dy5  1  0.33456000  0.21770000  0.52384000  1
  Dy  Dy6  1  0.16544000  0.21770000  0.97616000  1
  Dy  Dy7  1  0.16544000  0.71770000  0.52384000  1
  Ag  Ag8  1  0.96203000  0.94997000  0.77268000  1
  Ag  Ag9  1  0.96203000  0.44997000  0.72732000  1
  Ag  Ag10  1  0.53797000  0.44997000  0.77268000  1
  Ag  Ag11  1  0.53797000  0.94997000  0.72732000  1
  Ag  Ag12  1  0.46203000  0.05003000  0.27268000  1
  Ag  Ag13  1  0.46203000  0.55003000  0.22732000  1
  Ag  Ag14  1  0.03797000  0.55003000  0.27268000  1
  Ag  Ag15  1  0.03797000  0.05003000  0.22732000  1
  H  H16  1  0.96440000  0.00790000  0.45510000  1
  H  H17  1  0.96440000  0.50790000  0.04490000  1
  H  H18  1  0.94700000  0.90030000  0.29580000  1
  H  H19  1  0.94700000  0.40030000  0.20420000  1
  H  H20  1  0.94100000  0.35750000  0.90400000  1
  H  H21  1  0.94100000  0.85750000  0.59600000  1
  H  H22  1  0.90270000  0.08220000  0.86110000  1
  H  H23  1  0.90270000  0.58220000  0.63890000  1
  H  H24  1  0.88050000  0.50290000  0.43420000  1
  H  H25  1  0.88050000  0.00290000  0.06580000  1
  H  H26  1  0.80830000  0.16000000  0.29810000  1
  H  H27  1  0.80830000  0.66000000  0.20190000  1
  H  H28  1  0.78710000  0.89420000  0.37100000  1
  H  H29  1  0.78710000  0.39420000  0.12900000  1
  H  H30  1  0.75140000  0.32560000  0.83910000  1
  H  H31  1  0.75140000  0.82560000  0.66090000  1
  H  H32  1  0.74860000  0.82560000  0.83910000  1
  H  H33  1  0.74860000  0.32560000  0.66090000  1
  H  H34  1  0.71290000  0.39420000  0.37100000  1
  H  H35  1  0.71290000  0.89420000  0.12900000  1
  H  H36  1  0.69170000  0.66000000  0.29810000  1
  H  H37  1  0.69170000  0.16000000  0.20190000  1
  H  H38  1  0.61950000  0.00290000  0.43420000  1
  H  H39  1  0.61950000  0.50290000  0.06580000  1
  H  H40  1  0.59730000  0.58220000  0.86110000  1
  H  H41  1  0.59730000  0.08220000  0.63890000  1
  H  H42  1  0.55900000  0.85750000  0.90400000  1
  H  H43  1  0.55900000  0.35750000  0.59600000  1
  H  H44  1  0.55300000  0.40030000  0.29580000  1
  H  H45  1  0.55300000  0.90030000  0.20420000  1
  H  H46  1  0.53560000  0.50790000  0.45510000  1
  H  H47  1  0.53560000  0.00790000  0.04490000  1
  H  H48  1  0.46440000  0.99210000  0.95510000  1
  H  H49  1  0.46440000  0.49210000  0.54490000  1
  H  H50  1  0.44700000  0.09970000  0.79580000  1
  H  H51  1  0.44700000  0.59970000  0.70420000  1
  H  H52  1  0.44100000  0.64250000  0.40400000  1
  H  H53  1  0.44100000  0.14250000  0.09600000  1
  H  H54  1  0.40270000  0.91780000  0.36110000  1
  H  H55  1  0.40270000  0.41780000  0.13890000  1
  H  H56  1  0.38050000  0.49710000  0.93420000  1
  H  H57  1  0.38050000  0.99710000  0.56580000  1
  H  H58  1  0.30830000  0.84000000  0.79810000  1
  H  H59  1  0.30830000  0.34000000  0.70190000  1
  H  H60  1  0.28710000  0.10580000  0.87100000  1
  H  H61  1  0.28710000  0.60580000  0.62900000  1
  H  H62  1  0.25140000  0.67440000  0.33910000  1
  H  H63  1  0.25140000  0.17440000  0.16090000  1
  H  H64  1  0.24860000  0.17440000  0.33910000  1
  H  H65  1  0.24860000  0.67440000  0.16090000  1
  H  H66  1  0.21290000  0.60580000  0.87100000  1
  H  H67  1  0.21290000  0.10580000  0.62900000  1
  H  H68  1  0.19170000  0.34000000  0.79810000  1
  H  H69  1  0.19170000  0.84000000  0.70190000  1
  H  H70  1  0.11950000  0.99710000  0.93420000  1
  H  H71  1  0.11950000  0.49710000  0.56580000  1
  H  H72  1  0.09730000  0.41780000  0.36110000  1
  H  H73  1  0.09730000  0.91780000  0.13890000  1
  H  H74  1  0.05900000  0.14250000  0.40400000  1
  H  H75  1  0.05900000  0.64250000  0.09600000  1
  H  H76  1  0.05300000  0.59970000  0.79580000  1
  H  H77  1  0.05300000  0.09970000  0.70420000  1
  H  H78  1  0.03560000  0.49210000  0.95510000  1
  H  H79  1  0.03560000  0.99210000  0.54490000  1
  C  C80  1  0.98970000  0.62931000  0.98246000  1
  C  C81  1  0.98970000  0.12931000  0.51754000  1
  C  C82  1  0.95220000  0.64480000  0.45430000  1
  C  C83  1  0.95220000  0.14480000  0.04570000  1
  C  C84  1  0.94640000  0.50983000  0.93753000  1
  C  C85  1  0.94640000  0.00983000  0.56247000  1
  C  C86  1  0.89480000  0.94090000  0.31113000  1
  C  C87  1  0.89480000  0.44090000  0.18887000  1
  C  C88  1  0.89430000  0.58339000  0.94443000  1
  C  C89  1  0.89430000  0.08339000  0.55557000  1
  C  C90  1  0.86770000  0.61140000  0.40890000  1
  C  C91  1  0.86770000  0.11140000  0.09110000  1
  C  C92  1  0.86120000  0.46370000  0.90364000  1
  C  C93  1  0.86120000  0.96370000  0.59636000  1
  C  C94  1  0.84930000  0.74210000  0.36563000  1
  C  C95  1  0.84930000  0.24210000  0.13437000  1
  C  C96  1  0.84070000  0.53430000  0.40792000  1
  C  C97  1  0.84070000  0.03430000  0.09208000  1
  C  C98  1  0.81710000  0.06400000  0.88033000  1
  C  C99  1  0.81710000  0.56400000  0.61967000  1
  C  C100  1  0.81160000  0.65900000  0.36774000  1
  C  C101  1  0.81160000  0.15900000  0.13226000  1
  C  C102  1  0.80980000  0.18650000  0.92622000  1
  C  C103  1  0.80980000  0.68650000  0.57378000  1
  C  C104  1  0.80870000  0.05290000  0.32604000  1
  C  C105  1  0.80870000  0.55290000  0.17396000  1
  C  C106  1  0.77460000  0.12935000  0.32570000  1
  C  C107  1  0.77460000  0.62935000  0.17430000  1
  C  C108  1  0.76660000  0.37320000  0.85368000  1
  C  C109  1  0.76660000  0.87320000  0.64632000  1
  C  C110  1  0.76210000  0.99150000  0.87280000  1
  C  C111  1  0.76210000  0.49150000  0.62720000  1
  C  C112  1  0.75830000  0.60892000  0.91723000  1
  C  C113  1  0.75830000  0.10892000  0.58277000  1
  C  C114  1  0.75060000  0.50520000  0.36570000  1
  C  C115  1  0.75060000  0.00520000  0.13430000  1
  C  C116  1  0.74940000  0.00520000  0.36570000  1
  C  C117  1  0.74940000  0.50520000  0.13430000  1
  C  C118  1  0.74170000  0.10892000  0.91723000  1
  C  C119  1  0.74170000  0.60892000  0.58277000  1
  C  C120  1  0.73790000  0.49150000  0.87280000  1
  C  C121  1  0.73790000  0.99150000  0.62720000  1
  C  C122  1  0.73340000  0.87320000  0.85368000  1
  C  C123  1  0.73340000  0.37320000  0.64632000  1
  C  C124  1  0.72540000  0.62935000  0.32570000  1
  C  C125  1  0.72540000  0.12935000  0.17430000  1
  C  C126  1  0.69130000  0.55290000  0.32604000  1
  C  C127  1  0.69130000  0.05290000  0.17396000  1
  C  C128  1  0.69020000  0.68650000  0.92622000  1
  C  C129  1  0.69020000  0.18650000  0.57378000  1
  C  C130  1  0.68840000  0.15900000  0.36774000  1
  C  C131  1  0.68840000  0.65900000  0.13226000  1
  C  C132  1  0.68290000  0.56400000  0.88033000  1
  C  C133  1  0.68290000  0.06400000  0.61967000  1
  C  C134  1  0.65930000  0.03430000  0.40792000  1
  C  C135  1  0.65930000  0.53430000  0.09208000  1
  C  C136  1  0.65070000  0.24210000  0.36563000  1
  C  C137  1  0.65070000  0.74210000  0.13437000  1
  C  C138  1  0.63880000  0.96370000  0.90364000  1
  C  C139  1  0.63880000  0.46370000  0.59636000  1
  C  C140  1  0.63230000  0.11140000  0.40890000  1
  C  C141  1  0.63230000  0.61140000  0.09110000  1
  C  C142  1  0.60570000  0.08339000  0.94443000  1
  C  C143  1  0.60570000  0.58339000  0.55557000  1
  C  C144  1  0.60520000  0.44090000  0.31113000  1
  C  C145  1  0.60520000  0.94090000  0.18887000  1
  C  C146  1  0.55360000  0.00983000  0.93753000  1
  C  C147  1  0.55360000  0.50983000  0.56247000  1
  C  C148  1  0.54780000  0.14480000  0.45430000  1
  C  C149  1  0.54780000  0.64480000  0.04570000  1
  C  C150  1  0.51030000  0.12931000  0.98246000  1
  C  C151  1  0.51030000  0.62931000  0.51754000  1
  C  C152  1  0.48970000  0.37069000  0.48246000  1
  C  C153  1  0.48970000  0.87069000  0.01754000  1
  C  C154  1  0.45220000  0.35520000  0.95430000  1
  C  C155  1  0.45220000  0.85520000  0.54570000  1
  C  C156  1  0.44640000  0.49017000  0.43753000  1
  C  C157  1  0.44640000  0.99017000  0.06247000  1
  C  C158  1  0.39480000  0.05910000  0.81113000  1
  C  C159  1  0.39480000  0.55910000  0.68887000  1
  C  C160  1  0.39430000  0.41661000  0.44443000  1
  C  C161  1  0.39430000  0.91661000  0.05557000  1
  C  C162  1  0.36770000  0.38860000  0.90890000  1
  C  C163  1  0.36770000  0.88860000  0.59110000  1
  C  C164  1  0.36120000  0.53630000  0.40364000  1
  C  C165  1  0.36120000  0.03630000  0.09636000  1
  C  C166  1  0.34930000  0.25790000  0.86563000  1
  C  C167  1  0.34930000  0.75790000  0.63437000  1
  C  C168  1  0.34070000  0.46570000  0.90792000  1
  C  C169  1  0.34070000  0.96570000  0.59208000  1
  C  C170  1  0.31710000  0.93600000  0.38033000  1
  C  C171  1  0.31710000  0.43600000  0.11967000  1
  C  C172  1  0.31160000  0.34100000  0.86774000  1
  C  C173  1  0.31160000  0.84100000  0.63226000  1
  C  C174  1  0.30980000  0.81350000  0.42622000  1
  C  C175  1  0.30980000  0.31350000  0.07378000  1
  C  C176  1  0.30870000  0.94710000  0.82604000  1
  C  C177  1  0.30870000  0.44710000  0.67396000  1
  C  C178  1  0.27460000  0.87065000  0.82570000  1
  C  C179  1  0.27460000  0.37065000  0.67430000  1
  C  C180  1  0.26660000  0.62680000  0.35368000  1
  C  C181  1  0.26660000  0.12680000  0.14632000  1
  C  C182  1  0.26210000  0.00850000  0.37280000  1
  C  C183  1  0.26210000  0.50850000  0.12720000  1
  C  C184  1  0.25830000  0.39108000  0.41723000  1
  C  C185  1  0.25830000  0.89108000  0.08277000  1
  C  C186  1  0.25060000  0.49480000  0.86570000  1
  C  C187  1  0.25060000  0.99480000  0.63430000  1
  C  C188  1  0.24940000  0.99480000  0.86570000  1
  C  C189  1  0.24940000  0.49480000  0.63430000  1
  C  C190  1  0.24170000  0.89108000  0.41723000  1
  C  C191  1  0.24170000  0.39108000  0.08277000  1
  C  C192  1  0.23790000  0.50850000  0.37280000  1
  C  C193  1  0.23790000  0.00850000  0.12720000  1
  C  C194  1  0.23340000  0.12680000  0.35368000  1
  C  C195  1  0.23340000  0.62680000  0.14632000  1
  C  C196  1  0.22540000  0.37065000  0.82570000  1
  C  C197  1  0.22540000  0.87065000  0.67430000  1
  C  C198  1  0.19130000  0.44710000  0.82604000  1
  C  C199  1  0.19130000  0.94710000  0.67396000  1
  C  C200  1  0.19020000  0.31350000  0.42622000  1
  C  C201  1  0.19020000  0.81350000  0.07378000  1
  C  C202  1  0.18840000  0.84100000  0.86774000  1
  C  C203  1  0.18840000  0.34100000  0.63226000  1
  C  C204  1  0.18290000  0.43600000  0.38033000  1
  C  C205  1  0.18290000  0.93600000  0.11967000  1
  C  C206  1  0.15930000  0.96570000  0.90792000  1
  C  C207  1  0.15930000  0.46570000  0.59208000  1
  C  C208  1  0.15070000  0.75790000  0.86563000  1
  C  C209  1  0.15070000  0.25790000  0.63437000  1
  C  C210  1  0.13880000  0.03630000  0.40364000  1
  C  C211  1  0.13880000  0.53630000  0.09636000  1
  C  C212  1  0.13230000  0.88860000  0.90890000  1
  C  C213  1  0.13230000  0.38860000  0.59110000  1
  C  C214  1  0.10570000  0.91661000  0.44443000  1
  C  C215  1  0.10570000  0.41661000  0.05557000  1
  C  C216  1  0.10520000  0.55910000  0.81113000  1
  C  C217  1  0.10520000  0.05910000  0.68887000  1
  C  C218  1  0.05360000  0.99017000  0.43753000  1
  C  C219  1  0.05360000  0.49017000  0.06247000  1
  C  C220  1  0.04780000  0.85520000  0.95430000  1
  C  C221  1  0.04780000  0.35520000  0.54570000  1
  C  C222  1  0.01030000  0.87069000  0.48246000  1
  C  C223  1  0.01030000  0.37069000  0.01754000  1
  N  N224  1  0.90230000  0.01054000  0.29215000  1
  N  N225  1  0.90230000  0.51054000  0.20785000  1
  N  N226  1  0.87460000  0.38887000  0.89066000  1
  N  N227  1  0.87460000  0.88887000  0.60934000  1
  N  N228  1  0.81650000  0.93397000  0.84021000  1
  N  N229  1  0.81650000  0.43397000  0.65979000  1
  N  N230  1  0.80600000  0.93495000  0.35377000  1
  N  N231  1  0.80600000  0.43495000  0.14623000  1
  N  N232  1  0.69400000  0.43495000  0.35377000  1
  N  N233  1  0.69400000  0.93495000  0.14623000  1
  N  N234  1  0.68350000  0.43397000  0.84021000  1
  N  N235  1  0.68350000  0.93397000  0.65979000  1
  N  N236  1  0.62540000  0.88887000  0.89066000  1
  N  N237  1  0.62540000  0.38887000  0.60934000  1
  N  N238  1  0.59770000  0.51054000  0.29215000  1
  N  N239  1  0.59770000  0.01054000  0.20785000  1
  N  N240  1  0.40230000  0.98946000  0.79215000  1
  N  N241  1  0.40230000  0.48946000  0.70785000  1
  N  N242  1  0.37460000  0.61113000  0.39066000  1
  N  N243  1  0.37460000  0.11113000  0.10934000  1
  N  N244  1  0.31650000  0.06603000  0.34021000  1
  N  N245  1  0.31650000  0.56603000  0.15979000  1
  N  N246  1  0.30600000  0.06505000  0.85377000  1
  N  N247  1  0.30600000  0.56505000  0.64623000  1
  N  N248  1  0.19400000  0.56505000  0.85377000  1
  N  N249  1  0.19400000  0.06505000  0.64623000  1
  N  N250  1  0.18350000  0.56603000  0.34021000  1
  N  N251  1  0.18350000  0.06603000  0.15979000  1
  N  N252  1  0.12540000  0.11113000  0.39066000  1
  N  N253  1  0.12540000  0.61113000  0.10934000  1
  N  N254  1  0.09770000  0.48946000  0.79215000  1
  N  N255  1  0.09770000  0.98946000  0.70785000  1
  O  O256  1  0.96010000  0.76506000  0.33926000  1
  O  O257  1  0.96010000  0.26506000  0.16074000  1
  O  O258  1  0.95790000  0.19286000  0.91927000  1
  O  O259  1  0.95790000  0.69286000  0.58073000  1
  O  O260  1  0.93650000  0.88857000  0.97635000  1
  O  O261  1  0.93650000  0.38857000  0.52365000  1
  O  O262  1  0.92250000  0.16109000  0.47814000  1
  O  O263  1  0.92250000  0.66109000  0.02186000  1
  O  O264  1  0.91220000  0.71108000  0.46974000  1
  O  O265  1  0.91220000  0.21108000  0.03026000  1
  O  O266  1  0.86470000  0.87117000  0.47572000  1
  O  O267  1  0.86470000  0.37117000  0.02428000  1
  O  O268  1  0.77740000  0.74019000  0.94061000  1
  O  O269  1  0.77740000  0.24019000  0.55939000  1
  O  O270  1  0.75020000  0.28555000  0.38950000  1
  O  O271  1  0.75020000  0.78555000  0.11050000  1
  O  O272  1  0.74980000  0.78555000  0.38950000  1
  O  O273  1  0.74980000  0.28555000  0.11050000  1
  O  O274  1  0.72260000  0.24019000  0.94061000  1
  O  O275  1  0.72260000  0.74019000  0.55939000  1
  O  O276  1  0.63530000  0.37117000  0.47572000  1
  O  O277  1  0.63530000  0.87117000  0.02428000  1
  O  O278  1  0.58780000  0.21108000  0.46974000  1
  O  O279  1  0.58780000  0.71108000  0.03026000  1
  O  O280  1  0.57750000  0.66109000  0.47814000  1
  O  O281  1  0.57750000  0.16109000  0.02186000  1
  O  O282  1  0.56350000  0.38857000  0.97635000  1
  O  O283  1  0.56350000  0.88857000  0.52365000  1
  O  O284  1  0.54210000  0.69286000  0.91927000  1
  O  O285  1  0.54210000  0.19286000  0.58073000  1
  O  O286  1  0.53990000  0.26506000  0.33926000  1
  O  O287  1  0.53990000  0.76506000  0.16074000  1
  O  O288  1  0.46010000  0.23494000  0.83926000  1
  O  O289  1  0.46010000  0.73494000  0.66074000  1
  O  O290  1  0.45790000  0.80714000  0.41927000  1
  O  O291  1  0.45790000  0.30714000  0.08073000  1
  O  O292  1  0.43650000  0.11143000  0.47635000  1
  O  O293  1  0.43650000  0.61143000  0.02365000  1
  O  O294  1  0.42250000  0.83891000  0.97814000  1
  O  O295  1  0.42250000  0.33891000  0.52186000  1
  O  O296  1  0.41220000  0.28892000  0.96974000  1
  O  O297  1  0.41220000  0.78892000  0.53026000  1
  O  O298  1  0.36470000  0.12883000  0.97572000  1
  O  O299  1  0.36470000  0.62883000  0.52428000  1
  O  O300  1  0.27740000  0.25981000  0.44061000  1
  O  O301  1  0.27740000  0.75981000  0.05939000  1
  O  O302  1  0.25020000  0.71445000  0.88950000  1
  O  O303  1  0.25020000  0.21445000  0.61050000  1
  O  O304  1  0.24980000  0.21445000  0.88950000  1
  O  O305  1  0.24980000  0.71445000  0.61050000  1
  O  O306  1  0.22260000  0.75981000  0.44061000  1
  O  O307  1  0.22260000  0.25981000  0.05939000  1
  O  O308  1  0.13530000  0.62883000  0.97572000  1
  O  O309  1  0.13530000  0.12883000  0.52428000  1
  O  O310  1  0.08780000  0.78892000  0.96974000  1
  O  O311  1  0.08780000  0.28892000  0.53026000  1
  O  O312  1  0.07750000  0.33891000  0.97814000  1
  O  O313  1  0.07750000  0.83891000  0.52186000  1
  O  O314  1  0.06350000  0.61143000  0.47635000  1
  O  O315  1  0.06350000  0.11143000  0.02365000  1
  O  O316  1  0.04210000  0.30714000  0.41927000  1
  O  O317  1  0.04210000  0.80714000  0.08073000  1
  O  O318  1  0.03990000  0.73494000  0.83926000  1
  O  O319  1  0.03990000  0.23494000  0.66074000  1
