# generated using pymatgen
data_Zn2H14C28N4O9
_symmetry_space_group_name_H-M   'P 1'
_cell_length_a   12.99700000
_cell_length_b   13.83590000
_cell_length_c   21.92420000
_cell_angle_alpha   94.92580000
_cell_angle_beta   90.00000000
_cell_angle_gamma   90.00000000
_symmetry_Int_Tables_number   1
_chemical_formula_structural   Zn2H14C28N4O9
_chemical_formula_sum   'Zn8 H56 C112 N16 O36'
_cell_volume   3927.96268667
_cell_formula_units_Z   4
loop_
 _symmetry_equiv_pos_site_id
 _symmetry_equiv_pos_as_xyz
  1  'x, y, z'
loop_
 _atom_site_type_symbol
 _atom_site_label
 _atom_site_symmetry_multiplicity
 _atom_site_fract_x
 _atom_site_fract_y
 _atom_site_fract_z
 _atom_site_occupancy
  Zn  Zn0  1  0.10640000  0.49478000  0.27175000  1
  Zn  Zn1  1  0.22333000  0.92679000  0.66127000  1
  Zn  Zn2  1  0.27667000  0.42679000  0.16127000  1
  Zn  Zn3  1  0.39360000  0.99478000  0.77175000  1
  Zn  Zn4  1  0.60640000  0.00522000  0.22825000  1
  Zn  Zn5  1  0.72333000  0.57321000  0.83873000  1
  Zn  Zn6  1  0.77667000  0.07321000  0.33873000  1
  Zn  Zn7  1  0.89360000  0.50522000  0.72825000  1
  H  H8  1  0.00060000  0.31480000  0.05480000  1
  H  H9  1  0.00400000  0.81370000  0.51630000  1
  H  H10  1  0.05050000  0.00960000  0.75740000  1
  H  H11  1  0.07180000  0.76740000  0.77800000  1
  H  H12  1  0.08030000  0.87070000  0.23780000  1
  H  H13  1  0.09550000  0.78430000  0.43190000  1
  H  H14  1  0.12580000  0.80020000  0.32440000  1
  H  H15  1  0.13630000  0.39430000  0.59530000  1
  H  H16  1  0.15920000  0.27170000  0.75050000  1
  H  H17  1  0.16140000  0.66640000  0.11370000  1
  H  H18  1  0.17270000  0.08140000  0.42480000  1
  H  H19  1  0.17690000  0.42700000  0.02880000  1
  H  H20  1  0.19930000  0.50110000  0.94280000  1
  H  H21  1  0.24420000  0.85960000  0.92170000  1
  H  H22  1  0.25580000  0.35960000  0.42170000  1
  H  H23  1  0.30070000  0.00110000  0.44280000  1
  H  H24  1  0.32310000  0.92700000  0.52880000  1
  H  H25  1  0.32730000  0.58140000  0.92480000  1
  H  H26  1  0.33860000  0.16640000  0.61370000  1
  H  H27  1  0.34080000  0.77170000  0.25050000  1
  H  H28  1  0.36370000  0.89430000  0.09530000  1
  H  H29  1  0.37420000  0.30020000  0.82440000  1
  H  H30  1  0.40450000  0.28430000  0.93190000  1
  H  H31  1  0.41970000  0.37070000  0.73780000  1
  H  H32  1  0.42820000  0.26740000  0.27800000  1
  H  H33  1  0.44950000  0.50960000  0.25740000  1
  H  H34  1  0.49600000  0.31370000  0.01630000  1
  H  H35  1  0.49940000  0.81480000  0.55480000  1
  H  H36  1  0.50060000  0.18520000  0.44520000  1
  H  H37  1  0.50400000  0.68630000  0.98370000  1
  H  H38  1  0.55050000  0.49040000  0.74260000  1
  H  H39  1  0.57180000  0.73260000  0.72200000  1
  H  H40  1  0.58030000  0.62930000  0.26220000  1
  H  H41  1  0.59550000  0.71570000  0.06810000  1
  H  H42  1  0.62580000  0.69980000  0.17560000  1
  H  H43  1  0.63630000  0.10570000  0.90470000  1
  H  H44  1  0.65920000  0.22830000  0.74950000  1
  H  H45  1  0.66140000  0.83360000  0.38630000  1
  H  H46  1  0.67270000  0.41860000  0.07520000  1
  H  H47  1  0.67690000  0.07300000  0.47120000  1
  H  H48  1  0.69930000  0.99890000  0.55720000  1
  H  H49  1  0.74420000  0.64040000  0.57830000  1
  H  H50  1  0.75580000  0.14040000  0.07830000  1
  H  H51  1  0.80070000  0.49890000  0.05720000  1
  H  H52  1  0.82310000  0.57300000  0.97120000  1
  H  H53  1  0.82730000  0.91860000  0.57520000  1
  H  H54  1  0.83860000  0.33360000  0.88630000  1
  H  H55  1  0.84080000  0.72830000  0.24950000  1
  H  H56  1  0.86370000  0.60570000  0.40470000  1
  H  H57  1  0.87420000  0.19980000  0.67560000  1
  H  H58  1  0.90450000  0.21570000  0.56810000  1
  H  H59  1  0.91970000  0.12930000  0.76220000  1
  H  H60  1  0.92820000  0.23260000  0.22200000  1
  H  H61  1  0.94950000  0.99040000  0.24260000  1
  H  H62  1  0.99600000  0.18630000  0.48370000  1
  H  H63  1  0.99940000  0.68520000  0.94520000  1
  C  C64  1  0.01500000  0.15540000  0.51800000  1
  C  C65  1  0.01980000  0.87140000  0.37890000  1
  C  C66  1  0.02050000  0.71560000  0.85790000  1
  C  C67  1  0.03610000  0.04100000  0.72250000  1
  C  C68  1  0.04060000  0.82770000  0.43170000  1
  C  C69  1  0.04220000  0.71720000  0.91950000  1
  C  C70  1  0.04630000  0.88760000  0.27460000  1
  C  C71  1  0.05230000  0.40120000  0.70020000  1
  C  C72  1  0.06170000  0.34550000  0.16900000  1
  C  C73  1  0.06800000  0.06310000  0.62200000  1
  C  C74  1  0.07280000  0.84530000  0.32530000  1
  C  C75  1  0.08450000  0.76990000  0.81980000  1
  C  C76  1  0.11150000  0.08580000  0.51230000  1
  C  C77  1  0.12740000  0.76640000  0.94290000  1
  C  C78  1  0.13060000  0.04250000  0.56910000  1
  C  C79  1  0.13650000  0.34260000  0.67760000  1
  C  C80  1  0.16510000  0.82640000  0.84470000  1
  C  C81  1  0.16760000  0.34990000  0.61890000  1
  C  C82  1  0.17990000  0.27340000  0.71000000  1
  C  C83  1  0.18240000  0.06000000  0.46350000  1
  C  C84  1  0.18870000  0.82410000  0.90500000  1
  C  C85  1  0.21040000  0.71030000  0.13020000  1
  C  C86  1  0.21550000  0.63290000  0.22510000  1
  C  C87  1  0.22800000  0.88250000  0.80230000  1
  C  C88  1  0.23210000  0.46960000  0.02720000  1
  C  C89  1  0.24670000  0.70440000  0.18760000  1
  C  C90  1  0.24830000  0.51200000  0.97350000  1
  C  C91  1  0.24940000  0.28870000  0.59370000  1
  C  C92  1  0.25060000  0.78870000  0.09370000  1
  C  C93  1  0.25170000  0.01200000  0.47350000  1
  C  C94  1  0.25330000  0.20440000  0.68760000  1
  C  C95  1  0.26790000  0.96960000  0.52720000  1
  C  C96  1  0.27200000  0.38250000  0.30230000  1
  C  C97  1  0.28450000  0.13290000  0.72510000  1
  C  C98  1  0.28960000  0.21030000  0.63020000  1
  C  C99  1  0.31130000  0.32410000  0.40500000  1
  C  C100  1  0.31760000  0.56000000  0.96350000  1
  C  C101  1  0.32010000  0.77340000  0.21000000  1
  C  C102  1  0.33240000  0.84990000  0.11890000  1
  C  C103  1  0.33490000  0.32640000  0.34470000  1
  C  C104  1  0.36350000  0.84260000  0.17760000  1
  C  C105  1  0.36940000  0.54250000  0.06910000  1
  C  C106  1  0.37260000  0.26640000  0.44290000  1
  C  C107  1  0.38850000  0.58580000  0.01230000  1
  C  C108  1  0.41550000  0.26990000  0.31980000  1
  C  C109  1  0.42720000  0.34530000  0.82530000  1
  C  C110  1  0.43200000  0.56310000  0.12200000  1
  C  C111  1  0.43830000  0.84550000  0.66900000  1
  C  C112  1  0.44770000  0.90120000  0.20020000  1
  C  C113  1  0.45370000  0.38760000  0.77460000  1
  C  C114  1  0.45780000  0.21720000  0.41950000  1
  C  C115  1  0.45940000  0.32770000  0.93170000  1
  C  C116  1  0.46390000  0.54100000  0.22250000  1
  C  C117  1  0.47950000  0.21560000  0.35790000  1
  C  C118  1  0.48020000  0.37140000  0.87890000  1
  C  C119  1  0.48500000  0.65540000  0.01800000  1
  C  C120  1  0.51500000  0.34460000  0.98200000  1
  C  C121  1  0.51980000  0.62860000  0.12110000  1
  C  C122  1  0.52050000  0.78440000  0.64210000  1
  C  C123  1  0.53610000  0.45900000  0.77750000  1
  C  C124  1  0.54060000  0.67230000  0.06830000  1
  C  C125  1  0.54220000  0.78280000  0.58050000  1
  C  C126  1  0.54630000  0.61240000  0.22540000  1
  C  C127  1  0.55230000  0.09880000  0.79980000  1
  C  C128  1  0.56170000  0.15450000  0.33100000  1
  C  C129  1  0.56800000  0.43690000  0.87800000  1
  C  C130  1  0.57280000  0.65470000  0.17470000  1
  C  C131  1  0.58450000  0.73010000  0.68020000  1
  C  C132  1  0.61150000  0.41420000  0.98770000  1
  C  C133  1  0.62740000  0.73360000  0.55710000  1
  C  C134  1  0.63060000  0.45750000  0.93090000  1
  C  C135  1  0.63650000  0.15740000  0.82240000  1
  C  C136  1  0.66510000  0.67360000  0.65530000  1
  C  C137  1  0.66760000  0.15010000  0.88110000  1
  C  C138  1  0.67990000  0.22660000  0.79000000  1
  C  C139  1  0.68240000  0.44000000  0.03650000  1
  C  C140  1  0.68870000  0.67590000  0.59500000  1
  C  C141  1  0.71040000  0.78970000  0.36980000  1
  C  C142  1  0.71550000  0.86710000  0.27490000  1
  C  C143  1  0.72800000  0.61750000  0.69770000  1
  C  C144  1  0.73210000  0.03040000  0.47280000  1
  C  C145  1  0.74670000  0.79560000  0.31240000  1
  C  C146  1  0.74830000  0.98800000  0.52650000  1
  C  C147  1  0.74940000  0.21130000  0.90630000  1
  C  C148  1  0.75060000  0.71130000  0.40630000  1
  C  C149  1  0.75170000  0.48800000  0.02650000  1
  C  C150  1  0.75330000  0.29560000  0.81240000  1
  C  C151  1  0.76790000  0.53040000  0.97280000  1
  C  C152  1  0.77200000  0.11750000  0.19770000  1
  C  C153  1  0.78450000  0.36710000  0.77490000  1
  C  C154  1  0.78960000  0.28970000  0.86980000  1
  C  C155  1  0.81130000  0.17590000  0.09500000  1
  C  C156  1  0.81760000  0.94000000  0.53650000  1
  C  C157  1  0.82010000  0.72660000  0.29000000  1
  C  C158  1  0.83240000  0.65010000  0.38110000  1
  C  C159  1  0.83490000  0.17360000  0.15530000  1
  C  C160  1  0.86350000  0.65740000  0.32240000  1
  C  C161  1  0.86940000  0.95750000  0.43090000  1
  C  C162  1  0.87260000  0.23360000  0.05710000  1
  C  C163  1  0.88850000  0.91420000  0.48770000  1
  C  C164  1  0.91550000  0.23010000  0.18020000  1
  C  C165  1  0.92720000  0.15470000  0.67470000  1
  C  C166  1  0.93200000  0.93690000  0.37800000  1
  C  C167  1  0.93830000  0.65450000  0.83100000  1
  C  C168  1  0.94770000  0.59880000  0.29980000  1
  C  C169  1  0.95370000  0.11240000  0.72540000  1
  C  C170  1  0.95780000  0.28280000  0.08050000  1
  C  C171  1  0.95940000  0.17230000  0.56830000  1
  C  C172  1  0.96390000  0.95900000  0.27750000  1
  C  C173  1  0.97950000  0.28440000  0.14210000  1
  C  C174  1  0.98020000  0.12860000  0.62110000  1
  C  C175  1  0.98500000  0.84460000  0.48200000  1
  N  N176  1  0.09070000  0.01900000  0.67330000  1
  N  N177  1  0.15350000  0.75990000  0.00860000  1
  N  N178  1  0.21240000  0.98480000  0.57420000  1
  N  N179  1  0.22620000  0.80240000  0.02960000  1
  N  N180  1  0.27380000  0.30240000  0.52960000  1
  N  N181  1  0.28760000  0.48480000  0.07420000  1
  N  N182  1  0.34650000  0.25990000  0.50860000  1
  N  N183  1  0.40930000  0.51900000  0.17330000  1
  N  N184  1  0.59070000  0.48100000  0.82670000  1
  N  N185  1  0.65350000  0.74010000  0.49140000  1
  N  N186  1  0.71240000  0.51520000  0.92580000  1
  N  N187  1  0.72620000  0.69760000  0.47040000  1
  N  N188  1  0.77380000  0.19760000  0.97040000  1
  N  N189  1  0.78760000  0.01520000  0.42580000  1
  N  N190  1  0.84650000  0.24010000  0.99140000  1
  N  N191  1  0.90930000  0.98100000  0.32670000  1
  O  O192  1  0.00870000  0.45240000  0.67190000  1
  O  O193  1  0.02920000  0.39620000  0.75690000  1
  O  O194  1  0.04800000  0.37780000  0.22420000  1
  O  O195  1  0.07260000  0.71090000  0.03580000  1
  O  O196  1  0.13800000  0.36130000  0.13820000  1
  O  O197  1  0.18060000  0.55350000  0.20010000  1
  O  O198  1  0.19760000  0.43010000  0.32720000  1
  O  O199  1  0.20150000  0.88170000  0.74860000  1
  O  O200  1  0.20930000  0.64550000  0.28030000  1
  O  O201  1  0.29070000  0.14550000  0.78030000  1
  O  O202  1  0.29850000  0.38170000  0.24860000  1
  O  O203  1  0.30240000  0.93010000  0.82720000  1
  O  O204  1  0.31940000  0.05350000  0.70010000  1
  O  O205  1  0.36200000  0.86130000  0.63820000  1
  O  O206  1  0.42740000  0.21090000  0.53580000  1
  O  O207  1  0.45200000  0.87780000  0.72420000  1
  O  O208  1  0.47080000  0.89620000  0.25690000  1
  O  O209  1  0.49130000  0.95240000  0.17190000  1
  O  O210  1  0.50870000  0.04760000  0.82810000  1
  O  O211  1  0.52920000  0.10380000  0.74310000  1
  O  O212  1  0.54800000  0.12220000  0.27580000  1
  O  O213  1  0.57260000  0.78910000  0.46420000  1
  O  O214  1  0.63800000  0.13870000  0.36180000  1
  O  O215  1  0.68060000  0.94650000  0.29990000  1
  O  O216  1  0.69760000  0.06990000  0.17280000  1
  O  O217  1  0.70150000  0.61830000  0.75140000  1
  O  O218  1  0.70930000  0.85450000  0.21970000  1
  O  O219  1  0.79070000  0.35450000  0.71970000  1
  O  O220  1  0.79850000  0.11830000  0.25140000  1
  O  O221  1  0.80240000  0.56990000  0.67280000  1
  O  O222  1  0.81940000  0.44650000  0.79990000  1
  O  O223  1  0.86200000  0.63870000  0.86180000  1
  O  O224  1  0.92740000  0.28910000  0.96420000  1
  O  O225  1  0.95200000  0.62220000  0.77580000  1
  O  O226  1  0.97080000  0.60380000  0.24310000  1
  O  O227  1  0.99130000  0.54760000  0.32810000  1
