# generated using pymatgen
data_Na6GdH24C40S8N8ClO36
_symmetry_space_group_name_H-M   'P 1'
_cell_length_a   12.23400000
_cell_length_b   12.23400000
_cell_length_c   12.37300000
_cell_angle_alpha   90.00000000
_cell_angle_beta   90.00000000
_cell_angle_gamma   90.00000000
_symmetry_Int_Tables_number   1
_chemical_formula_structural   Na6GdH24C40S8N8ClO36
_chemical_formula_sum   'Na6 Gd1 H24 C40 S8 N8 Cl1 O36'
_cell_volume   1851.87626399
_cell_formula_units_Z   1
loop_
 _symmetry_equiv_pos_site_id
 _symmetry_equiv_pos_as_xyz
  1  'x, y, z'
loop_
 _atom_site_type_symbol
 _atom_site_label
 _atom_site_symmetry_multiplicity
 _atom_site_fract_x
 _atom_site_fract_y
 _atom_site_fract_z
 _atom_site_occupancy
  Na  Na0  1  0.00000000  0.50000000  0.51300000  1
  Na  Na1  1  0.27820000  0.47130000  0.49330000  1
  Na  Na2  1  0.47130000  0.72180000  0.50670000  1
  Na  Na3  1  0.50000000  0.00000000  0.48700000  1
  Na  Na4  1  0.52870000  0.27820000  0.50670000  1
  Na  Na5  1  0.72180000  0.52870000  0.49330000  1
  Gd  Gd6  1  0.00000000  0.00000000  0.00000000  1
  H  H7  1  0.01970000  0.61070000  0.73440000  1
  H  H8  1  0.05620000  0.22020000  0.59770000  1
  H  H9  1  0.10730000  0.71990000  0.12280000  1
  H  H10  1  0.11570000  0.64920000  0.29470000  1
  H  H11  1  0.15550000  0.27520000  0.12340000  1
  H  H12  1  0.22020000  0.94380000  0.40230000  1
  H  H13  1  0.27520000  0.84450000  0.87660000  1
  H  H14  1  0.28010000  0.10730000  0.87720000  1
  H  H15  1  0.32470000  0.66750000  0.84080000  1
  H  H16  1  0.33250000  0.32470000  0.15920000  1
  H  H17  1  0.35080000  0.11570000  0.70530000  1
  H  H18  1  0.38930000  0.01970000  0.26560000  1
  H  H19  1  0.61070000  0.98030000  0.26560000  1
  H  H20  1  0.64920000  0.88430000  0.70530000  1
  H  H21  1  0.66750000  0.67530000  0.15920000  1
  H  H22  1  0.67530000  0.33250000  0.84080000  1
  H  H23  1  0.71990000  0.89270000  0.87720000  1
  H  H24  1  0.72480000  0.15550000  0.87660000  1
  H  H25  1  0.77980000  0.05620000  0.40230000  1
  H  H26  1  0.84450000  0.72480000  0.12340000  1
  H  H27  1  0.88430000  0.35080000  0.29470000  1
  H  H28  1  0.89270000  0.28010000  0.12280000  1
  H  H29  1  0.94380000  0.77980000  0.59770000  1
  H  H30  1  0.98030000  0.38930000  0.73440000  1
  C  C31  1  0.04520000  0.76360000  0.78590000  1
  C  C32  1  0.06530000  0.19530000  0.75910000  1
  C  C33  1  0.07270000  0.65760000  0.76180000  1
  C  C34  1  0.10270000  0.19970000  0.65360000  1
  C  C35  1  0.13170000  0.76360000  0.17940000  1
  C  C36  1  0.13620000  0.72120000  0.28170000  1
  C  C37  1  0.17250000  0.78860000  0.36700000  1
  C  C38  1  0.17850000  0.61920000  0.77760000  1
  C  C39  1  0.19530000  0.93470000  0.24090000  1
  C  C40  1  0.19970000  0.89730000  0.34640000  1
  C  C41  1  0.20340000  0.22390000  0.15230000  1
  C  C42  1  0.21140000  0.17250000  0.63300000  1
  C  C43  1  0.22390000  0.79660000  0.84770000  1
  C  C44  1  0.23640000  0.04520000  0.21410000  1
  C  C45  1  0.23640000  0.13170000  0.82060000  1
  C  C46  1  0.25430000  0.69130000  0.82500000  1
  C  C47  1  0.27880000  0.13620000  0.71830000  1
  C  C48  1  0.30870000  0.25430000  0.17500000  1
  C  C49  1  0.34240000  0.07270000  0.23820000  1
  C  C50  1  0.38080000  0.17850000  0.22240000  1
  C  C51  1  0.61920000  0.82150000  0.22240000  1
  C  C52  1  0.65760000  0.92730000  0.23820000  1
  C  C53  1  0.69130000  0.74570000  0.17500000  1
  C  C54  1  0.72120000  0.86380000  0.71830000  1
  C  C55  1  0.74570000  0.30870000  0.82500000  1
  C  C56  1  0.76360000  0.86830000  0.82060000  1
  C  C57  1  0.76360000  0.95480000  0.21410000  1
  C  C58  1  0.77610000  0.20340000  0.84770000  1
  C  C59  1  0.78860000  0.82750000  0.63300000  1
  C  C60  1  0.79660000  0.77610000  0.15230000  1
  C  C61  1  0.80030000  0.10270000  0.34640000  1
  C  C62  1  0.80470000  0.06530000  0.24090000  1
  C  C63  1  0.82150000  0.38080000  0.77760000  1
  C  C64  1  0.82750000  0.21140000  0.36700000  1
  C  C65  1  0.86380000  0.27880000  0.28170000  1
  C  C66  1  0.86830000  0.23640000  0.17940000  1
  C  C67  1  0.89730000  0.80030000  0.65360000  1
  C  C68  1  0.92730000  0.34240000  0.76180000  1
  C  C69  1  0.93470000  0.80470000  0.75910000  1
  C  C70  1  0.95480000  0.23640000  0.78590000  1
  S  S71  1  0.18359000  0.73415000  0.49980000  1
  S  S72  1  0.21338000  0.48424000  0.74035000  1
  S  S73  1  0.26585000  0.18359000  0.50020000  1
  S  S74  1  0.48424000  0.78662000  0.25965000  1
  S  S75  1  0.51576000  0.21338000  0.25965000  1
  S  S76  1  0.73415000  0.81641000  0.50020000  1
  S  S77  1  0.78662000  0.51576000  0.74035000  1
  S  S78  1  0.81641000  0.26585000  0.49980000  1
  N  N79  1  0.12250000  0.83230000  0.82920000  1
  N  N80  1  0.13180000  0.16220000  0.84080000  1
  N  N81  1  0.16220000  0.86820000  0.15920000  1
  N  N82  1  0.16770000  0.12250000  0.17080000  1
  N  N83  1  0.83230000  0.87750000  0.17080000  1
  N  N84  1  0.83780000  0.13180000  0.15920000  1
  N  N85  1  0.86820000  0.83780000  0.84080000  1
  N  N86  1  0.87750000  0.16770000  0.82920000  1
  Cl  Cl87  1  0.50000000  0.50000000  0.50000000  1
  O  O88  1  0.06540000  0.09680000  0.15370000  1
  O  O89  1  0.08600000  0.66890000  0.51250000  1
  O  O90  1  0.09430000  0.15700000  0.94090000  1
  O  O91  1  0.09680000  0.93460000  0.84630000  1
  O  O92  1  0.11780000  0.41720000  0.38320000  1
  O  O93  1  0.14370000  0.46000000  0.64990000  1
  O  O94  1  0.15700000  0.90570000  0.05910000  1
  O  O95  1  0.17400000  0.19160000  0.42780000  1
  O  O96  1  0.19160000  0.82600000  0.57220000  1
  O  O97  1  0.19240000  0.41730000  0.83370000  1
  O  O98  1  0.28370000  0.66740000  0.49620000  1
  O  O99  1  0.32840000  0.48820000  0.70680000  1
  O  O100  1  0.33110000  0.08600000  0.48750000  1
  O  O101  1  0.33260000  0.28370000  0.50380000  1
  O  O102  1  0.41720000  0.88220000  0.61680000  1
  O  O103  1  0.41730000  0.80760000  0.16630000  1
  O  O104  1  0.46000000  0.85630000  0.35010000  1
  O  O105  1  0.48820000  0.67160000  0.29320000  1
  O  O106  1  0.51180000  0.32840000  0.29320000  1
  O  O107  1  0.54000000  0.14370000  0.35010000  1
  O  O108  1  0.58270000  0.19240000  0.16630000  1
  O  O109  1  0.58280000  0.11780000  0.61680000  1
  O  O110  1  0.66740000  0.71630000  0.50380000  1
  O  O111  1  0.66890000  0.91400000  0.48750000  1
  O  O112  1  0.67160000  0.51180000  0.70680000  1
  O  O113  1  0.71630000  0.33260000  0.49620000  1
  O  O114  1  0.80760000  0.58270000  0.83370000  1
  O  O115  1  0.80840000  0.17400000  0.57220000  1
  O  O116  1  0.82600000  0.80840000  0.42780000  1
  O  O117  1  0.84300000  0.09430000  0.05910000  1
  O  O118  1  0.85630000  0.54000000  0.64990000  1
  O  O119  1  0.88220000  0.58280000  0.38320000  1
  O  O120  1  0.90320000  0.06540000  0.84630000  1
  O  O121  1  0.90570000  0.84300000  0.94090000  1
  O  O122  1  0.91400000  0.33110000  0.51250000  1
  O  O123  1  0.93460000  0.90320000  0.15370000  1
