# generated using pymatgen
data_Ni15H96C168(N3O19)4
_symmetry_space_group_name_H-M   'P 1'
_cell_length_a   29.32329395
_cell_length_b   29.32329395
_cell_length_c   29.32329395
_cell_angle_alpha   60.00000000
_cell_angle_beta   60.00000000
_cell_angle_gamma   60.00000000
_symmetry_Int_Tables_number   1
_chemical_formula_structural   Ni15H96C168(N3O19)4
_chemical_formula_sum   'Ni30 H192 C336 N24 O152'
_cell_volume   17828.84724954
_cell_formula_units_Z   2
loop_
 _symmetry_equiv_pos_site_id
 _symmetry_equiv_pos_as_xyz
  1  'x, y, z'
loop_
 _atom_site_type_symbol
 _atom_site_label
 _atom_site_symmetry_multiplicity
 _atom_site_fract_x
 _atom_site_fract_y
 _atom_site_fract_z
 _atom_site_occupancy
  C  C0  1  0.02472000  0.94174000  0.71890000  1
  C  C1  1  0.68536000  0.28110000  0.05826000  1
  C  C2  1  0.94174000  0.02472000  0.71890000  1
  C  C3  1  0.68536000  0.28110000  0.97528000  1
  C  C4  1  0.02472000  0.94174000  0.31464000  1
  C  C5  1  0.28110000  0.68536000  0.05826000  1
  C  C6  1  0.94174000  0.02472000  0.31464000  1
  C  C7  1  0.28110000  0.68536000  0.97528000  1
  C  C8  1  0.96651000  0.96651000  0.73451000  1
  C  C9  1  0.66753000  0.26549000  0.03349000  1
  C  C10  1  0.96651000  0.96651000  0.33247000  1
  C  C11  1  0.26549000  0.66753000  0.03349000  1
  C  C12  1  0.14830000  0.75170000  0.75170000  1
  C  C13  1  0.65170000  0.24830000  0.24830000  1
  C  C14  1  0.75170000  0.14830000  0.75170000  1
  C  C15  1  0.65170000  0.24830000  0.85170000  1
  C  C16  1  0.14830000  0.75170000  0.34830000  1
  C  C17  1  0.24830000  0.65170000  0.24830000  1
  C  C18  1  0.75170000  0.14830000  0.34830000  1
  C  C19  1  0.24830000  0.65170000  0.85170000  1
  C  C20  1  0.93017000  0.93017000  0.76915000  1
  C  C21  1  0.62949000  0.23085000  0.06983000  1
  C  C22  1  0.93017000  0.93017000  0.37051000  1
  C  C23  1  0.23085000  0.62949000  0.06983000  1
  C  C24  1  0.11220000  0.74800000  0.74800000  1
  C  C25  1  0.60820000  0.25200000  0.25200000  1
  C  C26  1  0.11220000  0.74800000  0.39180000  1
  C  C27  1  0.25200000  0.60820000  0.25200000  1
  C  C28  1  0.74800000  0.11220000  0.74800000  1
  C  C29  1  0.60820000  0.25200000  0.88780000  1
  C  C30  1  0.74800000  0.11220000  0.39180000  1
  C  C31  1  0.25200000  0.60820000  0.88780000  1
  C  C32  1  0.12330000  0.71750000  0.71750000  1
  C  C33  1  0.55830000  0.28250000  0.28250000  1
  C  C34  1  0.12330000  0.71750000  0.44170000  1
  C  C35  1  0.28250000  0.55830000  0.28250000  1
  C  C36  1  0.71750000  0.12330000  0.71750000  1
  C  C37  1  0.55830000  0.28250000  0.87670000  1
  C  C38  1  0.71750000  0.12330000  0.44170000  1
  C  C39  1  0.28250000  0.55830000  0.87670000  1
  C  C40  1  0.05610000  0.77490000  0.77490000  1
  C  C41  1  0.60590000  0.22510000  0.22510000  1
  C  C42  1  0.77490000  0.05610000  0.77490000  1
  C  C43  1  0.60590000  0.22510000  0.94390000  1
  C  C44  1  0.05610000  0.77490000  0.39410000  1
  C  C45  1  0.22510000  0.60590000  0.22510000  1
  C  C46  1  0.77490000  0.05610000  0.39410000  1
  C  C47  1  0.22510000  0.60590000  0.94390000  1
  C  C48  1  0.08060000  0.71360000  0.71360000  1
  C  C49  1  0.50780000  0.28640000  0.28640000  1
  C  C50  1  0.08060000  0.71360000  0.49220000  1
  C  C51  1  0.28640000  0.50780000  0.28640000  1
  C  C52  1  0.71360000  0.08060000  0.71360000  1
  C  C53  1  0.50780000  0.28640000  0.91940000  1
  C  C54  1  0.71360000  0.08060000  0.49220000  1
  C  C55  1  0.28640000  0.50780000  0.91940000  1
  C  C56  1  0.02570000  0.74010000  0.74010000  1
  C  C57  1  0.50590000  0.25990000  0.25990000  1
  C  C58  1  0.02570000  0.74010000  0.49410000  1
  C  C59  1  0.25990000  0.50590000  0.25990000  1
  C  C60  1  0.74010000  0.02570000  0.74010000  1
  C  C61  1  0.50590000  0.25990000  0.97430000  1
  C  C62  1  0.74010000  0.02570000  0.49410000  1
  C  C63  1  0.25990000  0.50590000  0.97430000  1
  C  C64  1  0.87730000  0.87730000  0.67034000  1
  C  C65  1  0.42494000  0.32966000  0.12270000  1
  C  C66  1  0.87730000  0.87730000  0.57506000  1
  C  C67  1  0.32966000  0.42494000  0.12270000  1
  C  C68  1  0.91620000  0.83720000  0.64740000  1
  C  C69  1  0.40080000  0.35260000  0.16280000  1
  C  C70  1  0.91620000  0.83720000  0.59920000  1
  C  C71  1  0.35260000  0.40080000  0.16280000  1
  C  C72  1  0.83720000  0.91620000  0.64740000  1
  C  C73  1  0.40080000  0.35260000  0.08380000  1
  C  C74  1  0.83720000  0.91620000  0.59920000  1
  C  C75  1  0.35260000  0.40080000  0.08380000  1
  C  C76  1  0.87600000  0.87600000  0.72492000  1
  C  C77  1  0.47692000  0.27508000  0.12400000  1
  C  C78  1  0.87600000  0.87600000  0.52308000  1
  C  C79  1  0.27508000  0.47692000  0.12400000  1
  C  C80  1  0.02472000  0.71890000  0.94174000  1
  C  C81  1  0.68536000  0.05826000  0.28110000  1
  C  C82  1  0.71890000  0.02472000  0.94174000  1
  C  C83  1  0.68536000  0.05826000  0.97528000  1
  C  C84  1  0.02472000  0.71890000  0.31464000  1
  C  C85  1  0.05826000  0.68536000  0.28110000  1
  C  C86  1  0.71890000  0.02472000  0.31464000  1
  C  C87  1  0.05826000  0.68536000  0.97528000  1
  C  C88  1  0.96651000  0.73451000  0.96651000  1
  C  C89  1  0.66753000  0.03349000  0.26549000  1
  C  C90  1  0.73451000  0.96651000  0.96651000  1
  C  C91  1  0.66753000  0.03349000  0.03349000  1
  C  C92  1  0.96651000  0.73451000  0.33247000  1
  C  C93  1  0.03349000  0.66753000  0.26549000  1
  C  C94  1  0.73451000  0.96651000  0.33247000  1
  C  C95  1  0.03349000  0.66753000  0.03349000  1
  C  C96  1  0.93017000  0.76915000  0.93017000  1
  C  C97  1  0.62949000  0.06983000  0.23085000  1
  C  C98  1  0.76915000  0.93017000  0.93017000  1
  C  C99  1  0.62949000  0.06983000  0.06983000  1
  C  C100  1  0.93017000  0.76915000  0.37051000  1
  C  C101  1  0.06983000  0.62949000  0.23085000  1
  C  C102  1  0.76915000  0.93017000  0.37051000  1
  C  C103  1  0.06983000  0.62949000  0.06983000  1
  C  C104  1  0.94174000  0.71890000  0.02472000  1
  C  C105  1  0.68536000  0.97528000  0.28110000  1
  C  C106  1  0.71890000  0.94174000  0.02472000  1
  C  C107  1  0.68536000  0.97528000  0.05826000  1
  C  C108  1  0.94174000  0.71890000  0.31464000  1
  C  C109  1  0.97528000  0.68536000  0.28110000  1
  C  C110  1  0.71890000  0.94174000  0.31464000  1
  C  C111  1  0.97528000  0.68536000  0.05826000  1
  C  C112  1  0.87600000  0.72492000  0.87600000  1
  C  C113  1  0.47692000  0.12400000  0.27508000  1
  C  C114  1  0.72492000  0.87600000  0.87600000  1
  C  C115  1  0.47692000  0.12400000  0.12400000  1
  C  C116  1  0.87600000  0.72492000  0.52308000  1
  C  C117  1  0.12400000  0.47692000  0.27508000  1
  C  C118  1  0.72492000  0.87600000  0.52308000  1
  C  C119  1  0.12400000  0.47692000  0.12400000  1
  C  C120  1  0.08060000  0.49220000  0.71360000  1
  C  C121  1  0.28640000  0.28640000  0.50780000  1
  C  C122  1  0.49220000  0.08060000  0.71360000  1
  C  C123  1  0.28640000  0.28640000  0.91940000  1
  C  C124  1  0.12330000  0.44170000  0.71750000  1
  C  C125  1  0.28250000  0.28250000  0.55830000  1
  C  C126  1  0.44170000  0.12330000  0.71750000  1
  C  C127  1  0.28250000  0.28250000  0.87670000  1
  C  C128  1  0.91620000  0.64740000  0.83720000  1
  C  C129  1  0.40080000  0.16280000  0.35260000  1
  C  C130  1  0.91620000  0.64740000  0.59920000  1
  C  C131  1  0.16280000  0.40080000  0.35260000  1
  C  C132  1  0.64740000  0.91620000  0.83720000  1
  C  C133  1  0.40080000  0.16280000  0.08380000  1
  C  C134  1  0.64740000  0.91620000  0.59920000  1
  C  C135  1  0.16280000  0.40080000  0.08380000  1
  C  C136  1  0.77490000  0.77490000  0.05610000  1
  C  C137  1  0.60590000  0.94390000  0.22510000  1
  C  C138  1  0.77490000  0.77490000  0.39410000  1
  C  C139  1  0.94390000  0.60590000  0.22510000  1
  C  C140  1  0.87730000  0.67034000  0.87730000  1
  C  C141  1  0.42494000  0.12270000  0.32966000  1
  C  C142  1  0.67034000  0.87730000  0.87730000  1
  C  C143  1  0.42494000  0.12270000  0.12270000  1
  C  C144  1  0.87730000  0.67034000  0.57506000  1
  C  C145  1  0.12270000  0.42494000  0.32966000  1
  C  C146  1  0.67034000  0.87730000  0.57506000  1
  C  C147  1  0.12270000  0.42494000  0.12270000  1
  C  C148  1  0.02570000  0.49410000  0.74010000  1
  C  C149  1  0.25990000  0.25990000  0.50590000  1
  C  C150  1  0.49410000  0.02570000  0.74010000  1
  C  C151  1  0.25990000  0.25990000  0.97430000  1
  C  C152  1  0.91620000  0.59920000  0.83720000  1
  C  C153  1  0.35260000  0.16280000  0.40080000  1
  C  C154  1  0.91620000  0.59920000  0.64740000  1
  C  C155  1  0.16280000  0.35260000  0.40080000  1
  C  C156  1  0.59920000  0.91620000  0.83720000  1
  C  C157  1  0.35260000  0.16280000  0.08380000  1
  C  C158  1  0.59920000  0.91620000  0.64740000  1
  C  C159  1  0.16280000  0.35260000  0.08380000  1
  C  C160  1  0.11220000  0.39180000  0.74800000  1
  C  C161  1  0.25200000  0.25200000  0.60820000  1
  C  C162  1  0.39180000  0.11220000  0.74800000  1
  C  C163  1  0.25200000  0.25200000  0.88780000  1
  C  C164  1  0.75170000  0.75170000  0.14830000  1
  C  C165  1  0.65170000  0.85170000  0.24830000  1
  C  C166  1  0.75170000  0.75170000  0.34830000  1
  C  C167  1  0.85170000  0.65170000  0.24830000  1
  C  C168  1  0.14830000  0.34830000  0.75170000  1
  C  C169  1  0.24830000  0.24830000  0.65170000  1
  C  C170  1  0.34830000  0.14830000  0.75170000  1
  C  C171  1  0.24830000  0.24830000  0.85170000  1
  C  C172  1  0.74800000  0.74800000  0.11220000  1
  C  C173  1  0.60820000  0.88780000  0.25200000  1
  C  C174  1  0.74800000  0.74800000  0.39180000  1
  C  C175  1  0.88780000  0.60820000  0.25200000  1
  C  C176  1  0.83720000  0.64740000  0.91620000  1
  C  C177  1  0.40080000  0.08380000  0.35260000  1
  C  C178  1  0.64740000  0.83720000  0.91620000  1
  C  C179  1  0.40080000  0.08380000  0.16280000  1
  C  C180  1  0.83720000  0.64740000  0.59920000  1
  C  C181  1  0.08380000  0.40080000  0.35260000  1
  C  C182  1  0.64740000  0.83720000  0.59920000  1
  C  C183  1  0.08380000  0.40080000  0.16280000  1
  C  C184  1  0.74010000  0.74010000  0.02570000  1
  C  C185  1  0.50590000  0.97430000  0.25990000  1
  C  C186  1  0.74010000  0.74010000  0.49410000  1
  C  C187  1  0.97430000  0.50590000  0.25990000  1
  C  C188  1  0.87730000  0.57506000  0.87730000  1
  C  C189  1  0.32966000  0.12270000  0.42494000  1
  C  C190  1  0.87730000  0.57506000  0.67034000  1
  C  C191  1  0.12270000  0.32966000  0.42494000  1
  C  C192  1  0.57506000  0.87730000  0.87730000  1
  C  C193  1  0.32966000  0.12270000  0.12270000  1
  C  C194  1  0.57506000  0.87730000  0.67034000  1
  C  C195  1  0.12270000  0.32966000  0.12270000  1
  C  C196  1  0.05610000  0.39410000  0.77490000  1
  C  C197  1  0.22510000  0.22510000  0.60590000  1
  C  C198  1  0.39410000  0.05610000  0.77490000  1
  C  C199  1  0.22510000  0.22510000  0.94390000  1
  C  C200  1  0.83720000  0.59920000  0.91620000  1
  C  C201  1  0.35260000  0.08380000  0.40080000  1
  C  C202  1  0.59920000  0.83720000  0.91620000  1
  C  C203  1  0.35260000  0.08380000  0.16280000  1
  C  C204  1  0.83720000  0.59920000  0.64740000  1
  C  C205  1  0.08380000  0.35260000  0.40080000  1
  C  C206  1  0.59920000  0.83720000  0.64740000  1
  C  C207  1  0.08380000  0.35260000  0.16280000  1
  C  C208  1  0.71750000  0.71750000  0.12330000  1
  C  C209  1  0.55830000  0.87670000  0.28250000  1
  C  C210  1  0.71750000  0.71750000  0.44170000  1
  C  C211  1  0.87670000  0.55830000  0.28250000  1
  C  C212  1  0.71360000  0.71360000  0.08060000  1
  C  C213  1  0.50780000  0.91940000  0.28640000  1
  C  C214  1  0.71360000  0.71360000  0.49220000  1
  C  C215  1  0.91940000  0.50780000  0.28640000  1
  C  C216  1  0.87600000  0.52308000  0.87600000  1
  C  C217  1  0.27508000  0.12400000  0.47692000  1
  C  C218  1  0.87600000  0.52308000  0.72492000  1
  C  C219  1  0.12400000  0.27508000  0.47692000  1
  C  C220  1  0.52308000  0.87600000  0.87600000  1
  C  C221  1  0.27508000  0.12400000  0.12400000  1
  C  C222  1  0.52308000  0.87600000  0.72492000  1
  C  C223  1  0.12400000  0.27508000  0.12400000  1
  C  C224  1  0.02472000  0.31464000  0.94174000  1
  C  C225  1  0.28110000  0.05826000  0.68536000  1
  C  C226  1  0.02472000  0.31464000  0.71890000  1
  C  C227  1  0.05826000  0.28110000  0.68536000  1
  C  C228  1  0.31464000  0.02472000  0.94174000  1
  C  C229  1  0.28110000  0.05826000  0.97528000  1
  C  C230  1  0.31464000  0.02472000  0.71890000  1
  C  C231  1  0.05826000  0.28110000  0.97528000  1
  C  C232  1  0.93017000  0.37051000  0.93017000  1
  C  C233  1  0.23085000  0.06983000  0.62949000  1
  C  C234  1  0.93017000  0.37051000  0.76915000  1
  C  C235  1  0.06983000  0.23085000  0.62949000  1
  C  C236  1  0.37051000  0.93017000  0.93017000  1
  C  C237  1  0.23085000  0.06983000  0.06983000  1
  C  C238  1  0.37051000  0.93017000  0.76915000  1
  C  C239  1  0.06983000  0.23085000  0.06983000  1
  C  C240  1  0.96651000  0.33247000  0.96651000  1
  C  C241  1  0.26549000  0.03349000  0.66753000  1
  C  C242  1  0.96651000  0.33247000  0.73451000  1
  C  C243  1  0.03349000  0.26549000  0.66753000  1
  C  C244  1  0.33247000  0.96651000  0.96651000  1
  C  C245  1  0.26549000  0.03349000  0.03349000  1
  C  C246  1  0.33247000  0.96651000  0.73451000  1
  C  C247  1  0.03349000  0.26549000  0.03349000  1
  C  C248  1  0.94174000  0.31464000  0.02472000  1
  C  C249  1  0.28110000  0.97528000  0.68536000  1
  C  C250  1  0.94174000  0.31464000  0.71890000  1
  C  C251  1  0.97528000  0.28110000  0.68536000  1
  C  C252  1  0.31464000  0.94174000  0.02472000  1
  C  C253  1  0.28110000  0.97528000  0.05826000  1
  C  C254  1  0.31464000  0.94174000  0.71890000  1
  C  C255  1  0.97528000  0.28110000  0.05826000  1
  C  C256  1  0.72492000  0.52308000  0.87600000  1
  C  C257  1  0.12400000  0.12400000  0.47692000  1
  C  C258  1  0.52308000  0.72492000  0.87600000  1
  C  C259  1  0.12400000  0.12400000  0.27508000  1
  C  C260  1  0.64740000  0.59920000  0.91620000  1
  C  C261  1  0.16280000  0.08380000  0.40080000  1
  C  C262  1  0.59920000  0.64740000  0.91620000  1
  C  C263  1  0.16280000  0.08380000  0.35260000  1
  C  C264  1  0.64740000  0.59920000  0.83720000  1
  C  C265  1  0.08380000  0.16280000  0.40080000  1
  C  C266  1  0.59920000  0.64740000  0.83720000  1
  C  C267  1  0.08380000  0.16280000  0.35260000  1
  C  C268  1  0.67034000  0.57506000  0.87730000  1
  C  C269  1  0.12270000  0.12270000  0.42494000  1
  C  C270  1  0.57506000  0.67034000  0.87730000  1
  C  C271  1  0.12270000  0.12270000  0.32966000  1
  C  C272  1  0.74010000  0.49410000  0.02570000  1
  C  C273  1  0.25990000  0.97430000  0.50590000  1
  C  C274  1  0.49410000  0.74010000  0.02570000  1
  C  C275  1  0.25990000  0.97430000  0.25990000  1
  C  C276  1  0.74010000  0.49410000  0.74010000  1
  C  C277  1  0.97430000  0.25990000  0.50590000  1
  C  C278  1  0.49410000  0.74010000  0.74010000  1
  C  C279  1  0.97430000  0.25990000  0.25990000  1
  C  C280  1  0.71360000  0.49220000  0.08060000  1
  C  C281  1  0.28640000  0.91940000  0.50780000  1
  C  C282  1  0.49220000  0.71360000  0.08060000  1
  C  C283  1  0.28640000  0.91940000  0.28640000  1
  C  C284  1  0.71360000  0.49220000  0.71360000  1
  C  C285  1  0.91940000  0.28640000  0.50780000  1
  C  C286  1  0.49220000  0.71360000  0.71360000  1
  C  C287  1  0.91940000  0.28640000  0.28640000  1
  C  C288  1  0.77490000  0.39410000  0.05610000  1
  C  C289  1  0.22510000  0.94390000  0.60590000  1
  C  C290  1  0.77490000  0.39410000  0.77490000  1
  C  C291  1  0.94390000  0.22510000  0.60590000  1
  C  C292  1  0.39410000  0.77490000  0.05610000  1
  C  C293  1  0.22510000  0.94390000  0.22510000  1
  C  C294  1  0.39410000  0.77490000  0.77490000  1
  C  C295  1  0.94390000  0.22510000  0.22510000  1
  C  C296  1  0.71750000  0.44170000  0.12330000  1
  C  C297  1  0.28250000  0.87670000  0.55830000  1
  C  C298  1  0.44170000  0.71750000  0.12330000  1
  C  C299  1  0.28250000  0.87670000  0.28250000  1
  C  C300  1  0.71750000  0.44170000  0.71750000  1
  C  C301  1  0.87670000  0.28250000  0.55830000  1
  C  C302  1  0.44170000  0.71750000  0.71750000  1
  C  C303  1  0.87670000  0.28250000  0.28250000  1
  C  C304  1  0.74800000  0.39180000  0.11220000  1
  C  C305  1  0.25200000  0.88780000  0.60820000  1
  C  C306  1  0.39180000  0.74800000  0.11220000  1
  C  C307  1  0.25200000  0.88780000  0.25200000  1
  C  C308  1  0.74800000  0.39180000  0.74800000  1
  C  C309  1  0.88780000  0.25200000  0.60820000  1
  C  C310  1  0.39180000  0.74800000  0.74800000  1
  C  C311  1  0.88780000  0.25200000  0.25200000  1
  C  C312  1  0.76915000  0.37051000  0.93017000  1
  C  C313  1  0.06983000  0.06983000  0.62949000  1
  C  C314  1  0.37051000  0.76915000  0.93017000  1
  C  C315  1  0.06983000  0.06983000  0.23085000  1
  C  C316  1  0.75170000  0.34830000  0.14830000  1
  C  C317  1  0.24830000  0.85170000  0.65170000  1
  C  C318  1  0.75170000  0.34830000  0.75170000  1
  C  C319  1  0.85170000  0.24830000  0.65170000  1
  C  C320  1  0.34830000  0.75170000  0.14830000  1
  C  C321  1  0.24830000  0.85170000  0.24830000  1
  C  C322  1  0.34830000  0.75170000  0.75170000  1
  C  C323  1  0.85170000  0.24830000  0.24830000  1
  C  C324  1  0.73451000  0.33247000  0.96651000  1
  C  C325  1  0.03349000  0.03349000  0.66753000  1
  C  C326  1  0.33247000  0.73451000  0.96651000  1
  C  C327  1  0.03349000  0.03349000  0.26549000  1
  C  C328  1  0.71890000  0.31464000  0.02472000  1
  C  C329  1  0.05826000  0.97528000  0.68536000  1
  C  C330  1  0.71890000  0.31464000  0.94174000  1
  C  C331  1  0.97528000  0.05826000  0.68536000  1
  C  C332  1  0.31464000  0.71890000  0.02472000  1
  C  C333  1  0.05826000  0.97528000  0.28110000  1
  C  C334  1  0.31464000  0.71890000  0.94174000  1
  C  C335  1  0.97528000  0.05826000  0.28110000  1
  H  H336  1  0.04090000  0.90310000  0.73090000  1
  H  H337  1  0.67490000  0.26910000  0.09690000  1
  H  H338  1  0.90310000  0.04090000  0.73090000  1
  H  H339  1  0.67490000  0.26910000  0.95910000  1
  H  H340  1  0.04090000  0.90310000  0.32510000  1
  H  H341  1  0.26910000  0.67490000  0.09690000  1
  H  H342  1  0.90310000  0.04090000  0.32510000  1
  H  H343  1  0.26910000  0.67490000  0.95910000  1
  H  H344  1  0.16020000  0.69940000  0.69940000  1
  H  H345  1  0.55900000  0.30060000  0.30060000  1
  H  H346  1  0.16020000  0.69940000  0.44100000  1
  H  H347  1  0.30060000  0.55900000  0.30060000  1
  H  H348  1  0.69940000  0.16020000  0.69940000  1
  H  H349  1  0.55900000  0.30060000  0.83980000  1
  H  H350  1  0.69940000  0.16020000  0.44100000  1
  H  H351  1  0.30060000  0.55900000  0.83980000  1
  H  H352  1  0.04780000  0.79560000  0.79560000  1
  H  H353  1  0.63900000  0.20440000  0.20440000  1
  H  H354  1  0.79560000  0.04780000  0.79560000  1
  H  H355  1  0.63900000  0.20440000  0.95220000  1
  H  H356  1  0.04780000  0.79560000  0.36100000  1
  H  H357  1  0.20440000  0.63900000  0.20440000  1
  H  H358  1  0.79560000  0.04780000  0.36100000  1
  H  H359  1  0.20440000  0.63900000  0.95220000  1
  H  H360  1  0.08880000  0.69300000  0.69300000  1
  H  H361  1  0.47480000  0.30700000  0.30700000  1
  H  H362  1  0.08880000  0.69300000  0.52520000  1
  H  H363  1  0.30700000  0.47480000  0.30700000  1
  H  H364  1  0.69300000  0.08880000  0.69300000  1
  H  H365  1  0.47480000  0.30700000  0.91120000  1
  H  H366  1  0.69300000  0.08880000  0.52520000  1
  H  H367  1  0.30700000  0.47480000  0.91120000  1
  H  H368  1  0.04090000  0.73090000  0.90310000  1
  H  H369  1  0.67490000  0.09690000  0.26910000  1
  H  H370  1  0.73090000  0.04090000  0.90310000  1
  H  H371  1  0.67490000  0.09690000  0.95910000  1
  H  H372  1  0.04090000  0.73090000  0.32510000  1
  H  H373  1  0.09690000  0.67490000  0.26910000  1
  H  H374  1  0.73090000  0.04090000  0.32510000  1
  H  H375  1  0.09690000  0.67490000  0.95910000  1
  H  H376  1  0.94350000  0.80910000  0.66350000  1
  H  H377  1  0.41610000  0.33650000  0.19090000  1
  H  H378  1  0.94350000  0.80910000  0.58390000  1
  H  H379  1  0.33650000  0.41610000  0.19090000  1
  H  H380  1  0.80910000  0.94350000  0.66350000  1
  H  H381  1  0.41610000  0.33650000  0.05650000  1
  H  H382  1  0.80910000  0.94350000  0.58390000  1
  H  H383  1  0.33650000  0.41610000  0.05650000  1
  H  H384  1  0.99710000  0.73710000  0.73710000  1
  H  H385  1  0.47130000  0.26290000  0.26290000  1
  H  H386  1  0.99710000  0.73710000  0.52870000  1
  H  H387  1  0.26290000  0.47130000  0.26290000  1
  H  H388  1  0.73710000  0.99710000  0.73710000  1
  H  H389  1  0.47130000  0.26290000  0.00290000  1
  H  H390  1  0.73710000  0.99710000  0.52870000  1
  H  H391  1  0.26290000  0.47130000  0.00290000  1
  H  H392  1  0.90310000  0.73090000  0.04090000  1
  H  H393  1  0.67490000  0.95910000  0.26910000  1
  H  H394  1  0.73090000  0.90310000  0.04090000  1
  H  H395  1  0.67490000  0.95910000  0.09690000  1
  H  H396  1  0.90310000  0.73090000  0.32510000  1
  H  H397  1  0.95910000  0.67490000  0.26910000  1
  H  H398  1  0.73090000  0.90310000  0.32510000  1
  H  H399  1  0.95910000  0.67490000  0.09690000  1
  H  H400  1  0.08880000  0.52520000  0.69300000  1
  H  H401  1  0.30700000  0.30700000  0.47480000  1
  H  H402  1  0.52520000  0.08880000  0.69300000  1
  H  H403  1  0.30700000  0.30700000  0.91120000  1
  H  H404  1  0.94350000  0.66350000  0.80910000  1
  H  H405  1  0.41610000  0.19090000  0.33650000  1
  H  H406  1  0.94350000  0.66350000  0.58390000  1
  H  H407  1  0.19090000  0.41610000  0.33650000  1
  H  H408  1  0.66350000  0.94350000  0.80910000  1
  H  H409  1  0.41610000  0.19090000  0.05650000  1
  H  H410  1  0.66350000  0.94350000  0.58390000  1
  H  H411  1  0.19090000  0.41610000  0.05650000  1
  H  H412  1  0.16020000  0.44100000  0.69940000  1
  H  H413  1  0.30060000  0.30060000  0.55900000  1
  H  H414  1  0.44100000  0.16020000  0.69940000  1
  H  H415  1  0.30060000  0.30060000  0.83980000  1
  H  H416  1  0.79560000  0.79560000  0.04780000  1
  H  H417  1  0.63900000  0.95220000  0.20440000  1
  H  H418  1  0.79560000  0.79560000  0.36100000  1
  H  H419  1  0.95220000  0.63900000  0.20440000  1
  H  H420  1  0.94350000  0.58390000  0.80910000  1
  H  H421  1  0.33650000  0.19090000  0.41610000  1
  H  H422  1  0.94350000  0.58390000  0.66350000  1
  H  H423  1  0.19090000  0.33650000  0.41610000  1
  H  H424  1  0.58390000  0.94350000  0.80910000  1
  H  H425  1  0.33650000  0.19090000  0.05650000  1
  H  H426  1  0.58390000  0.94350000  0.66350000  1
  H  H427  1  0.19090000  0.33650000  0.05650000  1
  H  H428  1  0.99710000  0.52870000  0.73710000  1
  H  H429  1  0.26290000  0.26290000  0.47130000  1
  H  H430  1  0.52870000  0.99710000  0.73710000  1
  H  H431  1  0.26290000  0.26290000  0.00290000  1
  H  H432  1  0.73710000  0.73710000  0.99710000  1
  H  H433  1  0.47130000  0.00290000  0.26290000  1
  H  H434  1  0.73710000  0.73710000  0.52870000  1
  H  H435  1  0.00290000  0.47130000  0.26290000  1
  H  H436  1  0.80910000  0.66350000  0.94350000  1
  H  H437  1  0.41610000  0.05650000  0.33650000  1
  H  H438  1  0.66350000  0.80910000  0.94350000  1
  H  H439  1  0.41610000  0.05650000  0.19090000  1
  H  H440  1  0.80910000  0.66350000  0.58390000  1
  H  H441  1  0.05650000  0.41610000  0.33650000  1
  H  H442  1  0.66350000  0.80910000  0.58390000  1
  H  H443  1  0.05650000  0.41610000  0.19090000  1
  H  H444  1  0.04780000  0.36100000  0.79560000  1
  H  H445  1  0.20440000  0.20440000  0.63900000  1
  H  H446  1  0.36100000  0.04780000  0.79560000  1
  H  H447  1  0.20440000  0.20440000  0.95220000  1
  H  H448  1  0.69940000  0.69940000  0.16020000  1
  H  H449  1  0.55900000  0.83980000  0.30060000  1
  H  H450  1  0.69940000  0.69940000  0.44100000  1
  H  H451  1  0.83980000  0.55900000  0.30060000  1
  H  H452  1  0.80910000  0.58390000  0.94350000  1
  H  H453  1  0.33650000  0.05650000  0.41610000  1
  H  H454  1  0.58390000  0.80910000  0.94350000  1
  H  H455  1  0.33650000  0.05650000  0.19090000  1
  H  H456  1  0.80910000  0.58390000  0.66350000  1
  H  H457  1  0.05650000  0.33650000  0.41610000  1
  H  H458  1  0.58390000  0.80910000  0.66350000  1
  H  H459  1  0.05650000  0.33650000  0.19090000  1
  H  H460  1  0.69300000  0.69300000  0.08880000  1
  H  H461  1  0.47480000  0.91120000  0.30700000  1
  H  H462  1  0.69300000  0.69300000  0.52520000  1
  H  H463  1  0.91120000  0.47480000  0.30700000  1
  H  H464  1  0.04090000  0.32510000  0.90310000  1
  H  H465  1  0.26910000  0.09690000  0.67490000  1
  H  H466  1  0.04090000  0.32510000  0.73090000  1
  H  H467  1  0.09690000  0.26910000  0.67490000  1
  H  H468  1  0.32510000  0.04090000  0.90310000  1
  H  H469  1  0.26910000  0.09690000  0.95910000  1
  H  H470  1  0.32510000  0.04090000  0.73090000  1
  H  H471  1  0.09690000  0.26910000  0.95910000  1
  H  H472  1  0.73710000  0.52870000  0.99710000  1
  H  H473  1  0.26290000  0.00290000  0.47130000  1
  H  H474  1  0.52870000  0.73710000  0.99710000  1
  H  H475  1  0.26290000  0.00290000  0.26290000  1
  H  H476  1  0.73710000  0.52870000  0.73710000  1
  H  H477  1  0.00290000  0.26290000  0.47130000  1
  H  H478  1  0.52870000  0.73710000  0.73710000  1
  H  H479  1  0.00290000  0.26290000  0.26290000  1
  H  H480  1  0.66350000  0.58390000  0.94350000  1
  H  H481  1  0.19090000  0.05650000  0.41610000  1
  H  H482  1  0.58390000  0.66350000  0.94350000  1
  H  H483  1  0.19090000  0.05650000  0.33650000  1
  H  H484  1  0.66350000  0.58390000  0.80910000  1
  H  H485  1  0.05650000  0.19090000  0.41610000  1
  H  H486  1  0.58390000  0.66350000  0.80910000  1
  H  H487  1  0.05650000  0.19090000  0.33650000  1
  H  H488  1  0.90310000  0.32510000  0.04090000  1
  H  H489  1  0.26910000  0.95910000  0.67490000  1
  H  H490  1  0.90310000  0.32510000  0.73090000  1
  H  H491  1  0.95910000  0.26910000  0.67490000  1
  H  H492  1  0.32510000  0.90310000  0.04090000  1
  H  H493  1  0.26910000  0.95910000  0.09690000  1
  H  H494  1  0.32510000  0.90310000  0.73090000  1
  H  H495  1  0.95910000  0.26910000  0.09690000  1
  H  H496  1  0.69300000  0.52520000  0.08880000  1
  H  H497  1  0.30700000  0.91120000  0.47480000  1
  H  H498  1  0.52520000  0.69300000  0.08880000  1
  H  H499  1  0.30700000  0.91120000  0.30700000  1
  H  H500  1  0.69300000  0.52520000  0.69300000  1
  H  H501  1  0.91120000  0.30700000  0.47480000  1
  H  H502  1  0.52520000  0.69300000  0.69300000  1
  H  H503  1  0.91120000  0.30700000  0.30700000  1
  H  H504  1  0.79560000  0.36100000  0.04780000  1
  H  H505  1  0.20440000  0.95220000  0.63900000  1
  H  H506  1  0.79560000  0.36100000  0.79560000  1
  H  H507  1  0.95220000  0.20440000  0.63900000  1
  H  H508  1  0.36100000  0.79560000  0.04780000  1
  H  H509  1  0.20440000  0.95220000  0.20440000  1
  H  H510  1  0.36100000  0.79560000  0.79560000  1
  H  H511  1  0.95220000  0.20440000  0.20440000  1
  H  H512  1  0.69940000  0.44100000  0.16020000  1
  H  H513  1  0.30060000  0.83980000  0.55900000  1
  H  H514  1  0.44100000  0.69940000  0.16020000  1
  H  H515  1  0.30060000  0.83980000  0.30060000  1
  H  H516  1  0.69940000  0.44100000  0.69940000  1
  H  H517  1  0.83980000  0.30060000  0.55900000  1
  H  H518  1  0.44100000  0.69940000  0.69940000  1
  H  H519  1  0.83980000  0.30060000  0.30060000  1
  H  H520  1  0.73090000  0.32510000  0.04090000  1
  H  H521  1  0.09690000  0.95910000  0.67490000  1
  H  H522  1  0.73090000  0.32510000  0.90310000  1
  H  H523  1  0.95910000  0.09690000  0.67490000  1
  H  H524  1  0.32510000  0.73090000  0.04090000  1
  H  H525  1  0.09690000  0.95910000  0.26910000  1
  H  H526  1  0.32510000  0.73090000  0.90310000  1
  H  H527  1  0.95910000  0.09690000  0.26910000  1
  N  N528  1  0.01230000  0.77090000  0.77090000  1
  N  N529  1  0.55410000  0.22910000  0.22910000  1
  N  N530  1  0.77090000  0.01230000  0.77090000  1
  N  N531  1  0.55410000  0.22910000  0.98770000  1
  N  N532  1  0.01230000  0.77090000  0.44590000  1
  N  N533  1  0.22910000  0.55410000  0.22910000  1
  N  N534  1  0.77090000  0.01230000  0.44590000  1
  N  N535  1  0.22910000  0.55410000  0.98770000  1
  N  N536  1  0.77090000  0.77090000  0.01230000  1
  N  N537  1  0.55410000  0.98770000  0.22910000  1
  N  N538  1  0.77090000  0.77090000  0.44590000  1
  N  N539  1  0.98770000  0.55410000  0.22910000  1
  N  N540  1  0.01230000  0.44590000  0.77090000  1
  N  N541  1  0.22910000  0.22910000  0.55410000  1
  N  N542  1  0.44590000  0.01230000  0.77090000  1
  N  N543  1  0.22910000  0.22910000  0.98770000  1
  N  N544  1  0.77090000  0.44590000  0.01230000  1
  N  N545  1  0.22910000  0.98770000  0.55410000  1
  N  N546  1  0.77090000  0.44590000  0.77090000  1
  N  N547  1  0.98770000  0.22910000  0.55410000  1
  N  N548  1  0.44590000  0.77090000  0.01230000  1
  N  N549  1  0.22910000  0.98770000  0.22910000  1
  N  N550  1  0.44590000  0.77090000  0.77090000  1
  N  N551  1  0.98770000  0.22910000  0.22910000  1
  Ni  Ni552  1  0.27220000  0.72780000  0.72780000  1
  Ni  Ni553  1  0.72780000  0.27220000  0.27220000  1
  Ni  Ni554  1  0.27220000  0.72780000  0.27220000  1
  Ni  Ni555  1  0.72780000  0.27220000  0.72780000  1
  Ni  Ni556  1  0.92975000  0.81227000  0.81227000  1
  Ni  Ni557  1  0.55429000  0.18773000  0.18773000  1
  Ni  Ni558  1  0.81227000  0.92975000  0.81227000  1
  Ni  Ni559  1  0.55429000  0.18773000  0.07025000  1
  Ni  Ni560  1  0.92975000  0.81227000  0.44571000  1
  Ni  Ni561  1  0.18773000  0.55429000  0.18773000  1
  Ni  Ni562  1  0.81227000  0.92975000  0.44571000  1
  Ni  Ni563  1  0.18773000  0.55429000  0.07025000  1
  Ni  Ni564  1  0.81227000  0.81227000  0.92975000  1
  Ni  Ni565  1  0.55429000  0.07025000  0.18773000  1
  Ni  Ni566  1  0.81227000  0.81227000  0.44571000  1
  Ni  Ni567  1  0.07025000  0.55429000  0.18773000  1
  Ni  Ni568  1  0.27220000  0.27220000  0.72780000  1
  Ni  Ni569  1  0.72780000  0.72780000  0.27220000  1
  Ni  Ni570  1  0.92975000  0.44571000  0.81227000  1
  Ni  Ni571  1  0.18773000  0.18773000  0.55429000  1
  Ni  Ni572  1  0.44571000  0.92975000  0.81227000  1
  Ni  Ni573  1  0.18773000  0.18773000  0.07025000  1
  Ni  Ni574  1  0.81227000  0.44571000  0.92975000  1
  Ni  Ni575  1  0.18773000  0.07025000  0.55429000  1
  Ni  Ni576  1  0.81227000  0.44571000  0.81227000  1
  Ni  Ni577  1  0.07025000  0.18773000  0.55429000  1
  Ni  Ni578  1  0.44571000  0.81227000  0.92975000  1
  Ni  Ni579  1  0.18773000  0.07025000  0.18773000  1
  Ni  Ni580  1  0.44571000  0.81227000  0.81227000  1
  Ni  Ni581  1  0.07025000  0.18773000  0.18773000  1
  O  O582  1  0.20290000  0.73110000  0.73110000  1
  O  O583  1  0.66510000  0.26890000  0.26890000  1
  O  O584  1  0.20290000  0.73110000  0.33490000  1
  O  O585  1  0.26890000  0.66510000  0.26890000  1
  O  O586  1  0.73110000  0.20290000  0.73110000  1
  O  O587  1  0.66510000  0.26890000  0.79710000  1
  O  O588  1  0.73110000  0.20290000  0.33490000  1
  O  O589  1  0.26890000  0.66510000  0.79710000  1
  O  O590  1  0.14630000  0.77810000  0.77810000  1
  O  O591  1  0.70250000  0.22190000  0.22190000  1
  O  O592  1  0.77810000  0.14630000  0.77810000  1
  O  O593  1  0.70250000  0.22190000  0.85370000  1
  O  O594  1  0.14630000  0.77810000  0.29750000  1
  O  O595  1  0.22190000  0.70250000  0.22190000  1
  O  O596  1  0.77810000  0.14630000  0.29750000  1
  O  O597  1  0.22190000  0.70250000  0.85370000  1
  O  O598  1  0.95460000  0.87866000  0.78124000  1
  O  O599  1  0.61450000  0.21876000  0.12134000  1
  O  O600  1  0.87866000  0.95460000  0.78124000  1
  O  O601  1  0.61450000  0.21876000  0.04540000  1
  O  O602  1  0.95460000  0.87866000  0.38550000  1
  O  O603  1  0.21876000  0.61450000  0.12134000  1
  O  O604  1  0.87866000  0.95460000  0.38550000  1
  O  O605  1  0.21876000  0.61450000  0.04540000  1
  O  O606  1  0.91310000  0.83878000  0.74162000  1
  O  O607  1  0.49350000  0.25838000  0.16122000  1
  O  O608  1  0.83878000  0.91310000  0.74162000  1
  O  O609  1  0.49350000  0.25838000  0.08690000  1
  O  O610  1  0.91310000  0.83878000  0.50650000  1
  O  O611  1  0.25838000  0.49350000  0.16122000  1
  O  O612  1  0.83878000  0.91310000  0.50650000  1
  O  O613  1  0.25838000  0.49350000  0.08690000  1
  O  O614  1  0.95460000  0.78124000  0.87866000  1
  O  O615  1  0.61450000  0.12134000  0.21876000  1
  O  O616  1  0.78124000  0.95460000  0.87866000  1
  O  O617  1  0.61450000  0.12134000  0.04540000  1
  O  O618  1  0.95460000  0.78124000  0.38550000  1
  O  O619  1  0.12134000  0.61450000  0.21876000  1
  O  O620  1  0.78124000  0.95460000  0.38550000  1
  O  O621  1  0.12134000  0.61450000  0.04540000  1
  O  O622  1  0.85341000  0.85341000  0.85341000  1
  O  O623  1  0.56023000  0.14659000  0.14659000  1
  O  O624  1  0.85341000  0.85341000  0.43977000  1
  O  O625  1  0.14659000  0.56023000  0.14659000  1
  O  O626  1  0.87866000  0.78124000  0.95460000  1
  O  O627  1  0.61450000  0.04540000  0.21876000  1
  O  O628  1  0.78124000  0.87866000  0.95460000  1
  O  O629  1  0.61450000  0.04540000  0.12134000  1
  O  O630  1  0.87866000  0.78124000  0.38550000  1
  O  O631  1  0.04540000  0.61450000  0.21876000  1
  O  O632  1  0.78124000  0.87866000  0.38550000  1
  O  O633  1  0.04540000  0.61450000  0.12134000  1
  O  O634  1  0.91310000  0.74162000  0.83878000  1
  O  O635  1  0.49350000  0.16122000  0.25838000  1
  O  O636  1  0.74162000  0.91310000  0.83878000  1
  O  O637  1  0.49350000  0.16122000  0.08690000  1
  O  O638  1  0.91310000  0.74162000  0.50650000  1
  O  O639  1  0.16122000  0.49350000  0.25838000  1
  O  O640  1  0.74162000  0.91310000  0.50650000  1
  O  O641  1  0.16122000  0.49350000  0.08690000  1
  O  O642  1  0.83878000  0.74162000  0.91310000  1
  O  O643  1  0.49350000  0.08690000  0.25838000  1
  O  O644  1  0.74162000  0.83878000  0.91310000  1
  O  O645  1  0.49350000  0.08690000  0.16122000  1
  O  O646  1  0.83878000  0.74162000  0.50650000  1
  O  O647  1  0.08690000  0.49350000  0.25838000  1
  O  O648  1  0.74162000  0.83878000  0.50650000  1
  O  O649  1  0.08690000  0.49350000  0.16122000  1
  O  O650  1  0.77810000  0.77810000  0.14630000  1
  O  O651  1  0.70250000  0.85370000  0.22190000  1
  O  O652  1  0.77810000  0.77810000  0.29750000  1
  O  O653  1  0.85370000  0.70250000  0.22190000  1
  O  O654  1  0.20290000  0.33490000  0.73110000  1
  O  O655  1  0.26890000  0.26890000  0.66510000  1
  O  O656  1  0.33490000  0.20290000  0.73110000  1
  O  O657  1  0.26890000  0.26890000  0.79710000  1
  O  O658  1  0.73110000  0.73110000  0.20290000  1
  O  O659  1  0.66510000  0.79710000  0.26890000  1
  O  O660  1  0.73110000  0.73110000  0.33490000  1
  O  O661  1  0.79710000  0.66510000  0.26890000  1
  O  O662  1  0.14630000  0.29750000  0.77810000  1
  O  O663  1  0.22190000  0.22190000  0.70250000  1
  O  O664  1  0.29750000  0.14630000  0.77810000  1
  O  O665  1  0.22190000  0.22190000  0.85370000  1
  O  O666  1  0.91310000  0.50650000  0.83878000  1
  O  O667  1  0.25838000  0.16122000  0.49350000  1
  O  O668  1  0.91310000  0.50650000  0.74162000  1
  O  O669  1  0.16122000  0.25838000  0.49350000  1
  O  O670  1  0.50650000  0.91310000  0.83878000  1
  O  O671  1  0.25838000  0.16122000  0.08690000  1
  O  O672  1  0.50650000  0.91310000  0.74162000  1
  O  O673  1  0.16122000  0.25838000  0.08690000  1
  O  O674  1  0.83878000  0.50650000  0.91310000  1
  O  O675  1  0.25838000  0.08690000  0.49350000  1
  O  O676  1  0.83878000  0.50650000  0.74162000  1
  O  O677  1  0.08690000  0.25838000  0.49350000  1
  O  O678  1  0.50650000  0.83878000  0.91310000  1
  O  O679  1  0.25838000  0.08690000  0.16122000  1
  O  O680  1  0.50650000  0.83878000  0.74162000  1
  O  O681  1  0.08690000  0.25838000  0.16122000  1
  O  O682  1  0.95460000  0.38550000  0.87866000  1
  O  O683  1  0.21876000  0.12134000  0.61450000  1
  O  O684  1  0.95460000  0.38550000  0.78124000  1
  O  O685  1  0.12134000  0.21876000  0.61450000  1
  O  O686  1  0.38550000  0.95460000  0.87866000  1
  O  O687  1  0.21876000  0.12134000  0.04540000  1
  O  O688  1  0.38550000  0.95460000  0.78124000  1
  O  O689  1  0.12134000  0.21876000  0.04540000  1
  O  O690  1  0.85341000  0.43977000  0.85341000  1
  O  O691  1  0.14659000  0.14659000  0.56023000  1
  O  O692  1  0.43977000  0.85341000  0.85341000  1
  O  O693  1  0.14659000  0.14659000  0.14659000  1
  O  O694  1  0.87866000  0.38550000  0.95460000  1
  O  O695  1  0.21876000  0.04540000  0.61450000  1
  O  O696  1  0.87866000  0.38550000  0.78124000  1
  O  O697  1  0.04540000  0.21876000  0.61450000  1
  O  O698  1  0.38550000  0.87866000  0.95460000  1
  O  O699  1  0.21876000  0.04540000  0.12134000  1
  O  O700  1  0.38550000  0.87866000  0.78124000  1
  O  O701  1  0.04540000  0.21876000  0.12134000  1
  O  O702  1  0.74162000  0.50650000  0.91310000  1
  O  O703  1  0.16122000  0.08690000  0.49350000  1
  O  O704  1  0.74162000  0.50650000  0.83878000  1
  O  O705  1  0.08690000  0.16122000  0.49350000  1
  O  O706  1  0.50650000  0.74162000  0.91310000  1
  O  O707  1  0.16122000  0.08690000  0.25838000  1
  O  O708  1  0.50650000  0.74162000  0.83878000  1
  O  O709  1  0.08690000  0.16122000  0.25838000  1
  O  O710  1  0.78124000  0.38550000  0.95460000  1
  O  O711  1  0.12134000  0.04540000  0.61450000  1
  O  O712  1  0.78124000  0.38550000  0.87866000  1
  O  O713  1  0.04540000  0.12134000  0.61450000  1
  O  O714  1  0.38550000  0.78124000  0.95460000  1
  O  O715  1  0.12134000  0.04540000  0.21876000  1
  O  O716  1  0.38550000  0.78124000  0.87866000  1
  O  O717  1  0.04540000  0.12134000  0.21876000  1
  O  O718  1  0.77810000  0.29750000  0.14630000  1
  O  O719  1  0.22190000  0.85370000  0.70250000  1
  O  O720  1  0.77810000  0.29750000  0.77810000  1
  O  O721  1  0.85370000  0.22190000  0.70250000  1
  O  O722  1  0.29750000  0.77810000  0.14630000  1
  O  O723  1  0.22190000  0.85370000  0.22190000  1
  O  O724  1  0.29750000  0.77810000  0.77810000  1
  O  O725  1  0.85370000  0.22190000  0.22190000  1
  O  O726  1  0.73110000  0.33490000  0.20290000  1
  O  O727  1  0.26890000  0.79710000  0.66510000  1
  O  O728  1  0.33490000  0.73110000  0.20290000  1
  O  O729  1  0.26890000  0.79710000  0.26890000  1
  O  O730  1  0.73110000  0.33490000  0.73110000  1
  O  O731  1  0.79710000  0.26890000  0.66510000  1
  O  O732  1  0.33490000  0.73110000  0.73110000  1
  O  O733  1  0.79710000  0.26890000  0.26890000  1
