# generated using pymatgen
data_Zn2H5C14(NO4)2
_symmetry_space_group_name_H-M   'P 1'
_cell_length_a   14.47110000
_cell_length_b   14.61610000
_cell_length_c   17.87450000
_cell_angle_alpha   90.00000000
_cell_angle_beta   90.23800000
_cell_angle_gamma   90.00000000
_symmetry_Int_Tables_number   1
_chemical_formula_structural   Zn2H5C14(NO4)2
_chemical_formula_sum   'Zn16 H40 C112 N16 O64'
_cell_volume   3780.62155160
_cell_formula_units_Z   8
loop_
 _symmetry_equiv_pos_site_id
 _symmetry_equiv_pos_as_xyz
  1  'x, y, z'
loop_
 _atom_site_type_symbol
 _atom_site_label
 _atom_site_symmetry_multiplicity
 _atom_site_fract_x
 _atom_site_fract_y
 _atom_site_fract_z
 _atom_site_occupancy
  Zn  Zn0  1  0.11157000  0.63407000  0.67811000  1
  Zn  Zn1  1  0.11157000  0.86593000  0.17811000  1
  Zn  Zn2  1  0.15721000  0.59857000  0.96896000  1
  Zn  Zn3  1  0.15721000  0.90143000  0.46896000  1
  Zn  Zn4  1  0.35165000  0.10723000  0.03138000  1
  Zn  Zn5  1  0.35165000  0.39277000  0.53138000  1
  Zn  Zn6  1  0.38712000  0.15404000  0.31469000  1
  Zn  Zn7  1  0.38712000  0.34596000  0.81469000  1
  Zn  Zn8  1  0.61288000  0.65404000  0.18531000  1
  Zn  Zn9  1  0.61288000  0.84596000  0.68531000  1
  Zn  Zn10  1  0.64835000  0.60723000  0.46862000  1
  Zn  Zn11  1  0.64835000  0.89277000  0.96862000  1
  Zn  Zn12  1  0.84279000  0.09857000  0.53104000  1
  Zn  Zn13  1  0.84279000  0.40143000  0.03104000  1
  Zn  Zn14  1  0.88843000  0.13407000  0.82189000  1
  Zn  Zn15  1  0.88843000  0.36593000  0.32189000  1
  H  H16  1  0.06860000  0.69340000  0.26980000  1
  H  H17  1  0.06860000  0.80660000  0.76980000  1
  H  H18  1  0.07430000  0.24310000  0.60490000  1
  H  H19  1  0.07430000  0.25690000  0.10490000  1
  H  H20  1  0.12120000  0.55000000  0.29390000  1
  H  H21  1  0.12120000  0.95000000  0.79390000  1
  H  H22  1  0.20440000  0.05710000  0.84670000  1
  H  H23  1  0.20440000  0.44290000  0.34670000  1
  H  H24  1  0.26350000  0.19790000  0.87070000  1
  H  H25  1  0.26350000  0.30210000  0.37070000  1
  H  H26  1  0.28180000  0.74710000  0.14830000  1
  H  H27  1  0.28180000  0.75290000  0.64830000  1
  H  H28  1  0.34400000  0.60680000  0.17260000  1
  H  H29  1  0.34400000  0.89320000  0.67260000  1
  H  H30  1  0.36750000  0.04360000  0.67040000  1
  H  H31  1  0.36750000  0.45640000  0.17040000  1
  H  H32  1  0.37520000  0.72550000  0.37010000  1
  H  H33  1  0.37520000  0.77450000  0.87010000  1
  H  H34  1  0.42010000  0.18600000  0.69840000  1
  H  H35  1  0.42010000  0.31400000  0.19840000  1
  H  H36  1  0.57990000  0.68600000  0.80160000  1
  H  H37  1  0.57990000  0.81400000  0.30160000  1
  H  H38  1  0.62480000  0.22550000  0.12990000  1
  H  H39  1  0.62480000  0.27450000  0.62990000  1
  H  H40  1  0.63250000  0.54360000  0.82960000  1
  H  H41  1  0.63250000  0.95640000  0.32960000  1
  H  H42  1  0.65600000  0.10680000  0.32740000  1
  H  H43  1  0.65600000  0.39320000  0.82740000  1
  H  H44  1  0.71820000  0.24710000  0.35170000  1
  H  H45  1  0.71820000  0.25290000  0.85170000  1
  H  H46  1  0.73650000  0.69790000  0.62930000  1
  H  H47  1  0.73650000  0.80210000  0.12930000  1
  H  H48  1  0.79560000  0.55710000  0.65330000  1
  H  H49  1  0.79560000  0.94290000  0.15330000  1
  H  H50  1  0.87880000  0.05000000  0.20610000  1
  H  H51  1  0.87880000  0.45000000  0.70610000  1
  H  H52  1  0.92570000  0.74310000  0.89510000  1
  H  H53  1  0.92570000  0.75690000  0.39510000  1
  H  H54  1  0.93140000  0.19340000  0.23020000  1
  H  H55  1  0.93140000  0.30660000  0.73020000  1
  C  C56  1  0.03160000  0.61550000  0.83744000  1
  C  C57  1  0.03160000  0.88450000  0.33744000  1
  C  C58  1  0.03180000  0.56773000  0.09314000  1
  C  C59  1  0.03180000  0.93227000  0.59314000  1
  C  C60  1  0.04631000  0.10786000  0.60811000  1
  C  C61  1  0.04631000  0.39214000  0.10811000  1
  C  C62  1  0.07191000  0.02596000  0.57458000  1
  C  C63  1  0.07191000  0.47404000  0.07458000  1
  C  C64  1  0.08970000  0.18728000  0.58323000  1
  C  C65  1  0.08970000  0.31272000  0.08323000  1
  C  C66  1  0.12440000  0.67540000  0.24870000  1
  C  C67  1  0.12440000  0.82460000  0.74870000  1
  C  C68  1  0.15480000  0.18517000  0.52755000  1
  C  C69  1  0.15480000  0.31483000  0.02755000  1
  C  C70  1  0.15630000  0.58900000  0.26440000  1
  C  C71  1  0.15630000  0.91100000  0.76440000  1
  C  C72  1  0.17650000  0.10052000  0.49568000  1
  C  C73  1  0.17650000  0.39948000  0.99568000  1
  C  C74  1  0.20070000  0.22611000  0.00574000  1
  C  C75  1  0.20070000  0.27389000  0.50574000  1
  C  C76  1  0.22760000  0.73086000  0.45840000  1
  C  C77  1  0.22760000  0.76914000  0.95840000  1
  C  C78  1  0.23940000  0.55980000  0.23680000  1
  C  C79  1  0.23940000  0.94020000  0.73680000  1
  C  C80  1  0.24312000  0.55993000  0.55980000  1
  C  C81  1  0.24312000  0.94007000  0.05980000  1
  C  C82  1  0.24506000  0.08247000  0.43346000  1
  C  C83  1  0.24506000  0.41753000  0.93346000  1
  C  C84  1  0.24800000  0.08180000  0.81440000  1
  C  C85  1  0.24800000  0.41820000  0.31440000  1
  C  C86  1  0.24890000  0.70690000  0.17850000  1
  C  C87  1  0.24890000  0.79310000  0.67850000  1
  C  C88  1  0.27640000  0.03280000  0.75325000  1
  C  C89  1  0.27640000  0.46720000  0.25325000  1
  C  C90  1  0.28390000  0.16730000  0.82830000  1
  C  C91  1  0.28390000  0.33270000  0.32830000  1
  C  C92  1  0.28690000  0.62220000  0.19260000  1
  C  C93  1  0.28690000  0.87780000  0.69260000  1
  C  C94  1  0.30240000  0.57943000  0.49189000  1
  C  C95  1  0.30240000  0.92057000  0.99189000  1
  C  C96  1  0.30272000  0.65986000  0.45044000  1
  C  C97  1  0.30272000  0.84014000  0.95044000  1
  C  C98  1  0.34310000  0.07420000  0.71140000  1
  C  C99  1  0.34310000  0.42580000  0.21140000  1
  C  C100  1  0.37200000  0.67137000  0.39727000  1
  C  C101  1  0.37200000  0.82863000  0.89727000  1
  C  C102  1  0.37490000  0.16050000  0.72870000  1
  C  C103  1  0.37490000  0.33950000  0.22870000  1
  C  C104  1  0.42563000  0.52006000  0.42306000  1
  C  C105  1  0.42563000  0.97994000  0.92306000  1
  C  C106  1  0.43663000  0.60202000  0.38461000  1
  C  C107  1  0.43663000  0.89798000  0.88461000  1
  C  C108  1  0.48050000  0.06718000  0.91028000  1
  C  C109  1  0.48050000  0.43282000  0.41028000  1
  C  C110  1  0.48080000  0.12202000  0.16425000  1
  C  C111  1  0.48080000  0.37798000  0.66425000  1
  C  C112  1  0.51920000  0.62202000  0.33575000  1
  C  C113  1  0.51920000  0.87798000  0.83575000  1
  C  C114  1  0.51950000  0.56718000  0.58972000  1
  C  C115  1  0.51950000  0.93282000  0.08972000  1
  C  C116  1  0.56337000  0.10202000  0.11539000  1
  C  C117  1  0.56337000  0.39798000  0.61539000  1
  C  C118  1  0.57437000  0.02006000  0.07694000  1
  C  C119  1  0.57437000  0.47994000  0.57694000  1
  C  C120  1  0.62510000  0.66050000  0.77130000  1
  C  C121  1  0.62510000  0.83950000  0.27130000  1
  C  C122  1  0.62800000  0.17137000  0.10273000  1
  C  C123  1  0.62800000  0.32863000  0.60273000  1
  C  C124  1  0.65690000  0.57420000  0.78860000  1
  C  C125  1  0.65690000  0.92580000  0.28860000  1
  C  C126  1  0.69728000  0.15986000  0.04956000  1
  C  C127  1  0.69728000  0.34014000  0.54956000  1
  C  C128  1  0.69760000  0.07943000  0.00811000  1
  C  C129  1  0.69760000  0.42057000  0.50811000  1
  C  C130  1  0.71310000  0.12220000  0.30740000  1
  C  C131  1  0.71310000  0.37780000  0.80740000  1
  C  C132  1  0.71610000  0.66730000  0.67170000  1
  C  C133  1  0.71610000  0.83270000  0.17170000  1
  C  C134  1  0.72360000  0.53280000  0.74675000  1
  C  C135  1  0.72360000  0.96720000  0.24675000  1
  C  C136  1  0.75110000  0.20690000  0.32150000  1
  C  C137  1  0.75110000  0.29310000  0.82150000  1
  C  C138  1  0.75200000  0.58180000  0.68560000  1
  C  C139  1  0.75200000  0.91820000  0.18560000  1
  C  C140  1  0.75494000  0.58247000  0.06654000  1
  C  C141  1  0.75494000  0.91753000  0.56654000  1
  C  C142  1  0.75688000  0.05993000  0.94020000  1
  C  C143  1  0.75688000  0.44007000  0.44020000  1
  C  C144  1  0.76060000  0.05980000  0.26320000  1
  C  C145  1  0.76060000  0.44020000  0.76320000  1
  C  C146  1  0.77240000  0.23086000  0.04160000  1
  C  C147  1  0.77240000  0.26914000  0.54160000  1
  C  C148  1  0.79930000  0.72611000  0.49426000  1
  C  C149  1  0.79930000  0.77389000  0.99426000  1
  C  C150  1  0.82350000  0.60052000  0.00432000  1
  C  C151  1  0.82350000  0.89948000  0.50432000  1
  C  C152  1  0.84370000  0.08900000  0.23560000  1
  C  C153  1  0.84370000  0.41100000  0.73560000  1
  C  C154  1  0.84520000  0.68517000  0.97245000  1
  C  C155  1  0.84520000  0.81483000  0.47245000  1
  C  C156  1  0.87560000  0.17540000  0.25130000  1
  C  C157  1  0.87560000  0.32460000  0.75130000  1
  C  C158  1  0.91030000  0.68728000  0.91677000  1
  C  C159  1  0.91030000  0.81272000  0.41677000  1
  C  C160  1  0.92809000  0.52596000  0.92542000  1
  C  C161  1  0.92809000  0.97404000  0.42542000  1
  C  C162  1  0.95369000  0.60786000  0.89189000  1
  C  C163  1  0.95369000  0.89214000  0.39189000  1
  C  C164  1  0.96820000  0.06773000  0.40686000  1
  C  C165  1  0.96820000  0.43227000  0.90686000  1
  C  C166  1  0.96840000  0.11550000  0.66256000  1
  C  C167  1  0.96840000  0.38450000  0.16256000  1
  N  N168  1  0.13497000  0.02437000  0.52056000  1
  N  N169  1  0.13497000  0.47563000  0.02056000  1
  N  N170  1  0.16812000  0.73494000  0.20528000  1
  N  N171  1  0.16812000  0.76506000  0.70528000  1
  N  N172  1  0.34506000  0.20897000  0.78564000  1
  N  N173  1  0.34506000  0.29103000  0.28564000  1
  N  N174  1  0.36111000  0.51204000  0.47571000  1
  N  N175  1  0.36111000  0.98796000  0.97571000  1
  N  N176  1  0.63889000  0.01204000  0.02429000  1
  N  N177  1  0.63889000  0.48796000  0.52429000  1
  N  N178  1  0.65494000  0.70897000  0.71436000  1
  N  N179  1  0.65494000  0.79103000  0.21436000  1
  N  N180  1  0.83188000  0.23494000  0.29472000  1
  N  N181  1  0.83188000  0.26506000  0.79472000  1
  N  N182  1  0.86503000  0.52437000  0.97944000  1
  N  N183  1  0.86503000  0.97563000  0.47944000  1
  O  O184  1  0.01446000  0.63152000  0.77048000  1
  O  O185  1  0.01446000  0.86848000  0.27048000  1
  O  O186  1  0.02446000  0.07267000  0.35641000  1
  O  O187  1  0.02446000  0.42733000  0.85641000  1
  O  O188  1  0.06109000  0.63333000  0.05218000  1
  O  O189  1  0.06109000  0.86667000  0.55218000  1
  O  O190  1  0.11178000  0.61053000  0.86489000  1
  O  O191  1  0.11178000  0.88947000  0.36489000  1
  O  O192  1  0.14799000  0.71013000  0.44340000  1
  O  O193  1  0.14799000  0.78987000  0.94340000  1
  O  O194  1  0.15659000  0.16677000  0.97262000  1
  O  O195  1  0.15659000  0.33323000  0.47262000  1
  O  O196  1  0.19966000  0.62654000  0.58610000  1
  O  O197  1  0.19966000  0.87346000  0.08610000  1
  O  O198  1  0.24448000  0.02048000  0.08391000  1
  O  O199  1  0.24448000  0.47952000  0.58391000  1
  O  O200  1  0.25529000  0.68925000  0.97715000  1
  O  O201  1  0.25529000  0.81075000  0.47715000  1
  O  O202  1  0.25997000  0.50062000  0.91938000  1
  O  O203  1  0.25997000  0.99938000  0.41938000  1
  O  O204  1  0.28121000  0.14967000  0.40210000  1
  O  O205  1  0.28121000  0.35033000  0.90210000  1
  O  O206  1  0.28388000  0.22051000  0.02810000  1
  O  O207  1  0.28388000  0.27949000  0.52810000  1
  O  O208  1  0.40435000  0.13116000  0.13072000  1
  O  O209  1  0.40435000  0.36884000  0.63072000  1
  O  O210  1  0.45912000  0.13366000  0.95334000  1
  O  O211  1  0.45912000  0.36634000  0.45334000  1
  O  O212  1  0.46097000  0.56722000  0.63858000  1
  O  O213  1  0.46097000  0.93278000  0.13858000  1
  O  O214  1  0.49231000  0.13363000  0.23185000  1
  O  O215  1  0.49231000  0.36637000  0.73185000  1
  O  O216  1  0.50769000  0.63363000  0.26815000  1
  O  O217  1  0.50769000  0.86637000  0.76815000  1
  O  O218  1  0.53903000  0.06722000  0.86142000  1
  O  O219  1  0.53903000  0.43278000  0.36142000  1
  O  O220  1  0.54088000  0.63366000  0.54666000  1
  O  O221  1  0.54088000  0.86634000  0.04666000  1
  O  O222  1  0.59565000  0.63116000  0.36928000  1
  O  O223  1  0.59565000  0.86884000  0.86928000  1
  O  O224  1  0.71612000  0.72051000  0.47190000  1
  O  O225  1  0.71612000  0.77949000  0.97190000  1
  O  O226  1  0.71879000  0.64967000  0.09790000  1
  O  O227  1  0.71879000  0.85033000  0.59790000  1
  O  O228  1  0.74003000  0.00062000  0.58062000  1
  O  O229  1  0.74003000  0.49938000  0.08062000  1
  O  O230  1  0.74471000  0.18925000  0.52285000  1
  O  O231  1  0.74471000  0.31075000  0.02285000  1
  O  O232  1  0.75552000  0.52048000  0.41609000  1
  O  O233  1  0.75552000  0.97952000  0.91609000  1
  O  O234  1  0.80034000  0.12654000  0.91390000  1
  O  O235  1  0.80034000  0.37346000  0.41390000  1
  O  O236  1  0.84341000  0.66677000  0.52738000  1
  O  O237  1  0.84341000  0.83323000  0.02738000  1
  O  O238  1  0.85201000  0.21013000  0.05660000  1
  O  O239  1  0.85201000  0.28987000  0.55660000  1
  O  O240  1  0.88822000  0.11053000  0.63511000  1
  O  O241  1  0.88822000  0.38947000  0.13511000  1
  O  O242  1  0.93891000  0.13333000  0.44782000  1
  O  O243  1  0.93891000  0.36667000  0.94782000  1
  O  O244  1  0.97554000  0.57267000  0.14359000  1
  O  O245  1  0.97554000  0.92733000  0.64359000  1
  O  O246  1  0.98554000  0.13152000  0.72952000  1
  O  O247  1  0.98554000  0.36848000  0.22952000  1
