# generated using pymatgen
data_DyP4H8Ru2(C2O7)2
_symmetry_space_group_name_H-M   'P 1'
_cell_length_a   9.61160000
_cell_length_b   9.61160000
_cell_length_c   15.54800000
_cell_angle_alpha   92.93020000
_cell_angle_beta   92.93020000
_cell_angle_gamma   99.07450000
_symmetry_Int_Tables_number   1
_chemical_formula_structural   DyP4H8Ru2(C2O7)2
_chemical_formula_sum   'Dy2 P8 H16 Ru4 C8 O28'
_cell_volume   1413.98375217
_cell_formula_units_Z   2
loop_
 _symmetry_equiv_pos_site_id
 _symmetry_equiv_pos_as_xyz
  1  'x, y, z'
loop_
 _atom_site_type_symbol
 _atom_site_label
 _atom_site_symmetry_multiplicity
 _atom_site_fract_x
 _atom_site_fract_y
 _atom_site_fract_z
 _atom_site_occupancy
  Dy  Dy0  1  0.01085000  0.98915000  0.25000000  1
  Dy  Dy1  1  0.98915000  0.01085000  0.75000000  1
  P  P2  1  0.65150000  0.97608000  0.15429000  1
  P  P3  1  0.64607000  0.95517000  0.85443000  1
  P  P4  1  0.97608000  0.65150000  0.65429000  1
  P  P5  1  0.95517000  0.64607000  0.35443000  1
  P  P6  1  0.04483000  0.35393000  0.64557000  1
  P  P7  1  0.02392000  0.34850000  0.34571000  1
  P  P8  1  0.35393000  0.04483000  0.14557000  1
  P  P9  1  0.34850000  0.02392000  0.84571000  1
  H  H10  1  0.36570000  0.86890000  0.68510000  1
  H  H11  1  0.52480000  0.83920000  0.68530000  1
  H  H12  1  0.42200000  0.82400000  0.23000000  1
  H  H13  1  0.42210000  0.77170000  0.75530000  1
  H  H14  1  0.13110000  0.63430000  0.81490000  1
  H  H15  1  0.17600000  0.57800000  0.27000000  1
  H  H16  1  0.22830000  0.57790000  0.74470000  1
  H  H17  1  0.83920000  0.52480000  0.18530000  1
  H  H18  1  0.16080000  0.47520000  0.81470000  1
  H  H19  1  0.77170000  0.42210000  0.25530000  1
  H  H20  1  0.82400000  0.42200000  0.73000000  1
  H  H21  1  0.86890000  0.36570000  0.18510000  1
  H  H22  1  0.57790000  0.22830000  0.24470000  1
  H  H23  1  0.57800000  0.17600000  0.77000000  1
  H  H24  1  0.47520000  0.16080000  0.31470000  1
  H  H25  1  0.63430000  0.13110000  0.31490000  1
  Ru  Ru26  1  0.45448000  0.87840000  0.99798000  1
  Ru  Ru27  1  0.12160000  0.54552000  0.50202000  1
  Ru  Ru28  1  0.87840000  0.45448000  0.49798000  1
  Ru  Ru29  1  0.54552000  0.12160000  0.00202000  1
  C  C30  1  0.49370000  0.98090000  0.78110000  1
  C  C31  1  0.44760000  0.85440000  0.72160000  1
  C  C32  1  0.14560000  0.55240000  0.77840000  1
  C  C33  1  0.01910000  0.50630000  0.71890000  1
  C  C34  1  0.98090000  0.49370000  0.28110000  1
  C  C35  1  0.85440000  0.44760000  0.22160000  1
  C  C36  1  0.55240000  0.14560000  0.27840000  1
  C  C37  1  0.50630000  0.01910000  0.21890000  1
  O  O38  1  0.77220000  0.95440000  0.21440000  1
  O  O39  1  0.76580000  0.92420000  0.80010000  1
  O  O40  1  0.31000000  0.90920000  0.08630000  1
  O  O41  1  0.44960000  0.89960000  0.26780000  1
  O  O42  1  0.30810000  0.89610000  0.90140000  1
  O  O43  1  0.59530000  0.84310000  0.09460000  1
  O  O44  1  0.59160000  0.83160000  0.91060000  1
  O  O45  1  0.95440000  0.77220000  0.71440000  1
  O  O46  1  0.92420000  0.76580000  0.30010000  1
  O  O47  1  0.10390000  0.69190000  0.59860000  1
  O  O48  1  0.09080000  0.69000000  0.41370000  1
  O  O49  1  0.84310000  0.59530000  0.59460000  1
  O  O50  1  0.83160000  0.59160000  0.41060000  1
  O  O51  1  0.10040000  0.55040000  0.23220000  1
  O  O52  1  0.89960000  0.44960000  0.76780000  1
  O  O53  1  0.16840000  0.40840000  0.58940000  1
  O  O54  1  0.15690000  0.40470000  0.40540000  1
  O  O55  1  0.90920000  0.31000000  0.58630000  1
  O  O56  1  0.89610000  0.30810000  0.40140000  1
  O  O57  1  0.07580000  0.23420000  0.69990000  1
  O  O58  1  0.04560000  0.22780000  0.28560000  1
  O  O59  1  0.40840000  0.16840000  0.08940000  1
  O  O60  1  0.40470000  0.15690000  0.90540000  1
  O  O61  1  0.69190000  0.10390000  0.09860000  1
  O  O62  1  0.55040000  0.10040000  0.73220000  1
  O  O63  1  0.69000000  0.09080000  0.91370000  1
  O  O64  1  0.23420000  0.07580000  0.19990000  1
  O  O65  1  0.22780000  0.04560000  0.78560000  1
