# generated using pymatgen
data_FeC7O5
_symmetry_space_group_name_H-M   'P 1'
_cell_length_a   8.66400000
_cell_length_b   8.66400000
_cell_length_c   10.86100000
_cell_angle_alpha   90.00000000
_cell_angle_beta   90.00000000
_cell_angle_gamma   120.00000000
_symmetry_Int_Tables_number   1
_chemical_formula_structural   FeC7O5
_chemical_formula_sum   'Fe3 C21 O15'
_cell_volume   706.05304870
_cell_formula_units_Z   3
loop_
 _symmetry_equiv_pos_site_id
 _symmetry_equiv_pos_as_xyz
  1  'x, y, z'
loop_
 _atom_site_type_symbol
 _atom_site_label
 _atom_site_symmetry_multiplicity
 _atom_site_fract_x
 _atom_site_fract_y
 _atom_site_fract_z
 _atom_site_occupancy
  Fe  Fe0  1  0.94403000  1.00000000  1.00000000  1
  Fe  Fe1  1  0.05597000  0.05597000  0.66666667  1
  Fe  Fe2  1  0.00000000  0.94403000  0.33333333  1
  C  C3  1  0.00000000  0.26950000  0.83333000  1
  C  C4  1  0.00000000  0.75580000  0.83333000  1
  C  C5  1  0.94249000  0.47836000  0.93990000  1
  C  C6  1  0.94006000  0.31488000  0.93784000  1
  C  C7  1  0.75580000  1.00000000  0.50000000  1
  C  C8  1  0.73050000  0.73050000  0.16667000  1
  C  C9  1  0.68512000  0.62518000  0.27117000  1
  C  C10  1  0.62518000  0.68512000  0.06216000  1
  C  C11  1  0.58218000  1.00000000  0.50000000  1
  C  C12  1  0.53587000  0.05751000  0.60656000  1
  C  C13  1  0.52164000  0.46413000  0.27323000  1
  C  C14  1  0.47836000  0.94249000  0.39344000  1
  C  C15  1  0.46413000  0.52164000  0.06010000  1
  C  C16  1  0.41782000  0.41782000  0.16667000  1
  C  C17  1  0.37482000  0.05994000  0.60450000  1
  C  C18  1  0.31488000  0.94006000  0.39550000  1
  C  C19  1  0.26950000  1.00000000  0.50000000  1
  C  C20  1  0.24420000  0.24420000  0.16667000  1
  C  C21  1  0.05994000  0.37482000  0.72883000  1
  C  C22  1  0.05751000  0.53587000  0.72677000  1
  C  C23  1  0.00000000  0.58218000  0.83333000  1
  O  O24  1  0.00000000  0.11330000  0.83333000  1
  O  O25  1  0.97792000  0.81124000  0.73204000  1
  O  O26  1  0.88670000  0.88670000  0.16667000  1
  O  O27  1  0.88208000  0.19387000  0.02960000  1
  O  O28  1  0.83332000  0.02208000  0.39870000  1
  O  O29  1  0.81124000  0.97792000  0.60130000  1
  O  O30  1  0.80613000  0.68821000  0.36293000  1
  O  O31  1  0.68821000  0.80613000  0.97040000  1
  O  O32  1  0.31179000  0.11792000  0.69626000  1
  O  O33  1  0.19387000  0.88208000  0.30374000  1
  O  O34  1  0.18876000  0.16668000  0.06537000  1
  O  O35  1  0.16668000  0.18876000  0.26796000  1
  O  O36  1  0.11792000  0.31179000  0.63707000  1
  O  O37  1  0.11330000  1.00000000  0.50000000  1
  O  O38  1  0.02208000  0.83332000  0.93463000  1
