# generated using pymatgen
data_CuH10C16(NO)4
_symmetry_space_group_name_H-M   'P 1'
_cell_length_a   11.80740000
_cell_length_b   12.02870000
_cell_length_c   12.58150000
_cell_angle_alpha   77.50800000
_cell_angle_beta   88.50500000
_cell_angle_gamma   62.82300000
_symmetry_Int_Tables_number   1
_chemical_formula_structural   CuH10C16(NO)4
_chemical_formula_sum   'Cu3 H30 C48 N12 O12'
_cell_volume   1546.56456773
_cell_formula_units_Z   3
loop_
 _symmetry_equiv_pos_site_id
 _symmetry_equiv_pos_as_xyz
  1  'x, y, z'
loop_
 _atom_site_type_symbol
 _atom_site_label
 _atom_site_symmetry_multiplicity
 _atom_site_fract_x
 _atom_site_fract_y
 _atom_site_fract_z
 _atom_site_occupancy
  Cu  Cu0  1  0.41290000  0.90296000  0.27391000  1
  Cu  Cu1  1  0.92878000  0.91965000  0.79521000  1
  Cu  Cu2  1  0.96266000  0.39111000  0.25823000  1
  H  H3  1  0.00850000  0.59160000  0.07270000  1
  H  H4  1  0.04270000  0.06750000  0.61040000  1
  H  H5  1  0.06030000  0.15090000  0.96590000  1
  H  H6  1  0.08530000  0.81340000  0.03950000  1
  H  H7  1  0.11020000  0.05980000  0.16220000  1
  H  H8  1  0.11230000  0.12200000  0.77660000  1
  H  H9  1  0.13820000  0.84720000  0.49850000  1
  H  H10  1  0.14390000  0.65190000  0.27310000  1
  H  H11  1  0.16380000  0.30700000  0.45510000  1
  H  H12  1  0.20590000  0.80510000  0.74750000  1
  H  H13  1  0.31590000  0.75370000  0.05760000  1
  H  H14  1  0.36060000  0.15070000  0.55630000  1
  H  H15  1  0.36200000  0.83200000  0.69530000  1
  H  H16  1  0.41300000  0.80380000  0.52110000  1
  H  H17  1  0.43700000  0.95220000  0.03140000  1
  H  H18  1  0.45610000  0.07470000  0.88170000  1
  H  H19  1  0.52570000  0.67480000  0.00240000  1
  H  H20  1  0.53540000  0.21110000  0.54480000  1
  H  H21  1  0.60520000  0.21530000  0.28080000  1
  H  H22  1  0.65630000  0.97470000  0.83140000  1
  H  H23  1  0.66550000  0.00400000  0.05810000  1
  H  H24  1  0.67030000  0.88450000  0.37900000  1
  H  H25  1  0.72240000  0.83340000  0.58020000  1
  H  H26  1  0.72820000  0.50440000  0.08840000  1
  H  H27  1  0.74230000  0.69780000  0.75050000  1
  H  H28  1  0.76180000  0.13510000  0.56850000  1
  H  H29  1  0.86420000  0.19720000  0.06400000  1
  H  H30  1  0.87140000  0.71420000  0.90230000  1
  H  H31  1  0.90980000  0.68150000  0.52210000  1
  H  H32  1  0.92330000  0.16780000  0.43180000  1
  C  C33  1  0.01650000  0.65590000  0.38980000  1
  C  C34  1  0.02280000  0.76460000  0.52500000  1
  C  C35  1  0.05090000  0.12990000  0.55740000  1
  C  C36  1  0.11080000  0.79630000  0.47230000  1
  C  C37  1  0.11290000  0.68140000  0.33560000  1
  C  C38  1  0.11550000  0.26340000  0.47220000  1
  C  C39  1  0.13870000  0.80460000  0.98300000  1
  C  C40  1  0.14090000  0.10120000  0.00300000  1
  C  C41  1  0.15930000  0.75140000  0.37850000  1
  C  C42  1  0.16980000  0.05130000  0.11070000  1
  C  C43  1  0.19090000  0.11940000  0.76180000  1
  C  C44  1  0.20360000  0.80000000  0.82230000  1
  C  C45  1  0.22320000  0.14320000  0.65500000  1
  C  C46  1  0.26070000  0.77640000  0.32140000  1
  C  C47  1  0.26640000  0.77060000  0.99420000  1
  C  C48  1  0.27960000  0.09220000  0.84400000  1
  C  C49  1  0.34100000  0.13640000  0.62850000  1
  C  C50  1  0.35020000  0.99140000  0.04080000  1
  C  C51  1  0.39920000  0.08870000  0.82460000  1
  C  C52  1  0.42720000  0.74800000  0.85330000  1
  C  C53  1  0.42860000  0.10710000  0.71580000  1
  C  C54  1  0.43520000  0.79040000  0.74340000  1
  C  C55  1  0.48370000  0.81860000  0.51070000  1
  C  C56  1  0.51730000  0.06400000  0.21740000  1
  C  C57  1  0.53340000  0.69690000  0.92810000  1
  C  C58  1  0.55410000  0.77070000  0.70440000  1
  C  C59  1  0.58840000  0.15250000  0.60570000  1
  C  C60  1  0.62110000  0.10010000  0.17590000  1
  C  C61  1  0.62430000  0.86250000  0.43330000  1
  C  C62  1  0.65070000  0.18180000  0.22420000  1
  C  C63  1  0.65260000  0.67900000  0.89030000  1
  C  C64  1  0.65380000  0.83360000  0.54530000  1
  C  C65  1  0.65480000  0.02320000  0.76250000  1
  C  C66  1  0.66320000  0.71340000  0.77650000  1
  C  C67  1  0.68490000  0.05710000  0.08960000  1
  C  C68  1  0.71230000  0.11200000  0.61840000  1
  C  C69  1  0.74690000  0.21080000  0.18670000  1
  C  C70  1  0.78110000  0.09140000  0.04580000  1
  C  C71  1  0.78140000  0.29030000  0.24140000  1
  C  C72  1  0.78160000  0.54030000  0.06300000  1
  C  C73  1  0.80590000  0.16960000  0.09370000  1
  C  C74  1  0.84680000  0.05150000  0.94950000  1
  C  C75  1  0.85910000  0.65790000  0.95910000  1
  C  C76  1  0.93440000  0.58940000  0.05280000  1
  C  C77  1  0.96290000  0.58170000  0.34740000  1
  C  C78  1  0.97210000  0.69840000  0.48620000  1
  C  C79  1  0.97710000  0.80520000  0.63070000  1
  C  C80  1  0.98350000  0.18630000  0.45930000  1
  N  N81  1  0.02060000  0.27710000  0.40670000  1
  N  N82  1  0.10180000  0.82390000  0.87340000  1
  N  N83  1  0.13140000  0.17790000  0.56650000  1
  N  N84  1  0.25840000  0.06220000  0.95960000  1
  N  N85  1  0.30240000  0.98440000  0.13440000  1
  N  N86  1  0.30480000  0.76720000  0.88930000  1
  N  N87  1  0.51480000  0.85270000  0.41720000  1
  N  N88  1  0.54960000  0.09770000  0.69220000  1
  N  N89  1  0.56200000  0.80540000  0.59450000  1
  N  N90  1  0.75450000  0.02940000  0.71910000  1
  N  N91  1  0.75860000  0.62590000  0.96590000  1
  N  N92  1  0.88380000  0.51500000  0.11490000  1
  O  O93  1  0.00330000  0.88770000  0.65760000  1
  O  O94  1  0.03060000  0.50060000  0.29490000  1
  O  O95  1  0.28960000  0.85380000  0.35160000  1
  O  O96  1  0.31350000  0.71910000  0.24940000  1
  O  O97  1  0.42920000  0.13780000  0.26220000  1
  O  O98  1  0.53140000  0.96100000  0.20050000  1
  O  O99  1  0.70720000  0.35920000  0.29600000  1
  O  O100  1  0.84900000  0.60490000  0.36270000  1
  O  O101  1  0.85040000  0.94780000  0.93300000  1
  O  O102  1  0.89040000  0.28450000  0.21980000  1
  O  O103  1  0.89280000  0.10960000  0.89030000  1
  O  O104  1  0.92040000  0.75570000  0.69160000  1
