# generated using pymatgen
data_Cu3H6C12N6O7
_symmetry_space_group_name_H-M   'P 1'
_cell_length_a   21.33360000
_cell_length_b   21.33360000
_cell_length_c   21.33360000
_cell_angle_alpha   60.00000000
_cell_angle_beta   60.00000000
_cell_angle_gamma   60.00000000
_symmetry_Int_Tables_number   1
_chemical_formula_structural   Cu3H6C12N6O7
_chemical_formula_sum   'Cu24 H48 C96 N48 O56'
_cell_volume   6865.58338062
_cell_formula_units_Z   8
loop_
 _symmetry_equiv_pos_site_id
 _symmetry_equiv_pos_as_xyz
  1  'x, y, z'
loop_
 _atom_site_type_symbol
 _atom_site_label
 _atom_site_symmetry_multiplicity
 _atom_site_fract_x
 _atom_site_fract_y
 _atom_site_fract_z
 _atom_site_occupancy
  Cu  Cu0  1  0.35080000  0.79730000  0.97764000  1
  Cu  Cu1  1  0.87426000  0.35080000  0.97764000  1
  Cu  Cu2  1  0.79730000  0.87426000  0.97764000  1
  Cu  Cu3  1  0.79730000  0.35080000  0.87426000  1
  Cu  Cu4  1  0.35080000  0.97764000  0.87426000  1
  Cu  Cu5  1  0.97764000  0.79730000  0.87426000  1
  Cu  Cu6  1  0.29730000  0.37426000  0.85080000  1
  Cu  Cu7  1  0.47764000  0.29730000  0.85080000  1
  Cu  Cu8  1  0.37426000  0.47764000  0.85080000  1
  Cu  Cu9  1  0.35080000  0.87426000  0.79730000  1
  Cu  Cu10  1  0.97764000  0.35080000  0.79730000  1
  Cu  Cu11  1  0.87426000  0.97764000  0.79730000  1
  Cu  Cu12  1  0.37426000  0.29730000  0.47764000  1
  Cu  Cu13  1  0.29730000  0.85080000  0.47764000  1
  Cu  Cu14  1  0.85080000  0.37426000  0.47764000  1
  Cu  Cu15  1  0.29730000  0.47764000  0.37426000  1
  Cu  Cu16  1  0.85080000  0.29730000  0.37426000  1
  Cu  Cu17  1  0.47764000  0.85080000  0.37426000  1
  Cu  Cu18  1  0.87426000  0.79730000  0.35080000  1
  Cu  Cu19  1  0.79730000  0.97764000  0.35080000  1
  Cu  Cu20  1  0.97764000  0.87426000  0.35080000  1
  Cu  Cu21  1  0.47764000  0.37426000  0.29730000  1
  Cu  Cu22  1  0.37426000  0.85080000  0.29730000  1
  Cu  Cu23  1  0.85080000  0.47764000  0.29730000  1
  H  H24  1  0.29060000  0.22160000  0.86060000  1
  H  H25  1  0.22160000  0.62720000  0.86060000  1
  H  H26  1  0.62720000  0.29060000  0.86060000  1
  H  H27  1  0.13700000  0.51160000  0.83860000  1
  H  H28  1  0.51280000  0.13700000  0.83860000  1
  H  H29  1  0.51160000  0.51280000  0.83860000  1
  H  H30  1  0.12720000  0.36060000  0.79060000  1
  H  H31  1  0.72160000  0.12720000  0.79060000  1
  H  H32  1  0.36060000  0.72160000  0.79060000  1
  H  H33  1  0.36060000  0.12720000  0.72160000  1
  H  H34  1  0.12720000  0.79060000  0.72160000  1
  H  H35  1  0.79060000  0.36060000  0.72160000  1
  H  H36  1  0.01160000  0.01280000  0.63700000  1
  H  H37  1  0.33860000  0.01160000  0.63700000  1
  H  H38  1  0.01280000  0.33860000  0.63700000  1
  H  H39  1  0.22160000  0.29060000  0.62720000  1
  H  H40  1  0.86060000  0.22160000  0.62720000  1
  H  H41  1  0.29060000  0.86060000  0.62720000  1
  H  H42  1  0.51160000  0.13700000  0.51280000  1
  H  H43  1  0.13700000  0.83860000  0.51280000  1
  H  H44  1  0.83860000  0.51160000  0.51280000  1
  H  H45  1  0.13700000  0.51280000  0.51160000  1
  H  H46  1  0.83860000  0.13700000  0.51160000  1
  H  H47  1  0.51280000  0.83860000  0.51160000  1
  H  H48  1  0.12720000  0.72160000  0.36060000  1
  H  H49  1  0.79060000  0.12720000  0.36060000  1
  H  H50  1  0.72160000  0.79060000  0.36060000  1
  H  H51  1  0.01280000  0.01160000  0.33860000  1
  H  H52  1  0.01160000  0.63700000  0.33860000  1
  H  H53  1  0.63700000  0.01280000  0.33860000  1
  H  H54  1  0.62720000  0.22160000  0.29060000  1
  H  H55  1  0.22160000  0.86060000  0.29060000  1
  H  H56  1  0.86060000  0.62720000  0.29060000  1
  H  H57  1  0.29060000  0.62720000  0.22160000  1
  H  H58  1  0.86060000  0.29060000  0.22160000  1
  H  H59  1  0.62720000  0.86060000  0.22160000  1
  H  H60  1  0.51280000  0.51160000  0.13700000  1
  H  H61  1  0.51160000  0.83860000  0.13700000  1
  H  H62  1  0.83860000  0.51280000  0.13700000  1
  H  H63  1  0.72160000  0.36060000  0.12720000  1
  H  H64  1  0.36060000  0.79060000  0.12720000  1
  H  H65  1  0.79060000  0.72160000  0.12720000  1
  H  H66  1  0.01160000  0.33860000  0.01280000  1
  H  H67  1  0.63700000  0.01160000  0.01280000  1
  H  H68  1  0.33860000  0.63700000  0.01280000  1
  H  H69  1  0.33860000  0.01280000  0.01160000  1
  H  H70  1  0.01280000  0.63700000  0.01160000  1
  H  H71  1  0.63700000  0.33860000  0.01160000  1
  C  C72  1  0.02530000  0.34310000  0.96130000  1
  C  C73  1  0.67030000  0.02530000  0.96130000  1
  C  C74  1  0.34310000  0.67030000  0.96130000  1
  C  C75  1  0.15890000  0.35130000  0.91010000  1
  C  C76  1  0.57970000  0.15890000  0.91010000  1
  C  C77  1  0.35130000  0.57970000  0.91010000  1
  C  C78  1  0.09430000  0.34890000  0.90470000  1
  C  C79  1  0.65210000  0.09430000  0.90470000  1
  C  C80  1  0.34890000  0.65210000  0.90470000  1
  C  C81  1  0.33980000  0.21620000  0.85520000  1
  C  C82  1  0.21620000  0.58880000  0.85520000  1
  C  C83  1  0.58880000  0.33980000  0.85520000  1
  C  C84  1  0.41010000  0.07970000  0.85130000  1
  C  C85  1  0.07970000  0.65890000  0.85130000  1
  C  C86  1  0.65890000  0.41010000  0.85130000  1
  C  C87  1  0.40470000  0.15210000  0.84890000  1
  C  C88  1  0.15210000  0.59430000  0.84890000  1
  C  C89  1  0.59430000  0.40470000  0.84890000  1
  C  C90  1  0.46130000  0.17030000  0.84310000  1
  C  C91  1  0.17030000  0.52530000  0.84310000  1
  C  C92  1  0.52530000  0.46130000  0.84310000  1
  C  C93  1  0.08880000  0.35520000  0.83980000  1
  C  C94  1  0.71620000  0.08880000  0.83980000  1
  C  C95  1  0.35520000  0.71620000  0.83980000  1
  C  C96  1  0.35520000  0.08880000  0.71620000  1
  C  C97  1  0.08880000  0.83980000  0.71620000  1
  C  C98  1  0.83980000  0.35520000  0.71620000  1
  C  C99  1  0.34310000  0.02530000  0.67030000  1
  C  C100  1  0.02530000  0.96130000  0.67030000  1
  C  C101  1  0.96130000  0.34310000  0.67030000  1
  C  C102  1  0.07970000  0.41010000  0.65890000  1
  C  C103  1  0.85130000  0.07970000  0.65890000  1
  C  C104  1  0.41010000  0.85130000  0.65890000  1
  C  C105  1  0.34890000  0.09430000  0.65210000  1
  C  C106  1  0.09430000  0.90470000  0.65210000  1
  C  C107  1  0.90470000  0.34890000  0.65210000  1
  C  C108  1  0.15210000  0.40470000  0.59430000  1
  C  C109  1  0.84890000  0.15210000  0.59430000  1
  C  C110  1  0.40470000  0.84890000  0.59430000  1
  C  C111  1  0.21620000  0.33980000  0.58880000  1
  C  C112  1  0.85520000  0.21620000  0.58880000  1
  C  C113  1  0.33980000  0.85520000  0.58880000  1
  C  C114  1  0.35130000  0.15890000  0.57970000  1
  C  C115  1  0.15890000  0.91010000  0.57970000  1
  C  C116  1  0.91010000  0.35130000  0.57970000  1
  C  C117  1  0.17030000  0.46130000  0.52530000  1
  C  C118  1  0.84310000  0.17030000  0.52530000  1
  C  C119  1  0.46130000  0.84310000  0.52530000  1
  C  C120  1  0.52530000  0.17030000  0.46130000  1
  C  C121  1  0.17030000  0.84310000  0.46130000  1
  C  C122  1  0.84310000  0.52530000  0.46130000  1
  C  C123  1  0.65890000  0.07970000  0.41010000  1
  C  C124  1  0.07970000  0.85130000  0.41010000  1
  C  C125  1  0.85130000  0.65890000  0.41010000  1
  C  C126  1  0.59430000  0.15210000  0.40470000  1
  C  C127  1  0.15210000  0.84890000  0.40470000  1
  C  C128  1  0.84890000  0.59430000  0.40470000  1
  C  C129  1  0.08880000  0.71620000  0.35520000  1
  C  C130  1  0.83980000  0.08880000  0.35520000  1
  C  C131  1  0.71620000  0.83980000  0.35520000  1
  C  C132  1  0.15890000  0.57970000  0.35130000  1
  C  C133  1  0.91010000  0.15890000  0.35130000  1
  C  C134  1  0.57970000  0.91010000  0.35130000  1
  C  C135  1  0.09430000  0.65210000  0.34890000  1
  C  C136  1  0.90470000  0.09430000  0.34890000  1
  C  C137  1  0.65210000  0.90470000  0.34890000  1
  C  C138  1  0.02530000  0.67030000  0.34310000  1
  C  C139  1  0.96130000  0.02530000  0.34310000  1
  C  C140  1  0.67030000  0.96130000  0.34310000  1
  C  C141  1  0.58880000  0.21620000  0.33980000  1
  C  C142  1  0.21620000  0.85520000  0.33980000  1
  C  C143  1  0.85520000  0.58880000  0.33980000  1
  C  C144  1  0.33980000  0.58880000  0.21620000  1
  C  C145  1  0.85520000  0.33980000  0.21620000  1
  C  C146  1  0.58880000  0.85520000  0.21620000  1
  C  C147  1  0.46130000  0.52530000  0.17030000  1
  C  C148  1  0.84310000  0.46130000  0.17030000  1
  C  C149  1  0.52530000  0.84310000  0.17030000  1
  C  C150  1  0.57970000  0.35130000  0.15890000  1
  C  C151  1  0.35130000  0.91010000  0.15890000  1
  C  C152  1  0.91010000  0.57970000  0.15890000  1
  C  C153  1  0.40470000  0.59430000  0.15210000  1
  C  C154  1  0.84890000  0.40470000  0.15210000  1
  C  C155  1  0.59430000  0.84890000  0.15210000  1
  C  C156  1  0.65210000  0.34890000  0.09430000  1
  C  C157  1  0.34890000  0.90470000  0.09430000  1
  C  C158  1  0.90470000  0.65210000  0.09430000  1
  C  C159  1  0.71620000  0.35520000  0.08880000  1
  C  C160  1  0.35520000  0.83980000  0.08880000  1
  C  C161  1  0.83980000  0.71620000  0.08880000  1
  C  C162  1  0.41010000  0.65890000  0.07970000  1
  C  C163  1  0.85130000  0.41010000  0.07970000  1
  C  C164  1  0.65890000  0.85130000  0.07970000  1
  C  C165  1  0.67030000  0.34310000  0.02530000  1
  C  C166  1  0.34310000  0.96130000  0.02530000  1
  C  C167  1  0.96130000  0.67030000  0.02530000  1
  N  N168  1  0.74090000  0.34470000  0.98070000  1
  N  N169  1  0.34470000  0.93370000  0.98070000  1
  N  N170  1  0.93370000  0.74090000  0.98070000  1
  N  N171  1  0.34470000  0.74090000  0.93370000  1
  N  N172  1  0.98070000  0.34470000  0.93370000  1
  N  N173  1  0.74090000  0.98070000  0.93370000  1
  N  N174  1  0.01990000  0.35230000  0.85790000  1
  N  N175  1  0.76990000  0.01990000  0.85790000  1
  N  N176  1  0.35230000  0.76990000  0.85790000  1
  N  N177  1  0.35790000  0.26990000  0.85230000  1
  N  N178  1  0.26990000  0.51990000  0.85230000  1
  N  N179  1  0.51990000  0.35790000  0.85230000  1
  N  N180  1  0.43370000  0.24090000  0.84470000  1
  N  N181  1  0.24090000  0.48070000  0.84470000  1
  N  N182  1  0.48070000  0.43370000  0.84470000  1
  N  N183  1  0.35230000  0.01990000  0.76990000  1
  N  N184  1  0.01990000  0.85790000  0.76990000  1
  N  N185  1  0.85790000  0.35230000  0.76990000  1
  N  N186  1  0.93370000  0.34470000  0.74090000  1
  N  N187  1  0.34470000  0.98070000  0.74090000  1
  N  N188  1  0.98070000  0.93370000  0.74090000  1
  N  N189  1  0.26990000  0.35790000  0.51990000  1
  N  N190  1  0.85230000  0.26990000  0.51990000  1
  N  N191  1  0.35790000  0.85230000  0.51990000  1
  N  N192  1  0.24090000  0.43370000  0.48070000  1
  N  N193  1  0.84470000  0.24090000  0.48070000  1
  N  N194  1  0.43370000  0.84470000  0.48070000  1
  N  N195  1  0.48070000  0.24090000  0.43370000  1
  N  N196  1  0.24090000  0.84470000  0.43370000  1
  N  N197  1  0.84470000  0.48070000  0.43370000  1
  N  N198  1  0.51990000  0.26990000  0.35790000  1
  N  N199  1  0.26990000  0.85230000  0.35790000  1
  N  N200  1  0.85230000  0.51990000  0.35790000  1
  N  N201  1  0.01990000  0.76990000  0.35230000  1
  N  N202  1  0.85790000  0.01990000  0.35230000  1
  N  N203  1  0.76990000  0.85790000  0.35230000  1
  N  N204  1  0.74090000  0.93370000  0.34470000  1
  N  N205  1  0.98070000  0.74090000  0.34470000  1
  N  N206  1  0.93370000  0.98070000  0.34470000  1
  N  N207  1  0.35790000  0.51990000  0.26990000  1
  N  N208  1  0.85230000  0.35790000  0.26990000  1
  N  N209  1  0.51990000  0.85230000  0.26990000  1
  N  N210  1  0.43370000  0.48070000  0.24090000  1
  N  N211  1  0.84470000  0.43370000  0.24090000  1
  N  N212  1  0.48070000  0.84470000  0.24090000  1
  N  N213  1  0.76990000  0.35230000  0.01990000  1
  N  N214  1  0.35230000  0.85790000  0.01990000  1
  N  N215  1  0.85790000  0.76990000  0.01990000  1
  O  O216  1  0.15740000  0.34340000  0.97260000  1
  O  O217  1  0.52660000  0.15740000  0.97260000  1
  O  O218  1  0.34340000  0.52660000  0.97260000  1
  O  O219  1  0.37170000  0.37170000  0.88490000  1
  O  O220  1  0.38490000  0.87170000  0.87170000  1
  O  O221  1  0.87170000  0.38490000  0.87170000  1
  O  O222  1  0.87170000  0.87170000  0.87170000  1
  O  O223  1  0.34481000  0.07541000  0.86619000  1
  O  O224  1  0.07541000  0.71359000  0.86619000  1
  O  O225  1  0.71359000  0.34481000  0.86619000  1
  O  O226  1  0.21359000  0.36619000  0.84481000  1
  O  O227  1  0.57541000  0.21359000  0.84481000  1
  O  O228  1  0.36619000  0.57541000  0.84481000  1
  O  O229  1  0.47260000  0.02660000  0.84340000  1
  O  O230  1  0.02660000  0.65740000  0.84340000  1
  O  O231  1  0.65740000  0.47260000  0.84340000  1
  O  O232  1  0.07541000  0.34481000  0.71359000  1
  O  O233  1  0.86619000  0.07541000  0.71359000  1
  O  O234  1  0.34481000  0.86619000  0.71359000  1
  O  O235  1  0.02660000  0.47260000  0.65740000  1
  O  O236  1  0.84340000  0.02660000  0.65740000  1
  O  O237  1  0.47260000  0.84340000  0.65740000  1
  O  O238  1  0.36619000  0.21359000  0.57541000  1
  O  O239  1  0.21359000  0.84481000  0.57541000  1
  O  O240  1  0.84481000  0.36619000  0.57541000  1
  O  O241  1  0.34340000  0.15740000  0.52660000  1
  O  O242  1  0.15740000  0.97260000  0.52660000  1
  O  O243  1  0.97260000  0.34340000  0.52660000  1
  O  O244  1  0.65740000  0.02660000  0.47260000  1
  O  O245  1  0.02660000  0.84340000  0.47260000  1
  O  O246  1  0.84340000  0.65740000  0.47260000  1
  O  O247  1  0.87170000  0.87170000  0.38490000  1
  O  O248  1  0.37170000  0.37170000  0.37170000  1
  O  O249  1  0.37170000  0.88490000  0.37170000  1
  O  O250  1  0.88490000  0.37170000  0.37170000  1
  O  O251  1  0.21359000  0.57541000  0.36619000  1
  O  O252  1  0.84481000  0.21359000  0.36619000  1
  O  O253  1  0.57541000  0.84481000  0.36619000  1
  O  O254  1  0.71359000  0.07541000  0.34481000  1
  O  O255  1  0.07541000  0.86619000  0.34481000  1
  O  O256  1  0.86619000  0.71359000  0.34481000  1
  O  O257  1  0.15740000  0.52660000  0.34340000  1
  O  O258  1  0.97260000  0.15740000  0.34340000  1
  O  O259  1  0.52660000  0.97260000  0.34340000  1
  O  O260  1  0.57541000  0.36619000  0.21359000  1
  O  O261  1  0.36619000  0.84481000  0.21359000  1
  O  O262  1  0.84481000  0.57541000  0.21359000  1
  O  O263  1  0.52660000  0.34340000  0.15740000  1
  O  O264  1  0.34340000  0.97260000  0.15740000  1
  O  O265  1  0.97260000  0.52660000  0.15740000  1
  O  O266  1  0.34481000  0.71359000  0.07541000  1
  O  O267  1  0.86619000  0.34481000  0.07541000  1
  O  O268  1  0.71359000  0.86619000  0.07541000  1
  O  O269  1  0.47260000  0.65740000  0.02660000  1
  O  O270  1  0.84340000  0.47260000  0.02660000  1
  O  O271  1  0.65740000  0.84340000  0.02660000  1
