# generated using pymatgen
data_Na2P6H114Pb(C29O3)6
_symmetry_space_group_name_H-M   'P 1'
_cell_length_a   11.22130000
_cell_length_b   22.49480000
_cell_length_c   39.84680000
_cell_angle_alpha   90.00000000
_cell_angle_beta   90.00000000
_cell_angle_gamma   104.13500000
_symmetry_Int_Tables_number   1
_chemical_formula_structural   Na2P6H114Pb(C29O3)6
_chemical_formula_sum   'Na4 P12 H228 Pb2 C348 O36'
_cell_volume   9753.63420849
_cell_formula_units_Z   2
loop_
 _symmetry_equiv_pos_site_id
 _symmetry_equiv_pos_as_xyz
  1  'x, y, z'
loop_
 _atom_site_type_symbol
 _atom_site_label
 _atom_site_symmetry_multiplicity
 _atom_site_fract_x
 _atom_site_fract_y
 _atom_site_fract_z
 _atom_site_occupancy
  Na  Na0  1  0.91780000  0.65640000  0.06911000  1
  Na  Na1  1  0.50650000  0.25547000  0.50369000  1
  Na  Na2  1  0.49350000  0.74453000  0.00369000  1
  Na  Na3  1  0.08220000  0.34360000  0.56911000  1
  P  P4  1  0.87259000  0.29365000  0.09409000  1
  P  P5  1  0.86430000  0.50353000  0.79892000  1
  P  P6  1  0.81763000  0.07283000  0.71985000  1
  P  P7  1  0.75571000  0.67512000  0.74062000  1
  P  P8  1  0.66656000  0.32151000  0.00471000  1
  P  P9  1  0.53380000  0.90918000  0.69188000  1
  P  P10  1  0.46620000  0.09082000  0.19188000  1
  P  P11  1  0.33344000  0.67849000  0.50471000  1
  P  P12  1  0.24429000  0.32488000  0.24062000  1
  P  P13  1  0.18237000  0.92717000  0.21985000  1
  P  P14  1  0.13570000  0.49647000  0.29892000  1
  P  P15  1  0.12741000  0.70635000  0.59409000  1
  H  H16  1  0.99780000  0.60050000  0.75610000  1
  H  H17  1  0.98580000  0.08960000  0.19850000  1
  H  H18  1  0.98450000  0.31850000  0.16150000  1
  H  H19  1  0.98420000  0.28630000  0.71150000  1
  H  H20  1  0.98410000  0.59740000  0.69720000  1
  H  H21  1  0.98260000  0.17840000  0.30950000  1
  H  H22  1  0.98220000  0.68820000  0.41590000  1
  H  H23  1  0.97770000  0.69470000  0.27010000  1
  H  H24  1  0.97680000  0.22260000  0.80530000  1
  H  H25  1  0.95830000  0.78180000  0.52730000  1
  H  H26  1  0.95490000  0.49080000  0.18210000  1
  H  H27  1  0.94230000  0.72820000  0.78550000  1
  H  H28  1  0.93880000  0.90590000  0.79520000  1
  H  H29  1  0.92900000  0.03600000  0.03730000  1
  H  H30  1  0.92070000  0.89300000  0.63490000  1
  H  H31  1  0.92050000  0.88500000  0.23100000  1
  H  H32  1  0.91530000  0.87540000  0.53280000  1
  H  H33  1  0.91490000  0.52990000  0.31420000  1
  H  H34  1  0.91340000  0.60760000  0.58250000  1
  H  H35  1  0.90350000  0.63470000  0.80720000  1
  H  H36  1  0.89950000  0.27260000  0.96060000  1
  H  H37  1  0.89850000  0.19780000  0.18960000  1
  H  H38  1  0.89670000  0.18810000  0.69170000  1
  H  H39  1  0.88830000  0.45460000  0.73890000  1
  H  H40  1  0.88200000  0.25330000  0.23810000  1
  H  H41  1  0.88070000  0.12540000  0.78550000  1
  H  H42  1  0.88020000  0.44310000  0.59270000  1
  H  H43  1  0.87950000  0.71240000  0.61610000  1
  H  H44  1  0.87760000  0.41040000  0.41550000  1
  H  H45  1  0.87640000  0.08680000  0.12040000  1
  H  H46  1  0.86930000  0.69810000  0.85070000  1
  H  H47  1  0.86570000  0.49400000  0.12850000  1
  H  H48  1  0.85870000  0.02050000  0.78230000  1
  H  H49  1  0.84670000  0.95630000  0.70290000  1
  H  H50  1  0.83960000  0.75930000  0.11830000  1
  H  H51  1  0.83510000  0.41090000  0.09300000  1
  H  H52  1  0.81930000  0.60010000  0.42250000  1
  H  H53  1  0.81070000  0.47970000  0.49990000  1
  H  H54  1  0.80960000  0.49770000  0.63420000  1
  H  H55  1  0.80560000  0.56210000  0.53730000  1
  H  H56  1  0.80500000  0.72510000  0.55400000  1
  H  H57  1  0.79610000  0.79390000  0.63280000  1
  H  H58  1  0.79580000  0.44210000  0.68780000  1
  H  H59  1  0.79580000  0.35920000  0.24380000  1
  H  H60  1  0.78930000  0.46340000  0.37620000  1
  H  H61  1  0.78880000  0.03370000  0.20850000  1
  H  H62  1  0.78820000  0.16790000  0.10400000  1
  H  H63  1  0.78020000  0.65420000  0.90090000  1
  H  H64  1  0.77940000  0.89110000  0.75630000  1
  H  H65  1  0.77730000  0.71550000  0.49660000  1
  H  H66  1  0.77390000  0.79270000  0.16910000  1
  H  H67  1  0.76990000  0.07170000  0.29660000  1
  H  H68  1  0.76500000  0.48570000  0.86400000  1
  H  H69  1  0.75950000  0.95450000  0.59100000  1
  H  H70  1  0.75870000  0.96710000  0.00180000  1
  H  H71  1  0.75520000  0.64450000  0.67270000  1
  H  H72  1  0.75190000  0.93260000  0.22680000  1
  H  H73  1  0.74140000  0.95970000  0.82320000  1
  H  H74  1  0.72930000  0.54870000  0.90770000  1
  H  H75  1  0.72360000  0.12450000  0.17060000  1
  H  H76  1  0.70800000  0.96830000  0.64600000  1
  H  H77  1  0.70530000  0.48800000  0.30130000  1
  H  H78  1  0.70490000  0.79720000  0.73050000  1
  H  H79  1  0.70450000  0.24220000  0.26540000  1
  H  H80  1  0.70350000  0.78440000  0.86350000  1
  H  H81  1  0.67740000  0.11370000  0.34110000  1
  H  H82  1  0.65370000  0.24380000  0.94530000  1
  H  H83  1  0.65010000  0.01900000  0.25420000  1
  H  H84  1  0.64880000  0.40200000  0.26750000  1
  H  H85  1  0.64830000  0.41830000  0.96360000  1
  H  H86  1  0.64280000  0.39620000  0.50090000  1
  H  H87  1  0.64140000  0.26200000  0.88770000  1
  H  H88  1  0.64000000  0.87520000  0.55850000  1
  H  H89  1  0.63900000  0.72130000  0.59010000  1
  H  H90  1  0.63860000  0.84190000  0.82350000  1
  H  H91  1  0.63730000  0.46770000  0.18600000  1
  H  H92  1  0.62600000  0.52990000  0.38010000  1
  H  H93  1  0.62450000  0.64090000  0.62710000  1
  H  H94  1  0.62350000  0.43470000  0.90610000  1
  H  H95  1  0.62280000  0.35610000  0.86890000  1
  H  H96  1  0.62190000  0.71300000  0.79330000  1
  H  H97  1  0.61920000  0.93500000  0.13790000  1
  H  H98  1  0.61310000  0.29520000  0.18570000  1
  H  H99  1  0.60970000  0.57750000  0.44880000  1
  H  H100  1  0.59580000  0.88090000  0.00360000  1
  H  H101  1  0.58930000  0.05060000  0.06990000  1
  H  H102  1  0.58820000  0.76630000  0.20770000  1
  H  H103  1  0.58080000  0.02880000  0.14360000  1
  H  H104  1  0.57900000  0.69460000  0.47480000  1
  H  H105  1  0.57570000  0.18010000  0.13980000  1
  H  H106  1  0.57310000  0.10200000  0.01500000  1
  H  H107  1  0.57160000  0.03570000  0.57360000  1
  H  H108  1  0.56450000  0.33210000  0.13420000  1
  H  H109  1  0.56120000  0.45440000  0.79560000  1
  H  H110  1  0.56090000  0.51840000  0.14260000  1
  H  H111  1  0.56010000  0.30000000  0.06810000  1
  H  H112  1  0.55890000  0.80750000  0.07050000  1
  H  H113  1  0.55590000  0.50680000  0.94870000  1
  H  H114  1  0.55360000  0.58980000  0.34110000  1
  H  H115  1  0.55130000  0.11490000  0.76210000  1
  H  H116  1  0.54980000  0.86790000  0.93540000  1
  H  H117  1  0.54680000  0.32460000  0.58770000  1
  H  H118  1  0.54440000  0.65070000  0.89440000  1
  H  H119  1  0.54220000  0.29800000  0.43410000  1
  H  H120  1  0.53360000  0.19140000  0.08320000  1
  H  H121  1  0.53330000  0.19580000  0.00270000  1
  H  H122  1  0.53010000  0.44420000  0.23510000  1
  H  H123  1  0.52710000  0.17410000  0.24600000  1
  H  H124  1  0.52440000  0.07560000  0.39330000  1
  H  H125  1  0.52200000  0.62630000  0.13180000  1
  H  H126  1  0.52170000  0.70930000  0.73130000  1
  H  H127  1  0.51470000  0.79550000  0.25900000  1
  H  H128  1  0.50710000  0.16210000  0.62050000  1
  H  H129  1  0.50080000  0.66900000  0.83760000  1
  H  H130  1  0.49920000  0.33100000  0.33760000  1
  H  H131  1  0.49290000  0.83790000  0.12050000  1
  H  H132  1  0.48530000  0.20450000  0.75900000  1
  H  H133  1  0.47830000  0.29070000  0.23130000  1
  H  H134  1  0.47800000  0.37370000  0.63180000  1
  H  H135  1  0.47560000  0.92440000  0.89330000  1
  H  H136  1  0.47290000  0.82590000  0.74600000  1
  H  H137  1  0.46990000  0.55580000  0.73510000  1
  H  H138  1  0.46670000  0.80420000  0.50270000  1
  H  H139  1  0.46640000  0.80860000  0.58320000  1
  H  H140  1  0.45780000  0.70200000  0.93410000  1
  H  H141  1  0.45560000  0.34930000  0.39440000  1
  H  H142  1  0.45320000  0.67540000  0.08770000  1
  H  H143  1  0.45020000  0.13210000  0.43540000  1
  H  H144  1  0.44870000  0.88510000  0.26210000  1
  H  H145  1  0.44640000  0.41020000  0.84110000  1
  H  H146  1  0.44410000  0.49320000  0.44870000  1
  H  H147  1  0.44110000  0.19250000  0.57050000  1
  H  H148  1  0.43990000  0.70000000  0.56810000  1
  H  H149  1  0.43910000  0.48160000  0.64260000  1
  H  H150  1  0.43880000  0.54560000  0.29560000  1
  H  H151  1  0.43550000  0.66790000  0.63420000  1
  H  H152  1  0.42840000  0.96430000  0.07360000  1
  H  H153  1  0.42690000  0.89800000  0.51500000  1
  H  H154  1  0.42430000  0.81990000  0.63980000  1
  H  H155  1  0.42100000  0.30540000  0.97480000  1
  H  H156  1  0.41920000  0.97120000  0.64360000  1
  H  H157  1  0.41180000  0.23370000  0.70770000  1
  H  H158  1  0.41070000  0.94940000  0.56990000  1
  H  H159  1  0.40420000  0.11910000  0.50360000  1
  H  H160  1  0.39030000  0.42250000  0.94880000  1
  H  H161  1  0.38690000  0.70480000  0.68570000  1
  H  H162  1  0.38080000  0.06500000  0.63790000  1
  H  H163  1  0.37810000  0.28700000  0.29330000  1
  H  H164  1  0.37720000  0.64390000  0.36890000  1
  H  H165  1  0.37650000  0.56530000  0.40610000  1
  H  H166  1  0.37550000  0.35910000  0.12710000  1
  H  H167  1  0.37400000  0.47010000  0.88010000  1
  H  H168  1  0.36270000  0.53230000  0.68600000  1
  H  H169  1  0.36140000  0.15810000  0.32350000  1
  H  H170  1  0.36100000  0.27870000  0.09010000  1
  H  H171  1  0.36000000  0.12480000  0.05850000  1
  H  H172  1  0.35860000  0.73800000  0.38770000  1
  H  H173  1  0.35720000  0.60380000  0.00090000  1
  H  H174  1  0.35170000  0.58170000  0.46360000  1
  H  H175  1  0.35120000  0.59800000  0.76750000  1
  H  H176  1  0.34990000  0.98100000  0.75420000  1
  H  H177  1  0.34630000  0.75620000  0.44530000  1
  H  H178  1  0.32260000  0.88630000  0.84110000  1
  H  H179  1  0.29650000  0.21560000  0.36350000  1
  H  H180  1  0.29550000  0.75780000  0.76540000  1
  H  H181  1  0.29510000  0.20280000  0.23050000  1
  H  H182  1  0.29470000  0.51200000  0.80130000  1
  H  H183  1  0.29200000  0.03170000  0.14600000  1
  H  H184  1  0.27640000  0.87550000  0.67060000  1
  H  H185  1  0.27070000  0.45130000  0.40770000  1
  H  H186  1  0.25860000  0.04030000  0.32320000  1
  H  H187  1  0.24810000  0.06740000  0.72680000  1
  H  H188  1  0.24480000  0.35550000  0.17270000  1
  H  H189  1  0.24130000  0.03290000  0.50180000  1
  H  H190  1  0.24050000  0.04550000  0.09100000  1
  H  H191  1  0.23500000  0.51430000  0.36400000  1
  H  H192  1  0.23010000  0.92830000  0.79660000  1
  H  H193  1  0.22610000  0.20730000  0.66910000  1
  H  H194  1  0.22270000  0.28450000  0.99660000  1
  H  H195  1  0.22060000  0.10890000  0.25630000  1
  H  H196  1  0.21980000  0.34580000  0.40090000  1
  H  H197  1  0.21180000  0.83210000  0.60400000  1
  H  H198  1  0.21120000  0.96630000  0.70850000  1
  H  H199  1  0.21070000  0.53660000  0.87620000  1
  H  H200  1  0.20420000  0.64080000  0.74380000  1
  H  H201  1  0.20420000  0.55790000  0.18780000  1
  H  H202  1  0.20390000  0.20610000  0.13280000  1
  H  H203  1  0.19500000  0.27490000  0.05400000  1
  H  H204  1  0.19440000  0.43790000  0.03730000  1
  H  H205  1  0.19040000  0.50230000  0.13420000  1
  H  H206  1  0.18930000  0.52030000  0.99990000  1
  H  H207  1  0.18070000  0.39990000  0.92250000  1
  H  H208  1  0.16490000  0.58910000  0.59300000  1
  H  H209  1  0.16040000  0.24070000  0.61830000  1
  H  H210  1  0.15330000  0.04370000  0.20290000  1
  H  H211  1  0.14130000  0.97950000  0.28230000  1
  H  H212  1  0.13430000  0.50600000  0.62850000  1
  H  H213  1  0.13070000  0.30190000  0.35070000  1
  H  H214  1  0.12360000  0.91320000  0.62040000  1
  H  H215  1  0.12240000  0.58960000  0.91550000  1
  H  H216  1  0.12050000  0.28760000  0.11610000  1
  H  H217  1  0.11980000  0.55690000  0.09270000  1
  H  H218  1  0.11930000  0.87460000  0.28550000  1
  H  H219  1  0.11800000  0.74670000  0.73810000  1
  H  H220  1  0.11170000  0.54540000  0.23890000  1
  H  H221  1  0.10330000  0.81190000  0.19170000  1
  H  H222  1  0.10150000  0.80220000  0.68960000  1
  H  H223  1  0.10050000  0.72740000  0.46060000  1
  H  H224  1  0.09650000  0.36530000  0.30720000  1
  H  H225  1  0.08660000  0.39240000  0.08250000  1
  H  H226  1  0.08510000  0.47010000  0.81420000  1
  H  H227  1  0.08470000  0.12460000  0.03280000  1
  H  H228  1  0.07950000  0.11500000  0.73100000  1
  H  H229  1  0.07930000  0.10700000  0.13490000  1
  H  H230  1  0.07100000  0.96400000  0.53730000  1
  H  H231  1  0.06120000  0.09410000  0.29520000  1
  H  H232  1  0.05770000  0.27180000  0.28550000  1
  H  H233  1  0.04510000  0.50920000  0.68210000  1
  H  H234  1  0.04170000  0.21820000  0.02730000  1
  H  H235  1  0.02320000  0.77740000  0.30530000  1
  H  H236  1  0.02230000  0.30530000  0.77010000  1
  H  H237  1  0.01780000  0.31180000  0.91590000  1
  H  H238  1  0.01740000  0.82160000  0.80950000  1
  H  H239  1  0.01590000  0.40260000  0.19720000  1
  H  H240  1  0.01580000  0.71370000  0.21150000  1
  H  H241  1  0.01550000  0.68150000  0.66150000  1
  H  H242  1  0.01420000  0.91040000  0.69850000  1
  H  H243  1  0.00220000  0.39950000  0.25610000  1
  Pb  Pb244  1  0.81396000  0.24558000  0.51430000  1
  Pb  Pb245  1  0.18604000  0.75442000  0.01430000  1
  C  C246  1  0.99850000  0.87290000  0.53150000  1
  C  C247  1  0.99670000  0.33020000  0.99644000  1
  C  C248  1  0.98700000  0.26510000  0.76190000  1
  C  C249  1  0.97830000  0.40450000  0.17603000  1
  C  C250  1  0.97700000  0.46590000  0.28693000  1
  C  C251  1  0.97650000  0.18220000  0.02765000  1
  C  C252  1  0.97180000  0.04780000  0.20500000  1
  C  C253  1  0.96840000  0.30630000  0.96370000  1
  C  C254  1  0.96430000  0.67010000  0.43740000  1
  C  C255  1  0.96300000  0.25330000  0.72700000  1
  C  C256  1  0.96020000  0.35420000  0.15467000  1
  C  C257  1  0.95850000  0.21720000  0.78210000  1
  C  C258  1  0.95820000  0.32600000  0.05684000  1
  C  C259  1  0.95490000  0.86030000  0.62810000  1
  C  C260  1  0.95280000  0.81670000  0.79350000  1
  C  C261  1  0.94850000  0.03980000  0.71809000  1
  C  C262  1  0.94580000  0.23500000  0.10868000  1
  C  C263  1  0.94340000  0.45680000  0.16720000  1
  C  C264  1  0.94170000  0.41720000  0.26581000  1
  C  C265  1  0.93750000  0.62300000  0.56065000  1
  C  C266  1  0.93460000  0.92680000  0.22460000  1
  C  C267  1  0.92980000  0.75300000  0.61707000  1
  C  C268  1  0.92850000  0.30260000  0.02530000  1
  C  C269  1  0.92760000  0.97930000  0.70790000  1
  C  C270  1  0.92540000  0.12770000  0.11970000  1
  C  C271  1  0.90950000  0.19510000  0.71510000  1
  C  C272  1  0.90890000  0.07410000  0.03380000  1
  C  C273  1  0.90790000  0.76140000  0.77950000  1
  C  C274  1  0.90690000  0.86680000  0.78530000  1
  C  C275  1  0.90690000  0.35580000  0.12352000  1
  C  C276  1  0.90190000  0.61750000  0.50066000  1
  C  C277  1  0.90130000  0.15840000  0.77000000  1
  C  C278  1  0.89050000  0.49470000  0.30031000  1
  C  C279  1  0.88980000  0.45830000  0.13546000  1
  C  C280  1  0.88050000  0.80130000  0.62690000  1
  C  C281  1  0.87490000  0.14730000  0.73770000  1
  C  C282  1  0.87310000  0.59640000  0.53381000  1
  C  C283  1  0.87280000  0.17600000  0.10980000  1
  C  C284  1  0.87200000  0.40900000  0.11435000  1
  C  C285  1  0.86790000  0.61720000  0.82762000  1
  C  C286  1  0.86530000  0.61750000  0.44160000  1
  C  C287  1  0.85550000  0.01500000  0.21130000  1
  C  C288  1  0.85170000  0.18690000  0.02407000  1
  C  C289  1  0.84760000  0.65480000  0.85337000  1
  C  C290  1  0.83660000  0.55420000  0.83158000  1
  C  C291  1  0.83460000  0.59160000  0.47198000  1
  C  C292  1  0.83310000  0.95510000  0.22170000  1
  C  C293  1  0.82530000  0.24650000  0.02003000  1
  C  C294  1  0.82220000  0.19190000  0.20110000  1
  C  C295  1  0.82050000  0.47190000  0.73478000  1
  C  C296  1  0.81960000  0.39340000  0.25837000  1
  C  C297  1  0.81330000  0.85770000  0.76210000  1
  C  C298  1  0.81280000  0.75180000  0.75654000  1
  C  C299  1  0.81120000  0.22500000  0.22970000  1
  C  C300  1  0.79820000  0.42930000  0.60059000  1
  C  C301  1  0.79510000  0.62860000  0.88322000  1
  C  C302  1  0.79150000  0.39850000  0.41161000  1
  C  C303  1  0.78780000  0.07600000  0.03090000  1
  C  C304  1  0.78580000  0.52890000  0.86122000  1
  C  C305  1  0.78010000  0.50700000  0.76062000  1
  C  C306  1  0.77190000  0.00880000  0.77993000  1
  C  C307  1  0.77170000  0.31950000  0.45709000  1
  C  C308  1  0.77000000  0.34070000  0.56052000  1
  C  C309  1  0.76980000  0.77620000  0.11854000  1
  C  C310  1  0.76720000  0.80180000  0.74713000  1
  C  C311  1  0.76660000  0.46980000  0.29250000  1
  C  C312  1  0.76460000  0.56630000  0.88727000  1
  C  C313  1  0.76360000  0.46330000  0.70486000  1
  C  C314  1  0.75790000  0.13440000  0.02394000  1
  C  C315  1  0.75690000  0.46130000  0.62553000  1
  C  C316  1  0.75140000  0.76170000  0.05607000  1
  C  C317  1  0.73910000  0.42990000  0.38812000  1
  C  C318  1  0.73600000  0.48280000  0.48960000  1
  C  C319  1  0.73330000  0.41920000  0.27210000  1
  C  C320  1  0.73060000  0.79590000  0.14896000  1
  C  C321  1  0.72960000  0.53770000  0.47422000  1
  C  C322  1  0.72440000  0.71810000  0.54500000  1
  C  C323  1  0.72200000  0.37690000  0.58672000  1
  C  C324  1  0.71860000  0.34940000  0.42966000  1
  C  C325  1  0.71740000  0.14930000  0.18950000  1
  C  C326  1  0.71700000  0.02850000  0.75091000  1
  C  C327  1  0.70860000  0.71160000  0.51110000  1
  C  C328  1  0.70860000  0.78080000  0.08880000  1
  C  C329  1  0.70770000  0.21870000  0.24570000  1
  C  C330  1  0.70740000  0.24910000  0.01181000  1
  C  C331  1  0.70220000  0.97320000  0.80454000  1
  C  C332  1  0.68980000  0.92730000  0.60060000  1
  C  C333  1  0.68950000  0.96690000  0.01560000  1
  C  C334  1  0.68560000  0.01930000  0.03451000  1
  C  C335  1  0.68340000  0.53240000  0.75451000  1
  C  C336  1  0.68320000  0.06580000  0.29730000  1
  C  C337  1  0.68050000  0.65670000  0.67531000  1
  C  C338  1  0.67950000  0.78420000  0.93044000  1
  C  C339  1  0.66030000  0.93500000  0.63341000  1
  C  C340  1  0.65980000  0.63480000  0.77461000  1
  C  C341  1  0.65920000  0.48440000  0.69780000  1
  C  C342  1  0.65870000  0.81340000  0.86984000  1
  C  C343  1  0.65620000  0.33000000  0.96006000  1
  C  C344  1  0.65110000  0.67690000  0.70592000  1
  C  C345  1  0.65080000  0.28330000  0.93750000  1
  C  C346  1  0.64590000  0.38580000  0.94820000  1
  C  C347  1  0.64100000  0.29380000  0.90330000  1
  C  C348  1  0.63780000  0.13820000  0.01584000  1
  C  C349  1  0.63710000  0.44050000  0.63824000  1
  C  C350  1  0.63670000  0.57250000  0.77891000  1
  C  C351  1  0.63600000  0.43300000  0.49019000  1
  C  C352  1  0.63400000  0.82180000  0.90383000  1
  C  C353  1  0.63190000  0.39610000  0.91400000  1
  C  C354  1  0.63080000  0.34960000  0.89230000  1
  C  C355  1  0.62850000  0.82030000  0.14967000  1
  C  C356  1  0.62720000  0.09040000  0.32420000  1
  C  C357  1  0.62570000  0.71500000  0.56670000  1
  C  C358  1  0.61930000  0.88020000  0.58130000  1
  C  C359  1  0.61900000  0.13830000  0.53629000  1
  C  C360  1  0.61840000  0.84670000  0.84630000  1
  C  C361  1  0.61700000  0.54060000  0.45918000  1
  C  C362  1  0.61380000  0.19400000  0.00917000  1
  C  C363  1  0.61300000  0.51780000  0.72312000  1
  C  C364  1  0.61210000  0.41240000  0.38195000  1
  C  C365  1  0.61210000  0.03390000  0.27263000  1
  C  C366  1  0.60730000  0.67010000  0.79687000  1
  C  C367  1  0.60570000  0.14300000  0.20509000  1
  C  C368  1  0.60340000  0.80440000  0.09039000  1
  C  C369  1  0.60280000  0.65410000  0.64838000  1
  C  C370  1  0.60230000  0.17830000  0.23420000  1
  C  C371  1  0.60140000  0.35860000  0.59805000  1
  C  C372  1  0.59390000  0.91560000  0.01700000  1
  C  C373  1  0.59330000  0.47370000  0.66660000  1
  C  C374  1  0.59270000  0.33180000  0.42251000  1
  C  C375  1  0.59170000  0.01170000  0.74752000  1
  C  C376  1  0.59090000  0.69920000  0.49840000  1
  C  C377  1  0.58970000  0.01620000  0.05603000  1
  C  C378  1  0.58370000  0.61720000  0.97554000  1
  C  C379  1  0.58300000  0.84160000  0.18206000  1
  C  C380  1  0.58220000  0.94440000  0.15806000  1
  C  C381  1  0.58000000  0.51070000  0.36130000  1
  C  C382  1  0.57320000  0.95700000  0.80197000  1
  C  C383  1  0.56740000  0.80470000  0.20919000  1
  C  C384  1  0.56710000  0.86230000  0.91242000  1
  C  C385  1  0.56500000  0.82290000  0.12006000  1
  C  C386  1  0.56230000  0.89490000  0.64830000  1
  C  C387  1  0.56160000  0.47890000  0.18890000  1
  C  C388  1  0.56120000  0.54360000  0.80648000  1
  C  C389  1  0.55960000  0.38840000  0.62375000  1
  C  C390  1  0.55890000  0.44900000  0.35770000  1
  C  C391  1  0.55820000  0.99960000  0.16115000  1
  C  C392  1  0.55430000  0.89890000  0.18385000  1
  C  C393  1  0.54930000  0.88730000  0.85407000  1
  C  C394  1  0.54160000  0.69500000  0.71009000  1
  C  C395  1  0.54100000  0.36240000  0.39904000  1
  C  C396  1  0.53880000  0.30780000  0.18304000  1
  C  C397  1  0.53620000  0.64410000  0.82333000  1
  C  C398  1  0.53580000  0.54660000  0.33812000  1
  C  C399  1  0.53250000  0.47960000  0.81130000  1
  C  C400  1  0.52830000  0.02650000  0.71675000  1
  C  C401  1  0.52530000  0.43590000  0.47535000  1
  C  C402  1  0.52270000  0.89610000  0.88736000  1
  C  C403  1  0.52110000  0.82150000  0.23993000  1
  C  C404  1  0.51830000  0.49070000  0.45942000  1
  C  C405  1  0.51750000  0.84040000  0.59600000  1
  C  C406  1  0.51590000  0.50930000  0.16294000  1
  C  C407  1  0.51520000  0.97750000  0.77381000  1
  C  C408  1  0.51480000  0.58050000  0.82970000  1
  C  C409  1  0.51440000  0.12480000  0.74202000  1
  C  C410  1  0.51020000  0.30660000  0.01912000  1
  C  C411  1  0.50920000  0.32890000  0.15250000  1
  C  C412  1  0.50820000  0.70240000  0.55362000  1
  C  C413  1  0.50820000  0.15220000  0.12953000  1
  C  C414  1  0.50650000  0.08570000  0.53817000  1
  C  C415  1  0.50610000  0.03490000  0.55837000  1
  C  C416  1  0.50400000  0.08130000  0.32614000  1
  C  C417  1  0.50320000  0.91620000  0.21467000  1
  C  C418  1  0.50140000  0.53460000  0.71792000  1
  C  C419  1  0.50100000  0.98470000  0.69060000  1
  C  C420  1  0.49900000  0.01530000  0.19060000  1
  C  C421  1  0.49860000  0.46540000  0.21792000  1
  C  C422  1  0.49680000  0.08380000  0.71467000  1
  C  C423  1  0.49600000  0.91870000  0.82614000  1
  C  C424  1  0.49390000  0.96510000  0.05837000  1
  C  C425  1  0.49350000  0.91430000  0.03817000  1
  C  C426  1  0.49180000  0.84780000  0.62953000  1
  C  C427  1  0.49180000  0.29760000  0.05362000  1
  C  C428  1  0.49080000  0.67110000  0.65250000  1
  C  C429  1  0.48980000  0.69340000  0.51912000  1
  C  C430  1  0.48560000  0.87520000  0.24202000  1
  C  C431  1  0.48520000  0.41950000  0.32970000  1
  C  C432  1  0.48480000  0.02250000  0.27381000  1
  C  C433  1  0.48410000  0.49070000  0.66294000  1
  C  C434  1  0.48250000  0.15960000  0.09600000  1
  C  C435  1  0.48170000  0.50930000  0.95942000  1
  C  C436  1  0.47890000  0.17850000  0.73993000  1
  C  C437  1  0.47730000  0.10390000  0.38736000  1
  C  C438  1  0.47470000  0.56410000  0.97535000  1
  C  C439  1  0.47170000  0.97350000  0.21675000  1
  C  C440  1  0.46750000  0.52040000  0.31130000  1
  C  C441  1  0.46420000  0.45340000  0.83812000  1
  C  C442  1  0.46380000  0.35590000  0.32333000  1
  C  C443  1  0.46120000  0.69220000  0.68304000  1
  C  C444  1  0.45900000  0.63760000  0.89904000  1
  C  C445  1  0.45840000  0.30500000  0.21009000  1
  C  C446  1  0.45070000  0.11270000  0.35407000  1
  C  C447  1  0.44570000  0.10110000  0.68385000  1
  C  C448  1  0.44180000  0.00040000  0.66115000  1
  C  C449  1  0.44110000  0.55100000  0.85770000  1
  C  C450  1  0.44040000  0.61160000  0.12375000  1
  C  C451  1  0.43880000  0.45640000  0.30648000  1
  C  C452  1  0.43840000  0.52110000  0.68890000  1
  C  C453  1  0.43770000  0.10510000  0.14830000  1
  C  C454  1  0.43500000  0.17710000  0.62006000  1
  C  C455  1  0.43290000  0.13770000  0.41242000  1
  C  C456  1  0.43260000  0.19530000  0.70919000  1
  C  C457  1  0.42680000  0.04300000  0.30197000  1
  C  C458  1  0.42000000  0.48930000  0.86130000  1
  C  C459  1  0.41780000  0.05560000  0.65806000  1
  C  C460  1  0.41700000  0.15840000  0.68206000  1
  C  C461  1  0.41630000  0.38280000  0.47554000  1
  C  C462  1  0.41030000  0.98380000  0.55603000  1
  C  C463  1  0.40910000  0.30080000  0.99840000  1
  C  C464  1  0.40830000  0.98830000  0.24752000  1
  C  C465  1  0.40730000  0.66820000  0.92251000  1
  C  C466  1  0.40670000  0.52630000  0.16660000  1
  C  C467  1  0.40610000  0.08440000  0.51700000  1
  C  C468  1  0.39860000  0.64140000  0.09805000  1
  C  C469  1  0.39770000  0.82170000  0.73420000  1
  C  C470  1  0.39720000  0.34590000  0.14838000  1
  C  C471  1  0.39660000  0.19560000  0.59039000  1
  C  C472  1  0.39430000  0.85700000  0.70509000  1
  C  C473  1  0.39270000  0.32990000  0.29687000  1
  C  C474  1  0.38790000  0.58760000  0.88195000  1
  C  C475  1  0.38790000  0.96610000  0.77263000  1
  C  C476  1  0.38700000  0.48220000  0.22312000  1
  C  C477  1  0.38620000  0.80600000  0.50917000  1
  C  C478  1  0.38300000  0.45940000  0.95918000  1
  C  C479  1  0.38160000  0.15330000  0.34630000  1
  C  C480  1  0.38100000  0.86170000  0.03629000  1
  C  C481  1  0.38070000  0.11980000  0.08130000  1
  C  C482  1  0.37430000  0.28500000  0.06670000  1
  C  C483  1  0.37280000  0.90960000  0.82420000  1
  C  C484  1  0.37150000  0.17970000  0.64967000  1
  C  C485  1  0.36920000  0.65040000  0.39230000  1
  C  C486  1  0.36810000  0.60390000  0.41400000  1
  C  C487  1  0.36600000  0.17820000  0.40383000  1
  C  C488  1  0.36400000  0.56700000  0.99019000  1
  C  C489  1  0.36330000  0.42750000  0.27891000  1
  C  C490  1  0.36290000  0.55950000  0.13824000  1
  C  C491  1  0.36220000  0.86180000  0.51584000  1
  C  C492  1  0.35900000  0.70620000  0.40330000  1
  C  C493  1  0.35410000  0.61420000  0.44820000  1
  C  C494  1  0.34920000  0.71670000  0.43750000  1
  C  C495  1  0.34890000  0.32310000  0.20592000  1
  C  C496  1  0.34380000  0.67000000  0.46006000  1
  C  C497  1  0.34130000  0.18660000  0.36984000  1
  C  C498  1  0.34080000  0.51560000  0.19780000  1
  C  C499  1  0.34020000  0.36520000  0.27461000  1
  C  C500  1  0.33970000  0.06500000  0.13341000  1
  C  C501  1  0.32050000  0.21580000  0.43044000  1
  C  C502  1  0.31950000  0.34330000  0.17531000  1
  C  C503  1  0.31680000  0.93420000  0.79730000  1
  C  C504  1  0.31660000  0.46760000  0.25451000  1
  C  C505  1  0.31440000  0.98070000  0.53451000  1
  C  C506  1  0.31050000  0.03310000  0.51560000  1
  C  C507  1  0.31020000  0.07270000  0.10060000  1
  C  C508  1  0.29780000  0.02680000  0.30454000  1
  C  C509  1  0.29260000  0.75090000  0.51181000  1
  C  C510  1  0.29230000  0.78130000  0.74570000  1
  C  C511  1  0.29140000  0.21920000  0.58880000  1
  C  C512  1  0.29140000  0.28840000  0.01110000  1
  C  C513  1  0.28300000  0.97150000  0.25091000  1
  C  C514  1  0.28260000  0.85070000  0.68950000  1
  C  C515  1  0.28140000  0.65060000  0.92966000  1
  C  C516  1  0.27800000  0.62310000  0.08672000  1
  C  C517  1  0.27560000  0.28190000  0.04500000  1
  C  C518  1  0.27040000  0.46230000  0.97422000  1
  C  C519  1  0.26940000  0.20410000  0.64896000  1
  C  C520  1  0.26670000  0.58080000  0.77210000  1
  C  C521  1  0.26400000  0.51720000  0.98960000  1
  C  C522  1  0.26090000  0.57010000  0.88812000  1
  C  C523  1  0.24860000  0.23830000  0.55607000  1
  C  C524  1  0.24310000  0.53870000  0.12553000  1
  C  C525  1  0.24210000  0.86560000  0.52394000  1
  C  C526  1  0.23640000  0.53670000  0.20486000  1
  C  C527  1  0.23540000  0.43370000  0.38727000  1
  C  C528  1  0.23340000  0.53020000  0.79250000  1
  C  C529  1  0.23280000  0.19820000  0.24713000  1
  C  C530  1  0.23020000  0.22380000  0.61854000  1
  C  C531  1  0.23000000  0.65930000  0.06052000  1
  C  C532  1  0.22830000  0.68050000  0.95709000  1
  C  C533  1  0.22810000  0.99120000  0.27993000  1
  C  C534  1  0.21990000  0.49300000  0.26062000  1
  C  C535  1  0.21420000  0.47110000  0.36122000  1
  C  C536  1  0.21220000  0.92400000  0.53090000  1
  C  C537  1  0.20850000  0.60150000  0.91161000  1
  C  C538  1  0.20490000  0.37140000  0.38322000  1
  C  C539  1  0.20180000  0.57070000  0.10059000  1
  C  C540  1  0.18880000  0.77500000  0.72970000  1
  C  C541  1  0.18720000  0.24820000  0.25654000  1
  C  C542  1  0.18670000  0.14230000  0.26210000  1
  C  C543  1  0.18040000  0.60660000  0.75837000  1
  C  C544  1  0.17950000  0.52810000  0.23478000  1
  C  C545  1  0.17780000  0.80810000  0.70110000  1
  C  C546  1  0.17470000  0.75350000  0.52003000  1
  C  C547  1  0.16690000  0.04490000  0.72170000  1
  C  C548  1  0.16540000  0.40840000  0.97198000  1
  C  C549  1  0.16340000  0.44580000  0.33158000  1
  C  C550  1  0.15240000  0.34520000  0.35337000  1
  C  C551  1  0.14830000  0.81310000  0.52407000  1
  C  C552  1  0.14450000  0.98500000  0.71130000  1
  C  C553  1  0.13470000  0.38250000  0.94160000  1
  C  C554  1  0.13210000  0.38280000  0.32762000  1
  C  C555  1  0.12800000  0.59100000  0.61435000  1
  C  C556  1  0.12720000  0.82400000  0.60980000  1
  C  C557  1  0.12690000  0.40360000  0.03381000  1
  C  C558  1  0.12510000  0.85270000  0.23770000  1
  C  C559  1  0.11950000  0.19870000  0.12690000  1
  C  C560  1  0.11020000  0.54170000  0.63546000  1
  C  C561  1  0.10950000  0.50530000  0.80031000  1
  C  C562  1  0.09870000  0.84160000  0.27000000  1
  C  C563  1  0.09810000  0.38250000  0.00066000  1
  C  C564  1  0.09310000  0.64420000  0.62352000  1
  C  C565  1  0.09310000  0.13320000  0.28530000  1
  C  C566  1  0.09210000  0.23860000  0.27950000  1
  C  C567  1  0.09110000  0.92590000  0.53380000  1
  C  C568  1  0.09050000  0.80490000  0.21510000  1
  C  C569  1  0.07460000  0.87230000  0.61970000  1
  C  C570  1  0.07240000  0.02070000  0.20790000  1
  C  C571  1  0.07150000  0.69740000  0.52530000  1
  C  C572  1  0.07020000  0.24700000  0.11707000  1
  C  C573  1  0.06540000  0.07320000  0.72460000  1
  C  C574  1  0.06250000  0.37700000  0.06065000  1
  C  C575  1  0.05830000  0.58280000  0.76581000  1
  C  C576  1  0.05660000  0.54320000  0.66720000  1
  C  C577  1  0.05420000  0.76500000  0.60868000  1
  C  C578  1  0.05150000  0.96020000  0.21809000  1
  C  C579  1  0.04720000  0.18330000  0.29350000  1
  C  C580  1  0.04510000  0.13970000  0.12810000  1
  C  C581  1  0.04180000  0.67400000  0.55684000  1
  C  C582  1  0.04150000  0.78280000  0.28210000  1
  C  C583  1  0.03980000  0.64580000  0.65467000  1
  C  C584  1  0.03700000  0.74670000  0.22700000  1
  C  C585  1  0.03570000  0.32990000  0.93740000  1
  C  C586  1  0.03160000  0.69370000  0.46370000  1
  C  C587  1  0.02820000  0.95220000  0.70500000  1
  C  C588  1  0.02350000  0.81780000  0.52765000  1
  C  C589  1  0.02300000  0.53410000  0.78693000  1
  C  C590  1  0.02170000  0.59550000  0.67603000  1
  C  C591  1  0.01300000  0.73490000  0.26190000  1
  C  C592  1  0.00330000  0.66980000  0.49644000  1
  C  C593  1  0.00150000  0.12710000  0.03150000  1
  O  O594  1  0.88310000  0.33200000  0.46224000  1
  O  O595  1  0.88160000  0.35030000  0.55573000  1
  O  O596  1  0.85850000  0.64740000  0.73086000  1
  O  O597  1  0.84190000  0.73920000  0.05522000  1
  O  O598  1  0.83930000  0.43910000  0.81178000  1
  O  O599  1  0.76120000  0.07470000  0.68640000  1
  O  O600  1  0.75480000  0.75410000  0.92148000  1
  O  O601  1  0.74880000  0.37610000  0.02062000  1
  O  O602  1  0.73820000  0.26860000  0.08889000  1
  O  O603  1  0.71170000  0.13850000  0.55388000  1
  O  O604  1  0.69650000  0.27920000  0.47398000  1
  O  O605  1  0.68960000  0.29910000  0.54553000  1
  O  O606  1  0.68930000  0.76850000  0.03022000  1
  O  O607  1  0.67230000  0.61610000  0.95690000  1
  O  O608  1  0.64350000  0.78580000  0.96016000  1
  O  O609  1  0.63960000  0.90570000  0.71357000  1
  O  O610  1  0.61400000  0.18130000  0.51567000  1
  O  O611  1  0.57960000  0.66170000  0.99439000  1
  O  O612  1  0.42040000  0.33830000  0.49439000  1
  O  O613  1  0.38600000  0.81870000  0.01567000  1
  O  O614  1  0.36040000  0.09430000  0.21357000  1
  O  O615  1  0.35650000  0.21420000  0.46016000  1
  O  O616  1  0.32770000  0.38390000  0.45690000  1
  O  O617  1  0.31070000  0.23150000  0.53022000  1
  O  O618  1  0.31040000  0.70090000  0.04553000  1
  O  O619  1  0.30350000  0.72080000  0.97398000  1
  O  O620  1  0.28830000  0.86150000  0.05388000  1
  O  O621  1  0.26180000  0.73140000  0.58889000  1
  O  O622  1  0.25120000  0.62390000  0.52062000  1
  O  O623  1  0.24520000  0.24590000  0.42148000  1
  O  O624  1  0.23880000  0.92530000  0.18640000  1
  O  O625  1  0.16070000  0.56090000  0.31178000  1
  O  O626  1  0.15810000  0.26080000  0.55522000  1
  O  O627  1  0.14150000  0.35260000  0.23086000  1
  O  O628  1  0.11840000  0.64970000  0.05573000  1
  O  O629  1  0.11690000  0.66800000  0.96224000  1
