# generated using pymatgen
data_Ni3H44C72N6O13
_symmetry_space_group_name_H-M   'P 1'
_cell_length_a   18.52875722
_cell_length_b   18.52875722
_cell_length_c   18.52875722
_cell_angle_alpha   103.52051353
_cell_angle_beta   103.52051353
_cell_angle_gamma   103.52051353
_symmetry_Int_Tables_number   1
_chemical_formula_structural   Ni3H44C72N6O13
_chemical_formula_sum   'Ni6 H88 C144 N12 O26'
_cell_volume   5726.71648624
_cell_formula_units_Z   2
loop_
 _symmetry_equiv_pos_site_id
 _symmetry_equiv_pos_as_xyz
  1  'x, y, z'
loop_
 _atom_site_type_symbol
 _atom_site_label
 _atom_site_symmetry_multiplicity
 _atom_site_fract_x
 _atom_site_fract_y
 _atom_site_fract_z
 _atom_site_occupancy
  C  C0  1  0.75000000  0.98645000  0.51355000  1
  C  C1  1  0.75000000  0.03805000  0.46195000  1
  C  C2  1  0.25000000  0.01355000  0.48645000  1
  C  C3  1  0.07010000  0.44540000  0.69060000  1
  C  C4  1  0.57010000  0.19060000  0.94540000  1
  C  C5  1  0.18200000  0.27500000  0.07810000  1
  C  C6  1  0.68200000  0.57810000  0.77500000  1
  C  C7  1  0.10190000  0.38100000  0.80770000  1
  C  C8  1  0.60190000  0.30770000  0.88100000  1
  C  C9  1  0.15830000  0.29540000  0.00340000  1
  C  C10  1  0.65830000  0.50340000  0.79540000  1
  C  C11  1  0.11900000  0.34630000  0.87210000  1
  C  C12  1  0.61900000  0.37210000  0.84630000  1
  C  C13  1  0.42580000  0.57700000  0.15380000  1
  C  C14  1  0.92580000  0.65380000  0.07700000  1
  C  C15  1  0.40570000  0.51170000  0.17770000  1
  C  C16  1  0.90570000  0.67770000  0.01170000  1
  C  C17  1  0.44540000  0.69060000  0.07010000  1
  C  C18  1  0.94540000  0.57010000  0.19060000  1
  C  C19  1  0.80770000  0.10190000  0.38100000  1
  C  C20  1  0.30770000  0.88100000  0.60190000  1
  C  C21  1  0.80940000  0.05460000  0.42990000  1
  C  C22  1  0.30940000  0.92990000  0.55460000  1
  C  C23  1  0.79830000  0.89500000  0.56650000  1
  C  C24  1  0.29830000  0.06650000  0.39500000  1
  C  C25  1  0.46195000  0.75000000  0.03805000  1
  C  C26  1  0.96195000  0.53805000  0.25000000  1
  C  C27  1  0.80010000  0.94170000  0.51830000  1
  C  C28  1  0.30010000  0.01830000  0.44170000  1
  C  C29  1  0.11900000  0.39810000  0.69230000  1
  C  C30  1  0.61900000  0.19230000  0.89810000  1
  C  C31  1  0.19830000  0.28900000  0.94970000  1
  C  C32  1  0.69830000  0.44970000  0.78900000  1
  C  C33  1  0.17860000  0.31460000  0.88440000  1
  C  C34  1  0.67860000  0.38440000  0.81460000  1
  C  C35  1  0.88440000  0.17860000  0.31460000  1
  C  C36  1  0.38440000  0.81460000  0.67860000  1
  C  C37  1  0.87210000  0.11900000  0.34630000  1
  C  C38  1  0.37210000  0.84630000  0.61900000  1
  C  C39  1  0.77500000  0.68200000  0.57810000  1
  C  C40  1  0.27500000  0.07810000  0.18200000  1
  C  C41  1  0.51355000  0.75000000  0.98645000  1
  C  C42  1  0.01355000  0.48645000  0.25000000  1
  C  C43  1  0.51830000  0.80010000  0.94170000  1
  C  C44  1  0.01830000  0.44170000  0.30010000  1
  C  C45  1  0.15370000  0.38100000  0.62790000  1
  C  C46  1  0.65370000  0.12790000  0.88100000  1
  C  C47  1  0.42190000  0.22500000  0.31800000  1
  C  C48  1  0.92190000  0.81800000  0.72500000  1
  C  C49  1  0.15380000  0.42580000  0.57700000  1
  C  C50  1  0.65380000  0.07700000  0.92580000  1
  C  C51  1  0.94970000  0.19830000  0.28900000  1
  C  C52  1  0.44970000  0.78900000  0.69830000  1
  C  C53  1  0.39500000  0.29830000  0.06650000  1
  C  C54  1  0.89500000  0.56650000  0.79830000  1
  C  C55  1  0.92300000  0.07420000  0.34620000  1
  C  C56  1  0.42300000  0.84620000  0.57420000  1
  C  C57  1  0.79540000  0.65830000  0.50340000  1
  C  C58  1  0.29540000  0.00340000  0.15830000  1
  C  C59  1  0.78900000  0.69830000  0.44970000  1
  C  C60  1  0.28900000  0.94970000  0.19830000  1
  C  C61  1  0.18540000  0.32140000  0.61560000  1
  C  C62  1  0.68540000  0.11560000  0.82140000  1
  C  C63  1  0.55830000  0.69990000  0.98170000  1
  C  C64  1  0.05830000  0.48170000  0.19990000  1
  C  C65  1  0.17770000  0.40570000  0.51170000  1
  C  C66  1  0.67770000  0.01170000  0.90570000  1
  C  C67  1  0.56650000  0.79830000  0.89500000  1
  C  C68  1  0.06650000  0.39500000  0.29830000  1
  C  C69  1  0.01170000  0.90570000  0.67770000  1
  C  C70  1  0.51170000  0.17770000  0.40570000  1
  C  C71  1  0.49660000  0.20460000  0.34170000  1
  C  C72  1  0.99660000  0.84170000  0.70460000  1
  C  C73  1  0.00340000  0.15830000  0.29540000  1
  C  C74  1  0.50340000  0.79540000  0.65830000  1
  C  C75  1  0.98830000  0.09430000  0.32230000  1
  C  C76  1  0.48830000  0.82230000  0.59430000  1
  C  C77  1  0.93350000  0.60500000  0.70170000  1
  C  C78  1  0.43350000  0.20170000  0.10500000  1
  C  C79  1  0.32230000  0.98830000  0.09430000  1
  C  C80  1  0.82230000  0.59430000  0.48830000  1
  C  C81  1  0.44170000  0.30010000  0.01830000  1
  C  C82  1  0.94170000  0.51830000  0.80010000  1
  C  C83  1  0.81460000  0.67860000  0.38440000  1
  C  C84  1  0.31460000  0.88440000  0.17860000  1
  C  C85  1  0.21100000  0.30170000  0.55030000  1
  C  C86  1  0.71100000  0.05030000  0.80170000  1
  C  C87  1  0.20460000  0.34170000  0.49660000  1
  C  C88  1  0.70460000  0.99660000  0.84170000  1
  C  C89  1  0.07700000  0.92580000  0.65380000  1
  C  C90  1  0.57700000  0.15380000  0.42580000  1
  C  C91  1  0.60500000  0.70170000  0.93350000  1
  C  C92  1  0.10500000  0.43350000  0.20170000  1
  C  C93  1  0.55030000  0.21100000  0.30170000  1
  C  C94  1  0.05030000  0.80170000  0.71100000  1
  C  C95  1  0.34620000  0.92300000  0.07420000  1
  C  C96  1  0.84620000  0.57420000  0.42300000  1
  C  C97  1  0.07810000  0.18200000  0.27500000  1
  C  C98  1  0.57810000  0.77500000  0.68200000  1
  C  C99  1  0.84630000  0.61900000  0.37210000  1
  C  C100  1  0.34630000  0.87210000  0.11900000  1
  C  C101  1  0.98170000  0.55830000  0.69990000  1
  C  C102  1  0.48170000  0.19990000  0.05830000  1
  C  C103  1  0.98645000  0.51355000  0.75000000  1
  C  C104  1  0.48645000  0.25000000  0.01355000  1
  C  C105  1  0.22500000  0.31800000  0.42190000  1
  C  C106  1  0.72500000  0.92190000  0.81800000  1
  C  C107  1  0.62790000  0.15370000  0.38100000  1
  C  C108  1  0.12790000  0.88100000  0.65370000  1
  C  C109  1  0.61560000  0.18540000  0.32140000  1
  C  C110  1  0.11560000  0.82140000  0.68540000  1
  C  C111  1  0.82140000  0.68540000  0.11560000  1
  C  C112  1  0.32140000  0.61560000  0.18540000  1
  C  C113  1  0.80170000  0.71100000  0.05030000  1
  C  C114  1  0.30170000  0.55030000  0.21100000  1
  C  C115  1  0.88100000  0.60190000  0.30770000  1
  C  C116  1  0.38100000  0.80770000  0.10190000  1
  C  C117  1  0.19990000  0.05830000  0.48170000  1
  C  C118  1  0.69990000  0.98170000  0.55830000  1
  C  C119  1  0.03805000  0.46195000  0.75000000  1
  C  C120  1  0.53805000  0.25000000  0.96195000  1
  C  C121  1  0.20170000  0.10500000  0.43350000  1
  C  C122  1  0.70170000  0.93350000  0.60500000  1
  C  C123  1  0.19060000  0.94540000  0.57010000  1
  C  C124  1  0.69060000  0.07010000  0.44540000  1
  C  C125  1  0.69230000  0.11900000  0.39810000  1
  C  C126  1  0.19230000  0.89810000  0.61900000  1
  C  C127  1  0.55460000  0.30940000  0.92990000  1
  C  C128  1  0.05460000  0.42990000  0.80940000  1
  C  C129  1  0.59430000  0.48830000  0.82230000  1
  C  C130  1  0.09430000  0.32230000  0.98830000  1
  C  C131  1  0.57420000  0.42300000  0.84620000  1
  C  C132  1  0.07420000  0.34620000  0.92300000  1
  C  C133  1  0.88100000  0.65370000  0.12790000  1
  C  C134  1  0.38100000  0.62790000  0.15370000  1
  C  C135  1  0.84170000  0.70460000  0.99660000  1
  C  C136  1  0.34170000  0.49660000  0.20460000  1
  C  C137  1  0.89810000  0.61900000  0.19230000  1
  C  C138  1  0.39810000  0.69230000  0.11900000  1
  C  C139  1  0.81800000  0.72500000  0.92190000  1
  C  C140  1  0.31800000  0.42190000  0.22500000  1
  C  C141  1  0.42990000  0.80940000  0.05460000  1
  C  C142  1  0.92990000  0.55460000  0.30940000  1
  C  C143  1  0.25000000  0.96195000  0.53805000  1
  H  H144  1  0.20733333  0.20733333  0.20733333  1
  H  H145  1  0.29266667  0.29266667  0.29266667  1
  H  H146  1  0.70733333  0.70733333  0.70733333  1
  H  H147  1  0.79266667  0.79266667  0.79266667  1
  H  H148  1  0.05920000  0.46630000  0.64850000  1
  H  H149  1  0.55920000  0.14850000  0.96630000  1
  H  H150  1  0.84800000  0.20720000  0.30980000  1
  H  H151  1  0.34800000  0.80980000  0.70720000  1
  H  H152  1  0.48860000  0.83560000  0.94310000  1
  H  H153  1  0.98860000  0.44310000  0.33560000  1
  H  H154  1  0.13710000  0.47080000  0.58710000  1
  H  H155  1  0.63710000  0.08710000  0.97080000  1
  H  H156  1  0.47080000  0.58710000  0.13710000  1
  H  H157  1  0.97080000  0.63710000  0.08710000  1
  H  H158  1  0.43610000  0.47700000  0.17570000  1
  H  H159  1  0.93610000  0.67570000  0.97700000  1
  H  H160  1  0.46630000  0.64850000  0.05920000  1
  H  H161  1  0.96630000  0.55920000  0.14850000  1
  H  H162  1  0.85150000  0.03370000  0.44080000  1
  H  H163  1  0.35150000  0.94080000  0.53370000  1
  H  H164  1  0.83330000  0.86480000  0.56920000  1
  H  H165  1  0.33330000  0.06920000  0.36480000  1
  H  H166  1  0.83560000  0.94310000  0.48860000  1
  H  H167  1  0.33560000  0.98860000  0.44310000  1
  H  H168  1  0.23970000  0.26690000  0.95680000  1
  H  H169  1  0.73970000  0.45680000  0.76690000  1
  H  H170  1  0.20720000  0.30980000  0.84800000  1
  H  H171  1  0.70720000  0.34800000  0.80980000  1
  H  H172  1  0.36480000  0.33330000  0.06920000  1
  H  H173  1  0.86480000  0.56920000  0.83330000  1
  H  H174  1  0.76690000  0.73970000  0.45680000  1
  H  H175  1  0.26690000  0.95680000  0.23970000  1
  H  H176  1  0.97700000  0.93610000  0.67570000  1
  H  H177  1  0.47700000  0.17570000  0.43610000  1
  H  H178  1  0.95680000  0.23970000  0.26690000  1
  H  H179  1  0.45680000  0.76690000  0.73970000  1
  H  H180  1  0.91290000  0.02920000  0.36290000  1
  H  H181  1  0.41290000  0.86290000  0.52920000  1
  H  H182  1  0.19020000  0.29280000  0.65200000  1
  H  H183  1  0.69020000  0.15200000  0.79280000  1
  H  H184  1  0.55690000  0.66440000  0.01140000  1
  H  H185  1  0.05690000  0.51140000  0.16440000  1
  H  H186  1  0.17570000  0.43610000  0.47700000  1
  H  H187  1  0.67570000  0.97700000  0.93610000  1
  H  H188  1  0.56920000  0.83330000  0.86480000  1
  H  H189  1  0.06920000  0.36480000  0.33330000  1
  H  H190  1  0.93080000  0.63520000  0.66670000  1
  H  H191  1  0.43080000  0.16670000  0.13520000  1
  H  H192  1  0.32430000  0.02300000  0.06390000  1
  H  H193  1  0.82430000  0.56390000  0.52300000  1
  H  H194  1  0.44310000  0.33560000  0.98860000  1
  H  H195  1  0.94310000  0.48860000  0.83560000  1
  H  H196  1  0.80980000  0.70720000  0.34800000  1
  H  H197  1  0.30980000  0.84800000  0.20720000  1
  H  H198  1  0.08710000  0.97080000  0.63710000  1
  H  H199  1  0.58710000  0.13710000  0.47080000  1
  H  H200  1  0.54320000  0.23310000  0.26030000  1
  H  H201  1  0.04320000  0.76030000  0.73310000  1
  H  H202  1  0.02300000  0.06390000  0.32430000  1
  H  H203  1  0.52300000  0.82430000  0.56390000  1
  H  H204  1  0.23310000  0.26030000  0.54320000  1
  H  H205  1  0.73310000  0.04320000  0.76030000  1
  H  H206  1  0.63520000  0.66670000  0.93080000  1
  H  H207  1  0.13520000  0.43080000  0.16670000  1
  H  H208  1  0.79280000  0.69020000  0.15200000  1
  H  H209  1  0.29280000  0.65200000  0.19020000  1
  H  H210  1  0.76030000  0.73310000  0.04320000  1
  H  H211  1  0.26030000  0.54320000  0.23310000  1
  H  H212  1  0.16440000  0.05690000  0.51140000  1
  H  H213  1  0.66440000  0.01140000  0.55690000  1
  H  H214  1  0.16670000  0.13520000  0.43080000  1
  H  H215  1  0.66670000  0.93080000  0.63520000  1
  H  H216  1  0.14850000  0.96630000  0.55920000  1
  H  H217  1  0.64850000  0.05920000  0.46630000  1
  H  H218  1  0.53370000  0.35150000  0.94080000  1
  H  H219  1  0.03370000  0.44080000  0.85150000  1
  H  H220  1  0.56390000  0.52300000  0.82430000  1
  H  H221  1  0.06390000  0.32430000  0.02300000  1
  H  H222  1  0.52920000  0.41290000  0.86290000  1
  H  H223  1  0.02920000  0.36290000  0.91290000  1
  H  H224  1  0.36290000  0.91290000  0.02920000  1
  H  H225  1  0.86290000  0.52920000  0.41290000  1
  H  H226  1  0.01140000  0.55690000  0.66440000  1
  H  H227  1  0.51140000  0.16440000  0.05690000  1
  H  H228  1  0.65200000  0.19020000  0.29280000  1
  H  H229  1  0.15200000  0.79280000  0.69020000  1
  H  H230  1  0.44080000  0.85150000  0.03370000  1
  H  H231  1  0.94080000  0.53370000  0.35150000  1
  N  N232  1  0.75000000  0.89055000  0.60945000  1
  N  N233  1  0.75000000  0.13435000  0.36565000  1
  N  N234  1  0.25000000  0.86565000  0.63435000  1
  N  N235  1  0.25000000  0.10945000  0.39055000  1
  N  N236  1  0.13435000  0.36565000  0.75000000  1
  N  N237  1  0.63435000  0.25000000  0.86565000  1
  N  N238  1  0.89055000  0.60945000  0.75000000  1
  N  N239  1  0.39055000  0.25000000  0.10945000  1
  N  N240  1  0.60945000  0.75000000  0.89055000  1
  N  N241  1  0.10945000  0.39055000  0.25000000  1
  N  N242  1  0.86565000  0.63435000  0.25000000  1
  N  N243  1  0.36565000  0.75000000  0.13435000  1
  Ni  Ni244  1  0.75000000  0.81885000  0.68115000  1
  Ni  Ni245  1  0.25000000  0.18115000  0.31885000  1
  Ni  Ni246  1  0.81885000  0.68115000  0.75000000  1
  Ni  Ni247  1  0.31885000  0.25000000  0.18115000  1
  Ni  Ni248  1  0.68115000  0.75000000  0.81885000  1
  Ni  Ni249  1  0.18115000  0.31885000  0.25000000  1
  O  O250  1  0.25000000  0.25000000  0.25000000  1
  O  O251  1  0.75000000  0.75000000  0.75000000  1
  O  O252  1  0.34738000  0.36991000  0.20201000  1
  O  O253  1  0.84738000  0.70201000  0.86991000  1
  O  O254  1  0.23087000  0.23730000  0.08283000  1
  O  O255  1  0.73087000  0.58283000  0.73730000  1
  O  O256  1  0.73730000  0.73087000  0.58283000  1
  O  O257  1  0.23730000  0.08283000  0.23087000  1
  O  O258  1  0.86991000  0.84738000  0.70201000  1
  O  O259  1  0.36991000  0.20201000  0.34738000  1
  O  O260  1  0.41717000  0.26270000  0.26913000  1
  O  O261  1  0.91717000  0.76913000  0.76270000  1
  O  O262  1  0.29799000  0.13009000  0.15262000  1
  O  O263  1  0.79799000  0.65262000  0.63009000  1
  O  O264  1  0.20201000  0.34738000  0.36991000  1
  O  O265  1  0.70201000  0.86991000  0.84738000  1
  O  O266  1  0.08283000  0.23087000  0.23730000  1
  O  O267  1  0.58283000  0.73730000  0.73087000  1
  O  O268  1  0.13009000  0.15262000  0.29799000  1
  O  O269  1  0.63009000  0.79799000  0.65262000  1
  O  O270  1  0.26270000  0.26913000  0.41717000  1
  O  O271  1  0.76270000  0.91717000  0.76913000  1
  O  O272  1  0.76913000  0.76270000  0.91717000  1
  O  O273  1  0.26913000  0.41717000  0.26270000  1
  O  O274  1  0.65262000  0.63009000  0.79799000  1
  O  O275  1  0.15262000  0.29799000  0.13009000  1
