# generated using pymatgen
data_Cu2H32C61O8
_symmetry_space_group_name_H-M   'P 1'
_cell_length_a   19.94820000
_cell_length_b   19.94820000
_cell_length_c   45.44800000
_cell_angle_alpha   93.42030000
_cell_angle_beta   93.42030000
_cell_angle_gamma   96.61250000
_symmetry_Int_Tables_number   1
_chemical_formula_structural   Cu2H32C61O8
_chemical_formula_sum   'Cu8 H128 C244 O32'
_cell_volume   17892.43513561
_cell_formula_units_Z   4
loop_
 _symmetry_equiv_pos_site_id
 _symmetry_equiv_pos_as_xyz
  1  'x, y, z'
loop_
 _atom_site_type_symbol
 _atom_site_label
 _atom_site_symmetry_multiplicity
 _atom_site_fract_x
 _atom_site_fract_y
 _atom_site_fract_z
 _atom_site_occupancy
  Cu  Cu0  1  0.47372000  0.90742000  0.81450000  1
  Cu  Cu1  1  0.33830000  0.88494000  0.80543000  1
  Cu  Cu2  1  0.11506000  0.66170000  0.69457000  1
  Cu  Cu3  1  0.09258000  0.52628000  0.68550000  1
  Cu  Cu4  1  0.90742000  0.47372000  0.31450000  1
  Cu  Cu5  1  0.88494000  0.33830000  0.30543000  1
  Cu  Cu6  1  0.66170000  0.11506000  0.19457000  1
  Cu  Cu7  1  0.52628000  0.09258000  0.18550000  1
  H  H8  1  0.49150000  0.98550000  0.26480000  1
  H  H9  1  0.71710000  0.97810000  0.12660000  1
  H  H10  1  0.68790000  0.96330000  0.25830000  1
  H  H11  1  0.51480000  0.93740000  0.11610000  1
  H  H12  1  0.49070000  0.92630000  0.30720000  1
  H  H13  1  0.68710000  0.90410000  0.30070000  1
  H  H14  1  0.72760000  0.90220000  0.08690000  1
  H  H15  1  0.52530000  0.86150000  0.07640000  1
  H  H16  1  0.49290000  0.81690000  0.89680000  1
  H  H17  1  0.68400000  0.78800000  0.38250000  1
  H  H18  1  0.48200000  0.78460000  0.38100000  1
  H  H19  1  0.48660000  0.75220000  0.93760000  1
  H  H20  1  0.52290000  0.74930000  0.75170000  1
  H  H21  1  0.73710000  0.74090000  0.50770000  1
  H  H22  1  0.65180000  0.73940000  0.47060000  1
  H  H23  1  0.32320000  0.73860000  0.73060000  1
  H  H24  1  0.74090000  0.73710000  0.00770000  1
  H  H25  1  0.52060000  0.73400000  0.47020000  1
  H  H26  1  0.44330000  0.72890000  0.50640000  1
  H  H27  1  0.90220000  0.72760000  0.58690000  1
  H  H28  1  0.31110000  0.72570000  0.86450000  1
  H  H29  1  0.53800000  0.72340000  0.99880000  1
  H  H30  1  0.97810000  0.71710000  0.62660000  1
  H  H31  1  0.67960000  0.70800000  0.41760000  1
  H  H32  1  0.47760000  0.70460000  0.41610000  1
  H  H33  1  0.33890000  0.69530000  0.59470000  1
  H  H34  1  0.27430000  0.68890000  0.63550000  1
  H  H35  1  0.96330000  0.68790000  0.75830000  1
  H  H36  1  0.90410000  0.68710000  0.80070000  1
  H  H37  1  0.78800000  0.68400000  0.88250000  1
  H  H38  1  0.70800000  0.67960000  0.91760000  1
  H  H39  1  0.26140000  0.67680000  0.76940000  1
  H  H40  1  0.53290000  0.67110000  0.71280000  1
  H  H41  1  0.57630000  0.66930000  0.91460000  1
  H  H42  1  0.33960000  0.66680000  0.80830000  1
  H  H43  1  0.49460000  0.66340000  0.87570000  1
  H  H44  1  0.30470000  0.66110000  0.90530000  1
  H  H45  1  0.33320000  0.66040000  0.69170000  1
  H  H46  1  0.73940000  0.65180000  0.97060000  1
  H  H47  1  0.53650000  0.63810000  0.96170000  1
  H  H48  1  0.47390000  0.58270000  0.00540000  1
  H  H49  1  0.66930000  0.57630000  0.41460000  1
  H  H50  1  0.46650000  0.56670000  0.40900000  1
  H  H51  1  0.27110000  0.55670000  0.99360000  1
  H  H52  1  0.51490000  0.53930000  0.12990000  1
  H  H53  1  0.72340000  0.53800000  0.49880000  1
  H  H54  1  0.63810000  0.53650000  0.46170000  1
  H  H55  1  0.43330000  0.53350000  0.09100000  1
  H  H56  1  0.67110000  0.53290000  0.21280000  1
  H  H57  1  0.49460000  0.53120000  0.45840000  1
  H  H58  1  0.41730000  0.52610000  0.49460000  1
  H  H59  1  0.86150000  0.52530000  0.57640000  1
  H  H60  1  0.74930000  0.52290000  0.25170000  1
  H  H61  1  0.29540000  0.52240000  0.08390000  1
  H  H62  1  0.73400000  0.52060000  0.97020000  1
  H  H63  1  0.21540000  0.51800000  0.11900000  1
  H  H64  1  0.53930000  0.51490000  0.62990000  1
  H  H65  1  0.93740000  0.51480000  0.61610000  1
  H  H66  1  0.24780000  0.51340000  0.56240000  1
  H  H67  1  0.07370000  0.50930000  0.19280000  1
  H  H68  1  0.01450000  0.50850000  0.23520000  1
  H  H69  1  0.18310000  0.50710000  0.60320000  1
  H  H70  1  0.46880000  0.50540000  0.04160000  1
  H  H71  1  0.33660000  0.50540000  0.62430000  1
  H  H72  1  0.66340000  0.49460000  0.37570000  1
  H  H73  1  0.53120000  0.49460000  0.95840000  1
  H  H74  1  0.81690000  0.49290000  0.39680000  1
  H  H75  1  0.98550000  0.49150000  0.76480000  1
  H  H76  1  0.92630000  0.49070000  0.80720000  1
  H  H77  1  0.75220000  0.48660000  0.43760000  1
  H  H78  1  0.06260000  0.48520000  0.38390000  1
  H  H79  1  0.46070000  0.48510000  0.37010000  1
  H  H80  1  0.78460000  0.48200000  0.88100000  1
  H  H81  1  0.26600000  0.47940000  0.02980000  1
  H  H82  1  0.70460000  0.47760000  0.91610000  1
  H  H83  1  0.25070000  0.47710000  0.74830000  1
  H  H84  1  0.13850000  0.47470000  0.42360000  1
  H  H85  1  0.58270000  0.47390000  0.50540000  1
  H  H86  1  0.50540000  0.46880000  0.54160000  1
  H  H87  1  0.32890000  0.46710000  0.78720000  1
  H  H88  1  0.56670000  0.46650000  0.90900000  1
  H  H89  1  0.36190000  0.46350000  0.53830000  1
  H  H90  1  0.27660000  0.46200000  0.50120000  1
  H  H91  1  0.48510000  0.46070000  0.87010000  1
  H  H92  1  0.72890000  0.44330000  0.00640000  1
  H  H93  1  0.53350000  0.43330000  0.59100000  1
  H  H94  1  0.33070000  0.42370000  0.58540000  1
  H  H95  1  0.52610000  0.41730000  0.99460000  1
  H  H96  1  0.46350000  0.36190000  0.03830000  1
  H  H97  1  0.26060000  0.34820000  0.02940000  1
  H  H98  1  0.66680000  0.33960000  0.30830000  1
  H  H99  1  0.69530000  0.33890000  0.09470000  1
  H  H100  1  0.50540000  0.33660000  0.12430000  1
  H  H101  1  0.66040000  0.33320000  0.19170000  1
  H  H102  1  0.42370000  0.33070000  0.08540000  1
  H  H103  1  0.46710000  0.32890000  0.28720000  1
  H  H104  1  0.73860000  0.32320000  0.23060000  1
  H  H105  1  0.29200000  0.32040000  0.08240000  1
  H  H106  1  0.21200000  0.31600000  0.11750000  1
  H  H107  1  0.09590000  0.31290000  0.19930000  1
  H  H108  1  0.03670000  0.31210000  0.24170000  1
  H  H109  1  0.72570000  0.31110000  0.36450000  1
  H  H110  1  0.66110000  0.30470000  0.40530000  1
  H  H111  1  0.52240000  0.29540000  0.58390000  1
  H  H112  1  0.32040000  0.29200000  0.58240000  1
  H  H113  1  0.02190000  0.28290000  0.37340000  1
  H  H114  1  0.46200000  0.27660000  0.00120000  1
  H  H115  1  0.68890000  0.27430000  0.13550000  1
  H  H116  1  0.09780000  0.27240000  0.41310000  1
  H  H117  1  0.55670000  0.27110000  0.49360000  1
  H  H118  1  0.47940000  0.26600000  0.52980000  1
  H  H119  1  0.25910000  0.26290000  0.99230000  1
  H  H120  1  0.67680000  0.26140000  0.26940000  1
  H  H121  1  0.34820000  0.26060000  0.52940000  1
  H  H122  1  0.26290000  0.25910000  0.49230000  1
  H  H123  1  0.47710000  0.25070000  0.24830000  1
  H  H124  1  0.51340000  0.24780000  0.06240000  1
  H  H125  1  0.51800000  0.21540000  0.61900000  1
  H  H126  1  0.31600000  0.21200000  0.61750000  1
  H  H127  1  0.50710000  0.18310000  0.10320000  1
  H  H128  1  0.47470000  0.13850000  0.92360000  1
  H  H129  1  0.27240000  0.09780000  0.91310000  1
  H  H130  1  0.31290000  0.09590000  0.69930000  1
  H  H131  1  0.50930000  0.07370000  0.69280000  1
  H  H132  1  0.48520000  0.06260000  0.88390000  1
  H  H133  1  0.31210000  0.03670000  0.74170000  1
  H  H134  1  0.28290000  0.02190000  0.87340000  1
  H  H135  1  0.50850000  0.01450000  0.73520000  1
  C  C136  1  0.39390000  0.98570000  0.85000000  1
  C  C137  1  0.58980000  0.98020000  0.25731000  1
  C  C138  1  0.40910000  0.97710000  0.76890000  1
  C  C139  1  0.53070000  0.96910000  0.27200000  1
  C  C140  1  0.61490000  0.96530000  0.12528000  1
  C  C141  1  0.64830000  0.95590000  0.26810000  1
  C  C142  1  0.67870000  0.95470000  0.11650000  1
  C  C143  1  0.53020000  0.93360000  0.29740000  1
  C  C144  1  0.55740000  0.93040000  0.11020000  1
  C  C145  1  0.64780000  0.92040000  0.29350000  1
  C  C146  1  0.58870000  0.90930000  0.30813000  1
  C  C147  1  0.68500000  0.90920000  0.09280000  1
  C  C148  1  0.56370000  0.88490000  0.08640000  1
  C  C149  1  0.58730000  0.87770000  0.33560000  1
  C  C150  1  0.62750000  0.87430000  0.07770000  1
  C  C151  1  0.58430000  0.83370000  0.35310000  1
  C  C152  1  0.63100000  0.82500000  0.05210000  1
  C  C153  1  0.40950000  0.81930000  0.85000000  1
  C  C154  1  0.41870000  0.80410000  0.77060000  1
  C  C155  1  0.58340000  0.79420000  0.37830000  1
  C  C156  1  0.63260000  0.78700000  0.03080000  1
  C  C157  1  0.45510000  0.78570000  0.89850000  1
  C  C158  1  0.40260000  0.77780000  0.87664000  1
  C  C159  1  0.64270000  0.77130000  0.38920000  1
  C  C160  1  0.52160000  0.76920000  0.38830000  1
  C  C161  1  0.42210000  0.75170000  0.74503000  1
  C  C162  1  0.45140000  0.74700000  0.92290000  1
  C  C163  1  0.63960000  0.73860000  0.00693000  1
  C  C164  1  0.48490000  0.73150000  0.73970000  1
  C  C165  1  0.34630000  0.73110000  0.87920000  1
  C  C166  1  0.36530000  0.72510000  0.72710000  1
  C  C167  1  0.64000000  0.72340000  0.41030000  1
  C  C168  1  0.51900000  0.72120000  0.40940000  1
  C  C169  1  0.69990000  0.71730000  0.99850000  1
  C  C170  1  0.57840000  0.70900000  0.99310000  1
  C  C171  1  0.39500000  0.70020000  0.92540000  1
  C  C172  1  0.71730000  0.69990000  0.49850000  1
  C  C173  1  0.66620000  0.69900000  0.47620000  1
  C  C174  1  0.57820000  0.69840000  0.42031000  1
  C  C175  1  0.49990000  0.69230000  0.47510000  1
  C  C176  1  0.34250000  0.69230000  0.90360000  1
  C  C177  1  0.45350000  0.68930000  0.49680000  1
  C  C178  1  0.90920000  0.68500000  0.59280000  1
  C  C179  1  0.49080000  0.68460000  0.71640000  1
  C  C180  1  0.95470000  0.67870000  0.61650000  1
  C  C181  1  0.37120000  0.67820000  0.70380000  1
  C  C182  1  0.69900000  0.66620000  0.97620000  1
  C  C183  1  0.43400000  0.65800000  0.69843000  1
  C  C184  1  0.57750000  0.65790000  0.97090000  1
  C  C185  1  0.30770000  0.65750000  0.59640000  1
  C  C186  1  0.38950000  0.65730000  0.95080000  1
  C  C187  1  0.26890000  0.65370000  0.62080000  1
  C  C188  1  0.95590000  0.64830000  0.76810000  1
  C  C189  1  0.92040000  0.64780000  0.79350000  1
  C  C190  1  0.77130000  0.64270000  0.88920000  1
  C  C191  1  0.72340000  0.64000000  0.91030000  1
  C  C192  1  0.73860000  0.63960000  0.50693000  1
  C  C193  1  0.63640000  0.63780000  0.46246000  1
  C  C194  1  0.63780000  0.63640000  0.96246000  1
  C  C195  1  0.57360000  0.63640000  0.43970000  1
  C  C196  1  0.27490000  0.63470000  0.77290000  1
  C  C197  1  0.51530000  0.63310000  0.46072000  1
  C  C198  1  0.78700000  0.63260000  0.53080000  1
  C  C199  1  0.82500000  0.63100000  0.55210000  1
  C  C200  1  0.32180000  0.62880000  0.79620000  1
  C  C201  1  0.87430000  0.62750000  0.57770000  1
  C  C202  1  0.55800000  0.62740000  0.90570000  1
  C  C203  1  0.42260000  0.62700000  0.50410000  1
  C  C204  1  0.50910000  0.62390000  0.88240000  1
  C  C205  1  0.38570000  0.62230000  0.97220000  1
  C  C206  1  0.96530000  0.61490000  0.62528000  1
  C  C207  1  0.37770000  0.61430000  0.52780000  1
  C  C208  1  0.44120000  0.61160000  0.67540000  1
  C  C209  1  0.34270000  0.61050000  0.54920000  1
  C  C210  1  0.01430000  0.60610000  0.65000000  1
  C  C211  1  0.29980000  0.60500000  0.57460000  1
  C  C212  1  0.22220000  0.59740000  0.62336000  1
  C  C213  1  0.02290000  0.59090000  0.73110000  1
  C  C214  1  0.18070000  0.59050000  0.65000000  1
  C  C215  1  0.98020000  0.58980000  0.75731000  1
  C  C216  1  0.90930000  0.58870000  0.80813000  1
  C  C217  1  0.87770000  0.58730000  0.83560000  1
  C  C218  1  0.83370000  0.58430000  0.85310000  1
  C  C219  1  0.79420000  0.58340000  0.87830000  1
  C  C220  1  0.19590000  0.58130000  0.72940000  1
  C  C221  1  0.56840000  0.57960000  0.41567000  1
  C  C222  1  0.70900000  0.57840000  0.49310000  1
  C  C223  1  0.69840000  0.57820000  0.92031000  1
  C  C224  1  0.24830000  0.57790000  0.75497000  1
  C  C225  1  0.65790000  0.57750000  0.47090000  1
  C  C226  1  0.37300000  0.57740000  0.99590000  1
  C  C227  1  0.63640000  0.57360000  0.93970000  1
  C  C228  1  0.48430000  0.57090000  0.46800000  1
  C  C229  1  0.44520000  0.56960000  0.65550000  1
  C  C230  1  0.57960000  0.56840000  0.91567000  1
  C  C231  1  0.43800000  0.56780000  0.48970000  1
  C  C232  1  0.34200000  0.56600000  0.80157000  1
  C  C233  1  0.88490000  0.56370000  0.58640000  1
  C  C234  1  0.43220000  0.56200000  0.01030000  1
  C  C235  1  0.48180000  0.56140000  0.86901000  1
  C  C236  1  0.38840000  0.55880000  0.82460000  1
  C  C237  1  0.62740000  0.55800000  0.40570000  1
  C  C238  1  0.93040000  0.55740000  0.61020000  1
  C  C239  1  0.43040000  0.55480000  0.84450000  1
  C  C240  1  0.50600000  0.55220000  0.40230000  1
  C  C241  1  0.25300000  0.54860000  0.57710000  1
  C  C242  1  0.31070000  0.54650000  0.00320000  1
  C  C243  1  0.21430000  0.54490000  0.60150000  1
  C  C244  1  0.96910000  0.53070000  0.77200000  1
  C  C245  1  0.93360000  0.53020000  0.79740000  1
  C  C246  1  0.76920000  0.52160000  0.88830000  1
  C  C247  1  0.72120000  0.51900000  0.90940000  1
  C  C248  1  0.43860000  0.51820000  0.63099000  1
  C  C249  1  0.42910000  0.51570000  0.03200000  1
  C  C250  1  0.63310000  0.51530000  0.96072000  1
  C  C251  1  0.26850000  0.51510000  0.76030000  1
  C  C252  1  0.31540000  0.50920000  0.78360000  1
  C  C253  1  0.62390000  0.50910000  0.38240000  1
  C  C254  1  0.55220000  0.50600000  0.90230000  1
  C  C255  1  0.50240000  0.50340000  0.37900000  1
  C  C256  1  0.50340000  0.50240000  0.87900000  1
  C  C257  1  0.30770000  0.50010000  0.02490000  1
  C  C258  1  0.69230000  0.49990000  0.97510000  1
  C  C259  1  0.49660000  0.49760000  0.12100000  1
  C  C260  1  0.49760000  0.49660000  0.62100000  1
  C  C261  1  0.44780000  0.49400000  0.09770000  1
  C  C262  1  0.37610000  0.49090000  0.61760000  1
  C  C263  1  0.68460000  0.49080000  0.21640000  1
  C  C264  1  0.73150000  0.48490000  0.23970000  1
  C  C265  1  0.36690000  0.48470000  0.03928000  1
  C  C266  1  0.57090000  0.48430000  0.96800000  1
  C  C267  1  0.56140000  0.48180000  0.36901000  1
  C  C268  1  0.27880000  0.48100000  0.09060000  1
  C  C269  1  0.23080000  0.47840000  0.11170000  1
  C  C270  1  0.06640000  0.46980000  0.20260000  1
  C  C271  1  0.03090000  0.46930000  0.22800000  1
  C  C272  1  0.78570000  0.45510000  0.39850000  1
  C  C273  1  0.68930000  0.45350000  0.99680000  1
  C  C274  1  0.74700000  0.45140000  0.42290000  1
  C  C275  1  0.49400000  0.44780000  0.59770000  1
  C  C276  1  0.56960000  0.44520000  0.15550000  1
  C  C277  1  0.06960000  0.44260000  0.38980000  1
  C  C278  1  0.37260000  0.44200000  0.59430000  1
  C  C279  1  0.61160000  0.44120000  0.17540000  1
  C  C280  1  0.51820000  0.43860000  0.13099000  1
  C  C281  1  0.56780000  0.43800000  0.98970000  1
  C  C282  1  0.11510000  0.43630000  0.41360000  1
  C  C283  1  0.65800000  0.43400000  0.19843000  1
  C  C284  1  0.56200000  0.43220000  0.51030000  1
  C  C285  1  0.42040000  0.43160000  0.08433000  1
  C  C286  1  0.55480000  0.43040000  0.34450000  1
  C  C287  1  0.51570000  0.42910000  0.53200000  1
  C  C288  1  0.36360000  0.42640000  0.06030000  1
  C  C289  1  0.62700000  0.42260000  0.00410000  1
  C  C290  1  0.34210000  0.42250000  0.52910000  1
  C  C291  1  0.75170000  0.42210000  0.24503000  1
  C  C292  1  0.30160000  0.42180000  0.07969000  1
  C  C293  1  0.29100000  0.42160000  0.50690000  1
  C  C294  1  0.43160000  0.42040000  0.58433000  1
  C  C295  1  0.80410000  0.41870000  0.27060000  1
  C  C296  1  0.20580000  0.41660000  0.12170000  1
  C  C297  1  0.16630000  0.41570000  0.14690000  1
  C  C298  1  0.12230000  0.41270000  0.16440000  1
  C  C299  1  0.09070000  0.41130000  0.19187000  1
  C  C300  1  0.01980000  0.41020000  0.24269000  1
  C  C301  1  0.81930000  0.40950000  0.35000000  1
  C  C302  1  0.97710000  0.40910000  0.26890000  1
  C  C303  1  0.77780000  0.40260000  0.37664000  1
  C  C304  1  0.70020000  0.39500000  0.42540000  1
  C  C305  1  0.98570000  0.39390000  0.35000000  1
  C  C306  1  0.65730000  0.38950000  0.45080000  1
  C  C307  1  0.55880000  0.38840000  0.32460000  1
  C  C308  1  0.62230000  0.38570000  0.47220000  1
  C  C309  1  0.03470000  0.38510000  0.37472000  1
  C  C310  1  0.61430000  0.37770000  0.02780000  1
  C  C311  1  0.49090000  0.37610000  0.11760000  1
  C  C312  1  0.57740000  0.37300000  0.49590000  1
  C  C313  1  0.44200000  0.37260000  0.09430000  1
  C  C314  1  0.12570000  0.37250000  0.42230000  1
  C  C315  1  0.67820000  0.37120000  0.20380000  1
  C  C316  1  0.17500000  0.36900000  0.44790000  1
  C  C317  1  0.21300000  0.36740000  0.46920000  1
  C  C318  1  0.48470000  0.36690000  0.53928000  1
  C  C319  1  0.72510000  0.36530000  0.22710000  1
  C  C320  1  0.42640000  0.36360000  0.56030000  1
  C  C321  1  0.36220000  0.36360000  0.03754000  1
  C  C322  1  0.36360000  0.36220000  0.53754000  1
  C  C323  1  0.26140000  0.36040000  0.49307000  1
  C  C324  1  0.27660000  0.36000000  0.08970000  1
  C  C325  1  0.22870000  0.35730000  0.11080000  1
  C  C326  1  0.07960000  0.35220000  0.20650000  1
  C  C327  1  0.04410000  0.35170000  0.23190000  1
  C  C328  1  0.73110000  0.34630000  0.37920000  1
  C  C329  1  0.61050000  0.34270000  0.04920000  1
  C  C330  1  0.69230000  0.34250000  0.40360000  1
  C  C331  1  0.42250000  0.34210000  0.02910000  1
  C  C332  1  0.56600000  0.34200000  0.30157000  1
  C  C333  1  0.30100000  0.33380000  0.02380000  1
  C  C334  1  0.62880000  0.32180000  0.29620000  1
  C  C335  1  0.04530000  0.32130000  0.38350000  1
  C  C336  1  0.50920000  0.31540000  0.28360000  1
  C  C337  1  0.09080000  0.31500000  0.40720000  1
  C  C338  1  0.54650000  0.31070000  0.50320000  1
  C  C339  1  0.65750000  0.30770000  0.09640000  1
  C  C340  1  0.50010000  0.30770000  0.52490000  1
  C  C341  1  0.42180000  0.30160000  0.57969000  1
  C  C342  1  0.33380000  0.30100000  0.52380000  1
  C  C343  1  0.28270000  0.30010000  0.50150000  1
  C  C344  1  0.60500000  0.29980000  0.07460000  1
  C  C345  1  0.42160000  0.29100000  0.00690000  1
  C  C346  1  0.30010000  0.28270000  0.00150000  1
  C  C347  1  0.48100000  0.27880000  0.59060000  1
  C  C348  1  0.36000000  0.27660000  0.58970000  1
  C  C349  1  0.63470000  0.27490000  0.27290000  1
  C  C350  1  0.65370000  0.26890000  0.12080000  1
  C  C351  1  0.51510000  0.26850000  0.26030000  1
  C  C352  1  0.36040000  0.26140000  0.99307000  1
  C  C353  1  0.54860000  0.25300000  0.07710000  1
  C  C354  1  0.57790000  0.24830000  0.25497000  1
  C  C355  1  0.47840000  0.23080000  0.61170000  1
  C  C356  1  0.35730000  0.22870000  0.61080000  1
  C  C357  1  0.59740000  0.22220000  0.12336000  1
  C  C358  1  0.54490000  0.21430000  0.10150000  1
  C  C359  1  0.36740000  0.21300000  0.96920000  1
  C  C360  1  0.41660000  0.20580000  0.62170000  1
  C  C361  1  0.58130000  0.19590000  0.22940000  1
  C  C362  1  0.59050000  0.18070000  0.15000000  1
  C  C363  1  0.36900000  0.17500000  0.94790000  1
  C  C364  1  0.41570000  0.16630000  0.64690000  1
  C  C365  1  0.37250000  0.12570000  0.92230000  1
  C  C366  1  0.41270000  0.12230000  0.66440000  1
  C  C367  1  0.43630000  0.11510000  0.91360000  1
  C  C368  1  0.31500000  0.09080000  0.90720000  1
  C  C369  1  0.41130000  0.09070000  0.69187000  1
  C  C370  1  0.35220000  0.07960000  0.70650000  1
  C  C371  1  0.44260000  0.06960000  0.88980000  1
  C  C372  1  0.46980000  0.06640000  0.70260000  1
  C  C373  1  0.32130000  0.04530000  0.88350000  1
  C  C374  1  0.35170000  0.04410000  0.73190000  1
  C  C375  1  0.38510000  0.03470000  0.87472000  1
  C  C376  1  0.46930000  0.03090000  0.72800000  1
  C  C377  1  0.59090000  0.02290000  0.23110000  1
  C  C378  1  0.41020000  0.01980000  0.74269000  1
  C  C379  1  0.60610000  0.01430000  0.15000000  1
  O  O380  1  0.45270000  0.98130000  0.84200000  1
  O  O381  1  0.46620000  0.96280000  0.78080000  1
  O  O382  1  0.35080000  0.95700000  0.77790000  1
  O  O383  1  0.33590000  0.95270000  0.83910000  1
  O  O384  1  0.46930000  0.85130000  0.84730000  1
  O  O385  1  0.47350000  0.82970000  0.78710000  1
  O  O386  1  0.36040000  0.82160000  0.77470000  1
  O  O387  1  0.35120000  0.81580000  0.83510000  1
  O  O388  1  0.04730000  0.66410000  0.66090000  1
  O  O389  1  0.04300000  0.64920000  0.72210000  1
  O  O390  1  0.18420000  0.64880000  0.66490000  1
  O  O391  1  0.17840000  0.63960000  0.72530000  1
  O  O392  1  0.01870000  0.54730000  0.65800000  1
  O  O393  1  0.03720000  0.53380000  0.71920000  1
  O  O394  1  0.14870000  0.53070000  0.65270000  1
  O  O395  1  0.17030000  0.52650000  0.71290000  1
  O  O396  1  0.82970000  0.47350000  0.28710000  1
  O  O397  1  0.85130000  0.46930000  0.34730000  1
  O  O398  1  0.96280000  0.46620000  0.28080000  1
  O  O399  1  0.98130000  0.45270000  0.34200000  1
  O  O400  1  0.82160000  0.36040000  0.27470000  1
  O  O401  1  0.81580000  0.35120000  0.33510000  1
  O  O402  1  0.95700000  0.35080000  0.27790000  1
  O  O403  1  0.95270000  0.33590000  0.33910000  1
  O  O404  1  0.64880000  0.18420000  0.16490000  1
  O  O405  1  0.63960000  0.17840000  0.22530000  1
  O  O406  1  0.52650000  0.17030000  0.21290000  1
  O  O407  1  0.53070000  0.14870000  0.15270000  1
  O  O408  1  0.66410000  0.04730000  0.16090000  1
  O  O409  1  0.64920000  0.04300000  0.22210000  1
  O  O410  1  0.53380000  0.03720000  0.21920000  1
  O  O411  1  0.54730000  0.01870000  0.15800000  1
