# generated using pymatgen
data_KFeN18
_symmetry_space_group_name_H-M   'P 1'
_cell_length_a   13.16760000
_cell_length_b   13.16760000
_cell_length_c   13.16760000
_cell_angle_alpha   90.00000000
_cell_angle_beta   90.00000000
_cell_angle_gamma   90.00000000
_symmetry_Int_Tables_number   1
_chemical_formula_structural   KFeN18
_chemical_formula_sum   'K4 Fe4 N72'
_cell_volume   2283.07340848
_cell_formula_units_Z   4
loop_
 _symmetry_equiv_pos_site_id
 _symmetry_equiv_pos_as_xyz
  1  'x, y, z'
loop_
 _atom_site_type_symbol
 _atom_site_label
 _atom_site_symmetry_multiplicity
 _atom_site_fract_x
 _atom_site_fract_y
 _atom_site_fract_z
 _atom_site_occupancy
  K  K0  1  0.00000000  0.00000000  0.00000000  1
  K  K1  1  0.00000000  0.50000000  0.50000000  1
  K  K2  1  0.50000000  0.00000000  0.50000000  1
  K  K3  1  0.50000000  0.50000000  0.00000000  1
  Fe  Fe4  1  0.00000000  0.00000000  0.50000000  1
  Fe  Fe5  1  0.00000000  0.50000000  0.00000000  1
  Fe  Fe6  1  0.50000000  0.00000000  0.00000000  1
  Fe  Fe7  1  0.50000000  0.50000000  0.50000000  1
  N  N8  1  0.02008000  0.03994000  0.28464000  1
  N  N9  1  0.02008000  0.46006000  0.78464000  1
  N  N10  1  0.02143000  0.53625000  0.29265000  1
  N  N11  1  0.02143000  0.96375000  0.79265000  1
  N  N12  1  0.03625000  0.20735000  0.97857000  1
  N  N13  1  0.03625000  0.29265000  0.47857000  1
  N  N14  1  0.03994000  0.21536000  0.52008000  1
  N  N15  1  0.03994000  0.28464000  0.02008000  1
  N  N16  1  0.04528000  0.13696000  0.56483000  1
  N  N17  1  0.04528000  0.36304000  0.06483000  1
  N  N18  1  0.06483000  0.04528000  0.36304000  1
  N  N19  1  0.06483000  0.45472000  0.86304000  1
  N  N20  1  0.13696000  0.56483000  0.04528000  1
  N  N21  1  0.13696000  0.93517000  0.54528000  1
  N  N22  1  0.20735000  0.52143000  0.53625000  1
  N  N23  1  0.20735000  0.97857000  0.03625000  1
  N  N24  1  0.21536000  0.52008000  0.03994000  1
  N  N25  1  0.21536000  0.97992000  0.53994000  1
  N  N26  1  0.28464000  0.02008000  0.03994000  1
  N  N27  1  0.28464000  0.47992000  0.53994000  1
  N  N28  1  0.29265000  0.02143000  0.53625000  1
  N  N29  1  0.29265000  0.47857000  0.03625000  1
  N  N30  1  0.36304000  0.06483000  0.04528000  1
  N  N31  1  0.36304000  0.43517000  0.54528000  1
  N  N32  1  0.43517000  0.54528000  0.36304000  1
  N  N33  1  0.43517000  0.95472000  0.86304000  1
  N  N34  1  0.45472000  0.63696000  0.56483000  1
  N  N35  1  0.45472000  0.86304000  0.06483000  1
  N  N36  1  0.46006000  0.71536000  0.52008000  1
  N  N37  1  0.46006000  0.78464000  0.02008000  1
  N  N38  1  0.46375000  0.70735000  0.97857000  1
  N  N39  1  0.46375000  0.79265000  0.47857000  1
  N  N40  1  0.47857000  0.03625000  0.29265000  1
  N  N41  1  0.47857000  0.46375000  0.79265000  1
  N  N42  1  0.47992000  0.53994000  0.28464000  1
  N  N43  1  0.47992000  0.96006000  0.78464000  1
  N  N44  1  0.52008000  0.03994000  0.21536000  1
  N  N45  1  0.52008000  0.46006000  0.71536000  1
  N  N46  1  0.52143000  0.53625000  0.20735000  1
  N  N47  1  0.52143000  0.96375000  0.70735000  1
  N  N48  1  0.53625000  0.20735000  0.52143000  1
  N  N49  1  0.53625000  0.29265000  0.02143000  1
  N  N50  1  0.53994000  0.21536000  0.97992000  1
  N  N51  1  0.53994000  0.28464000  0.47992000  1
  N  N52  1  0.54528000  0.13696000  0.93517000  1
  N  N53  1  0.54528000  0.36304000  0.43517000  1
  N  N54  1  0.56483000  0.04528000  0.13696000  1
  N  N55  1  0.56483000  0.45472000  0.63696000  1
  N  N56  1  0.63696000  0.56483000  0.45472000  1
  N  N57  1  0.63696000  0.93517000  0.95472000  1
  N  N58  1  0.70735000  0.52143000  0.96375000  1
  N  N59  1  0.70735000  0.97857000  0.46375000  1
  N  N60  1  0.71536000  0.52008000  0.46006000  1
  N  N61  1  0.71536000  0.97992000  0.96006000  1
  N  N62  1  0.78464000  0.02008000  0.46006000  1
  N  N63  1  0.78464000  0.47992000  0.96006000  1
  N  N64  1  0.79265000  0.02143000  0.96375000  1
  N  N65  1  0.79265000  0.47857000  0.46375000  1
  N  N66  1  0.86304000  0.06483000  0.45472000  1
  N  N67  1  0.86304000  0.43517000  0.95472000  1
  N  N68  1  0.93517000  0.54528000  0.13696000  1
  N  N69  1  0.93517000  0.95472000  0.63696000  1
  N  N70  1  0.95472000  0.63696000  0.93517000  1
  N  N71  1  0.95472000  0.86304000  0.43517000  1
  N  N72  1  0.96006000  0.71536000  0.97992000  1
  N  N73  1  0.96006000  0.78464000  0.47992000  1
  N  N74  1  0.96375000  0.70735000  0.52143000  1
  N  N75  1  0.96375000  0.79265000  0.02143000  1
  N  N76  1  0.97857000  0.03625000  0.20735000  1
  N  N77  1  0.97857000  0.46375000  0.70735000  1
  N  N78  1  0.97992000  0.53994000  0.21536000  1
  N  N79  1  0.97992000  0.96006000  0.71536000  1
