# generated using pymatgen
data_Zn3(PO3)4
_symmetry_space_group_name_H-M   'P 1'
_cell_length_a   11.24200000
_cell_length_b   14.36700000
_cell_length_c   16.75100000
_cell_angle_alpha   90.00000000
_cell_angle_beta   109.51800000
_cell_angle_gamma   90.00000000
_symmetry_Int_Tables_number   1
_chemical_formula_structural   Zn3(PO3)4
_chemical_formula_sum   'Zn12 P16 O48'
_cell_volume   2550.04957634
_cell_formula_units_Z   4
loop_
 _symmetry_equiv_pos_site_id
 _symmetry_equiv_pos_as_xyz
  1  'x, y, z'
loop_
 _atom_site_type_symbol
 _atom_site_label
 _atom_site_symmetry_multiplicity
 _atom_site_fract_x
 _atom_site_fract_y
 _atom_site_fract_z
 _atom_site_occupancy
  Zn  Zn0  1  0.11766000  0.62067000  0.97249000  1
  Zn  Zn1  1  0.11766000  0.87933000  0.47249000  1
  Zn  Zn2  1  0.25784000  0.62539000  0.24670000  1
  Zn  Zn3  1  0.25784000  0.87461000  0.74670000  1
  Zn  Zn4  1  0.39177000  0.62918000  0.51984000  1
  Zn  Zn5  1  0.39177000  0.87082000  0.01984000  1
  Zn  Zn6  1  0.60823000  0.12918000  0.98016000  1
  Zn  Zn7  1  0.60823000  0.37082000  0.48016000  1
  Zn  Zn8  1  0.74216000  0.12539000  0.25330000  1
  Zn  Zn9  1  0.74216000  0.37461000  0.75330000  1
  Zn  Zn10  1  0.88234000  0.12067000  0.52751000  1
  Zn  Zn11  1  0.88234000  0.37933000  0.02751000  1
  P  P12  1  0.00450000  0.07390000  0.38600000  1
  P  P13  1  0.00450000  0.42610000  0.88600000  1
  P  P14  1  0.13320000  0.68830000  0.38020000  1
  P  P15  1  0.13320000  0.81170000  0.88020000  1
  P  P16  1  0.37920000  0.67590000  0.11040000  1
  P  P17  1  0.37920000  0.82410000  0.61040000  1
  P  P18  1  0.48840000  0.06120000  0.11820000  1
  P  P19  1  0.48840000  0.43880000  0.61820000  1
  P  P20  1  0.51160000  0.56120000  0.38180000  1
  P  P21  1  0.51160000  0.93880000  0.88180000  1
  P  P22  1  0.62080000  0.17590000  0.38960000  1
  P  P23  1  0.62080000  0.32410000  0.88960000  1
  P  P24  1  0.86680000  0.18830000  0.11980000  1
  P  P25  1  0.86680000  0.31170000  0.61980000  1
  P  P26  1  0.99550000  0.57390000  0.11400000  1
  P  P27  1  0.99550000  0.92610000  0.61400000  1
  O  O28  1  0.00220000  0.62130000  0.03560000  1
  O  O29  1  0.00220000  0.87870000  0.53560000  1
  O  O30  1  0.06540000  0.72720000  0.89640000  1
  O  O31  1  0.06540000  0.77280000  0.39640000  1
  O  O32  1  0.09630000  0.50540000  0.90560000  1
  O  O33  1  0.09630000  0.99460000  0.40560000  1
  O  O34  1  0.12550000  0.54590000  0.17470000  1
  O  O35  1  0.12550000  0.95410000  0.67470000  1
  O  O36  1  0.20060000  0.70820000  0.31860000  1
  O  O37  1  0.20060000  0.79180000  0.81860000  1
  O  O38  1  0.21090000  0.63930000  0.45880000  1
  O  O39  1  0.21090000  0.86070000  0.95880000  1
  O  O40  1  0.29490000  0.62090000  0.03540000  1
  O  O41  1  0.29490000  0.87910000  0.53540000  1
  O  O42  1  0.31500000  0.70360000  0.17340000  1
  O  O43  1  0.31500000  0.79640000  0.67340000  1
  O  O44  1  0.38590000  0.54430000  0.31720000  1
  O  O45  1  0.38590000  0.95570000  0.81720000  1
  O  O46  1  0.41130000  0.52790000  0.59810000  1
  O  O47  1  0.41130000  0.97210000  0.09810000  1
  O  O48  1  0.44350000  0.74320000  0.58550000  1
  O  O49  1  0.44350000  0.75680000  0.08550000  1
  O  O50  1  0.49060000  0.11660000  0.04170000  1
  O  O51  1  0.49060000  0.38340000  0.54170000  1
  O  O52  1  0.50940000  0.61660000  0.45830000  1
  O  O53  1  0.50940000  0.88340000  0.95830000  1
  O  O54  1  0.55650000  0.24320000  0.91450000  1
  O  O55  1  0.55650000  0.25680000  0.41450000  1
  O  O56  1  0.58870000  0.02790000  0.90190000  1
  O  O57  1  0.58870000  0.47210000  0.40190000  1
  O  O58  1  0.61410000  0.04430000  0.18280000  1
  O  O59  1  0.61410000  0.45570000  0.68280000  1
  O  O60  1  0.68500000  0.20360000  0.32660000  1
  O  O61  1  0.68500000  0.29640000  0.82660000  1
  O  O62  1  0.70510000  0.12090000  0.46460000  1
  O  O63  1  0.70510000  0.37910000  0.96460000  1
  O  O64  1  0.78910000  0.13930000  0.04120000  1
  O  O65  1  0.78910000  0.36070000  0.54120000  1
  O  O66  1  0.79940000  0.20820000  0.18140000  1
  O  O67  1  0.79940000  0.29180000  0.68140000  1
  O  O68  1  0.87450000  0.04590000  0.32530000  1
  O  O69  1  0.87450000  0.45410000  0.82530000  1
  O  O70  1  0.90370000  0.00540000  0.59440000  1
  O  O71  1  0.90370000  0.49460000  0.09440000  1
  O  O72  1  0.93460000  0.22720000  0.60360000  1
  O  O73  1  0.93460000  0.27280000  0.10360000  1
  O  O74  1  0.99780000  0.12130000  0.46440000  1
  O  O75  1  0.99780000  0.37870000  0.96440000  1
