# generated using pymatgen
data_CoH13C15(NO2)2
_symmetry_space_group_name_H-M   'P 1'
_cell_length_a   8.38520000
_cell_length_b   14.71100000
_cell_length_c   15.77100000
_cell_angle_alpha   90.00000000
_cell_angle_beta   102.48500000
_cell_angle_gamma   90.00000000
_symmetry_Int_Tables_number   1
_chemical_formula_structural   CoH13C15(NO2)2
_chemical_formula_sum   'Co4 H52 C60 N8 O16'
_cell_volume   1899.42240561
_cell_formula_units_Z   4
loop_
 _symmetry_equiv_pos_site_id
 _symmetry_equiv_pos_as_xyz
  1  'x, y, z'
loop_
 _atom_site_type_symbol
 _atom_site_label
 _atom_site_symmetry_multiplicity
 _atom_site_fract_x
 _atom_site_fract_y
 _atom_site_fract_z
 _atom_site_occupancy
  Co  Co0  1  0.16833000  0.91724000  0.61030000  1
  Co  Co1  1  0.33167000  0.41724000  0.38970000  1
  Co  Co2  1  0.66833000  0.58276000  0.61030000  1
  Co  Co3  1  0.83167000  0.08276000  0.38970000  1
  H  H4  1  0.00590000  0.09430000  0.98500000  1
  H  H5  1  0.01750000  0.61530000  0.32000000  1
  H  H6  1  0.06630000  0.26930000  0.77210000  1
  H  H7  1  0.10170000  0.19880000  0.64370000  1
  H  H8  1  0.10800000  0.10190000  0.29520000  1
  H  H9  1  0.11020000  0.36030000  0.82360000  1
  H  H10  1  0.15280000  0.43220000  0.70630000  1
  H  H11  1  0.15300000  0.96460000  0.04190000  1
  H  H12  1  0.18390000  0.06530000  0.16890000  1
  H  H13  1  0.21150000  0.08930000  0.89420000  1
  H  H14  1  0.21610000  0.44420000  0.56880000  1
  H  H15  1  0.21920000  0.54640000  0.23240000  1
  H  H16  1  0.24650000  0.30530000  0.79180000  1
  H  H17  1  0.25350000  0.80530000  0.20820000  1
  H  H18  1  0.28080000  0.04640000  0.76760000  1
  H  H19  1  0.28390000  0.94420000  0.43120000  1
  H  H20  1  0.28850000  0.58930000  0.10580000  1
  H  H21  1  0.31610000  0.56530000  0.83110000  1
  H  H22  1  0.34700000  0.46460000  0.95810000  1
  H  H23  1  0.34720000  0.93220000  0.29370000  1
  H  H24  1  0.38980000  0.86030000  0.17640000  1
  H  H25  1  0.39200000  0.60190000  0.70480000  1
  H  H26  1  0.39830000  0.69880000  0.35630000  1
  H  H27  1  0.43370000  0.76930000  0.22790000  1
  H  H28  1  0.48250000  0.11530000  0.68000000  1
  H  H29  1  0.49410000  0.59430000  0.01500000  1
  H  H30  1  0.50590000  0.40570000  0.98500000  1
  H  H31  1  0.51750000  0.88470000  0.32000000  1
  H  H32  1  0.56630000  0.23070000  0.77210000  1
  H  H33  1  0.60170000  0.30120000  0.64370000  1
  H  H34  1  0.60800000  0.39810000  0.29520000  1
  H  H35  1  0.61020000  0.13970000  0.82360000  1
  H  H36  1  0.65280000  0.06780000  0.70630000  1
  H  H37  1  0.65300000  0.53540000  0.04190000  1
  H  H38  1  0.68390000  0.43470000  0.16890000  1
  H  H39  1  0.71150000  0.41070000  0.89420000  1
  H  H40  1  0.71610000  0.05580000  0.56880000  1
  H  H41  1  0.71920000  0.95360000  0.23240000  1
  H  H42  1  0.74650000  0.19470000  0.79180000  1
  H  H43  1  0.75350000  0.69470000  0.20820000  1
  H  H44  1  0.78080000  0.45360000  0.76760000  1
  H  H45  1  0.78390000  0.55580000  0.43120000  1
  H  H46  1  0.78850000  0.91070000  0.10580000  1
  H  H47  1  0.81610000  0.93470000  0.83110000  1
  H  H48  1  0.84700000  0.03540000  0.95810000  1
  H  H49  1  0.84720000  0.56780000  0.29370000  1
  H  H50  1  0.88980000  0.63970000  0.17640000  1
  H  H51  1  0.89200000  0.89810000  0.70480000  1
  H  H52  1  0.89830000  0.80120000  0.35630000  1
  H  H53  1  0.93370000  0.73070000  0.22790000  1
  H  H54  1  0.98250000  0.38470000  0.68000000  1
  H  H55  1  0.99410000  0.90570000  0.01500000  1
  C  C56  1  0.00800000  0.01370000  0.87994000  1
  C  C57  1  0.03510000  0.96560000  0.03430000  1
  C  C58  1  0.04050000  0.06400000  0.25580000  1
  C  C59  1  0.08700000  0.04200000  0.17980000  1
  C  C60  1  0.09910000  0.37350000  0.69617000  1
  C  C61  1  0.13350000  0.32270000  0.77790000  1
  C  C62  1  0.14160000  0.23612000  0.60546000  1
  C  C63  1  0.14550000  0.04840000  0.85740000  1
  C  C64  1  0.15130000  0.32889000  0.62042000  1
  C  C65  1  0.16380000  0.09681000  0.52047000  1
  C  C66  1  0.16880000  0.72203000  0.59166000  1
  C  C67  1  0.18600000  0.02280000  0.78060000  1
  C  C68  1  0.19000000  0.19779000  0.53517000  1
  C  C69  1  0.21080000  0.38147000  0.56109000  1
  C  C70  1  0.24580000  0.75524000  0.51901000  1
  C  C71  1  0.25420000  0.25524000  0.48099000  1
  C  C72  1  0.28920000  0.88147000  0.43891000  1
  C  C73  1  0.31000000  0.69779000  0.46483000  1
  C  C74  1  0.31400000  0.52280000  0.21940000  1
  C  C75  1  0.33120000  0.22203000  0.40834000  1
  C  C76  1  0.33620000  0.59681000  0.47953000  1
  C  C77  1  0.34870000  0.82889000  0.37958000  1
  C  C78  1  0.35450000  0.54840000  0.14260000  1
  C  C79  1  0.35840000  0.73612000  0.39454000  1
  C  C80  1  0.36650000  0.82270000  0.22210000  1
  C  C81  1  0.40090000  0.87350000  0.30383000  1
  C  C82  1  0.41300000  0.54200000  0.82020000  1
  C  C83  1  0.45950000  0.56400000  0.74420000  1
  C  C84  1  0.46490000  0.46560000  0.96570000  1
  C  C85  1  0.49200000  0.51370000  0.12006000  1
  C  C86  1  0.50800000  0.48630000  0.87994000  1
  C  C87  1  0.53510000  0.53440000  0.03430000  1
  C  C88  1  0.54050000  0.43600000  0.25580000  1
  C  C89  1  0.58700000  0.45800000  0.17980000  1
  C  C90  1  0.59910000  0.12650000  0.69617000  1
  C  C91  1  0.63350000  0.17730000  0.77790000  1
  C  C92  1  0.64160000  0.26388000  0.60546000  1
  C  C93  1  0.64550000  0.45160000  0.85740000  1
  C  C94  1  0.65130000  0.17111000  0.62042000  1
  C  C95  1  0.66380000  0.40319000  0.52047000  1
  C  C96  1  0.66880000  0.77797000  0.59166000  1
  C  C97  1  0.68600000  0.47720000  0.78060000  1
  C  C98  1  0.69000000  0.30221000  0.53517000  1
  C  C99  1  0.71080000  0.11853000  0.56109000  1
  C  C100  1  0.74580000  0.74476000  0.51901000  1
  C  C101  1  0.75420000  0.24476000  0.48099000  1
  C  C102  1  0.78920000  0.61853000  0.43891000  1
  C  C103  1  0.81000000  0.80221000  0.46483000  1
  C  C104  1  0.81400000  0.97720000  0.21940000  1
  C  C105  1  0.83120000  0.27797000  0.40834000  1
  C  C106  1  0.83620000  0.90319000  0.47953000  1
  C  C107  1  0.84870000  0.67111000  0.37958000  1
  C  C108  1  0.85450000  0.95160000  0.14260000  1
  C  C109  1  0.85840000  0.76388000  0.39454000  1
  C  C110  1  0.86650000  0.67730000  0.22210000  1
  C  C111  1  0.90090000  0.62650000  0.30383000  1
  C  C112  1  0.91300000  0.95800000  0.82020000  1
  C  C113  1  0.95950000  0.93600000  0.74420000  1
  C  C114  1  0.96490000  0.03440000  0.96570000  1
  C  C115  1  0.99200000  0.98630000  0.12006000  1
  N  N116  1  0.09670000  0.96638000  0.72459000  1
  N  N117  1  0.23900000  0.84578000  0.50680000  1
  N  N118  1  0.26100000  0.34578000  0.49320000  1
  N  N119  1  0.40330000  0.46638000  0.27541000  1
  N  N120  1  0.59670000  0.53362000  0.72459000  1
  N  N121  1  0.73900000  0.65422000  0.50680000  1
  N  N122  1  0.76100000  0.15422000  0.49320000  1
  N  N123  1  0.90330000  0.03362000  0.27541000  1
  O  O124  1  0.07260000  0.06984000  0.45189000  1
  O  O125  1  0.13430000  0.64056000  0.59393000  1
  O  O126  1  0.14260000  0.78217000  0.64524000  1
  O  O127  1  0.23200000  0.04697000  0.58261000  1
  O  O128  1  0.26800000  0.54697000  0.41739000  1
  O  O129  1  0.35740000  0.28217000  0.35476000  1
  O  O130  1  0.36570000  0.14056000  0.40607000  1
  O  O131  1  0.42740000  0.56984000  0.54811000  1
  O  O132  1  0.57260000  0.43016000  0.45189000  1
  O  O133  1  0.63430000  0.85944000  0.59393000  1
  O  O134  1  0.64260000  0.71783000  0.64524000  1
  O  O135  1  0.73200000  0.45303000  0.58261000  1
  O  O136  1  0.76800000  0.95303000  0.41739000  1
  O  O137  1  0.85740000  0.21783000  0.35476000  1
  O  O138  1  0.86570000  0.35944000  0.40607000  1
  O  O139  1  0.92740000  0.93016000  0.54811000  1
