# generated using pymatgen
data_Tb2Co3H24C30(NO2)12
_symmetry_space_group_name_H-M   'P 1'
_cell_length_a   10.71170000
_cell_length_b   12.46870000
_cell_length_c   12.46870000
_cell_angle_alpha   91.59970000
_cell_angle_beta   113.84200000
_cell_angle_gamma   113.84200000
_symmetry_Int_Tables_number   1
_chemical_formula_structural   Tb2Co3H24C30(NO2)12
_chemical_formula_sum   'Tb2 Co3 H24 C30 N12 O24'
_cell_volume   1356.31750712
_cell_formula_units_Z   1
loop_
 _symmetry_equiv_pos_site_id
 _symmetry_equiv_pos_as_xyz
  1  'x, y, z'
loop_
 _atom_site_type_symbol
 _atom_site_label
 _atom_site_symmetry_multiplicity
 _atom_site_fract_x
 _atom_site_fract_y
 _atom_site_fract_z
 _atom_site_occupancy
  Tb  Tb0  1  0.00000000  0.20882000  0.79118000  1
  Tb  Tb1  1  0.00000000  0.79118000  0.20882000  1
  Co  Co2  1  0.00000000  0.00000000  0.00000000  1
  Co  Co3  1  0.00000000  0.00000000  0.50000000  1
  Co  Co4  1  0.00000000  0.50000000  0.00000000  1
  H  H5  1  0.11200000  0.74320000  0.86020000  1
  H  H6  1  0.11200000  0.86020000  0.74320000  1
  H  H7  1  0.25810000  0.78070000  0.98330000  1
  H  H8  1  0.25810000  0.98330000  0.78070000  1
  H  H9  1  0.28300000  0.59670000  0.76530000  1
  H  H10  1  0.28300000  0.76530000  0.59670000  1
  H  H11  1  0.35460000  0.51720000  0.83520000  1
  H  H12  1  0.35460000  0.83520000  0.51720000  1
  H  H13  1  0.45560000  0.05750000  0.57930000  1
  H  H14  1  0.45560000  0.57930000  0.05750000  1
  H  H15  1  0.49420000  0.10990000  0.71070000  1
  H  H16  1  0.49420000  0.71070000  0.10990000  1
  H  H17  1  0.50580000  0.28930000  0.89010000  1
  H  H18  1  0.50580000  0.89010000  0.28930000  1
  H  H19  1  0.54440000  0.42070000  0.94250000  1
  H  H20  1  0.54440000  0.94250000  0.42070000  1
  H  H21  1  0.64540000  0.16480000  0.48280000  1
  H  H22  1  0.64540000  0.48280000  0.16480000  1
  H  H23  1  0.71700000  0.23470000  0.40330000  1
  H  H24  1  0.71700000  0.40330000  0.23470000  1
  H  H25  1  0.74190000  0.01670000  0.21930000  1
  H  H26  1  0.74190000  0.21930000  0.01670000  1
  H  H27  1  0.88800000  0.13980000  0.25680000  1
  H  H28  1  0.88800000  0.25680000  0.13980000  1
  C  C29  1  0.07590000  0.00520000  0.77820000  1
  C  C30  1  0.07590000  0.77820000  0.00520000  1
  C  C31  1  0.17430000  0.79930000  0.93830000  1
  C  C32  1  0.17430000  0.93830000  0.79930000  1
  C  C33  1  0.17500000  0.50770000  0.86070000  1
  C  C34  1  0.17500000  0.86070000  0.50770000  1
  C  C35  1  0.31410000  0.57280000  0.84140000  1
  C  C36  1  0.31410000  0.84140000  0.57280000  1
  C  C37  1  0.32510000  0.30020000  0.89720000  1
  C  C38  1  0.32510000  0.89720000  0.30020000  1
  C  C39  1  0.35090000  0.01210000  0.01210000  1
  C  C40  1  0.48330000  0.78920000  0.91400000  1
  C  C41  1  0.48330000  0.91400000  0.78920000  1
  C  C42  1  0.49270000  0.33680000  0.94400000  1
  C  C43  1  0.49270000  0.94400000  0.33680000  1
  C  C44  1  0.50730000  0.05600000  0.66320000  1
  C  C45  1  0.50730000  0.66320000  0.05600000  1
  C  C46  1  0.51670000  0.08600000  0.21080000  1
  C  C47  1  0.51670000  0.21080000  0.08600000  1
  C  C48  1  0.64910000  0.98790000  0.98790000  1
  C  C49  1  0.67490000  0.10280000  0.69980000  1
  C  C50  1  0.67490000  0.69980000  0.10280000  1
  C  C51  1  0.68590000  0.15860000  0.42720000  1
  C  C52  1  0.68590000  0.42720000  0.15860000  1
  C  C53  1  0.82500000  0.13930000  0.49230000  1
  C  C54  1  0.82500000  0.49230000  0.13930000  1
  C  C55  1  0.82570000  0.06170000  0.20070000  1
  C  C56  1  0.82570000  0.20070000  0.06170000  1
  C  C57  1  0.92410000  0.22180000  0.99480000  1
  C  C58  1  0.92410000  0.99480000  0.22180000  1
  N  N59  1  0.23770000  0.92030000  0.92030000  1
  N  N60  1  0.40640000  0.12150000  0.98750000  1
  N  N61  1  0.40640000  0.98750000  0.12150000  1
  N  N62  1  0.42120000  0.80110000  0.80110000  1
  N  N63  1  0.43440000  0.67790000  0.93470000  1
  N  N64  1  0.43440000  0.93470000  0.67790000  1
  N  N65  1  0.56560000  0.06530000  0.32210000  1
  N  N66  1  0.56560000  0.32210000  0.06530000  1
  N  N67  1  0.57880000  0.19890000  0.19890000  1
  N  N68  1  0.59360000  0.01250000  0.87850000  1
  N  N69  1  0.59360000  0.87850000  0.01250000  1
  N  N70  1  0.76230000  0.07970000  0.07970000  1
  O  O71  1  0.01270000  0.02000000  0.67440000  1
  O  O72  1  0.01270000  0.67440000  0.02000000  1
  O  O73  1  0.06150000  0.04670000  0.86270000  1
  O  O74  1  0.06150000  0.86270000  0.04670000  1
  O  O75  1  0.07360000  0.40750000  0.78670000  1
  O  O76  1  0.07360000  0.78670000  0.40750000  1
  O  O77  1  0.16920000  0.55520000  0.94700000  1
  O  O78  1  0.16920000  0.94700000  0.55520000  1
  O  O79  1  0.24190000  0.26240000  0.78480000  1
  O  O80  1  0.24190000  0.78480000  0.26240000  1
  O  O81  1  0.26890000  0.30720000  0.96560000  1
  O  O82  1  0.26890000  0.96560000  0.30720000  1
  O  O83  1  0.73110000  0.03440000  0.69280000  1
  O  O84  1  0.73110000  0.69280000  0.03440000  1
  O  O85  1  0.75810000  0.21520000  0.73760000  1
  O  O86  1  0.75810000  0.73760000  0.21520000  1
  O  O87  1  0.83080000  0.05300000  0.44480000  1
  O  O88  1  0.83080000  0.44480000  0.05300000  1
  O  O89  1  0.92640000  0.21330000  0.59250000  1
  O  O90  1  0.92640000  0.59250000  0.21330000  1
  O  O91  1  0.93850000  0.13730000  0.95330000  1
  O  O92  1  0.93850000  0.95330000  0.13730000  1
  O  O93  1  0.98730000  0.32560000  0.98000000  1
  O  O94  1  0.98730000  0.98000000  0.32560000  1
