# generated using pymatgen
data_Ag2H11C30(N2O)6
_symmetry_space_group_name_H-M   'P 1'
_cell_length_a   22.68270000
_cell_length_b   22.68270000
_cell_length_c   34.36900000
_cell_angle_alpha   90.00000000
_cell_angle_beta   90.00000000
_cell_angle_gamma   120.00000000
_symmetry_Int_Tables_number   1
_chemical_formula_structural   Ag2H11C30(N2O)6
_chemical_formula_sum   'Ag24 H132 C360 N144 O72'
_cell_volume   15313.94297359
_cell_formula_units_Z   12
loop_
 _symmetry_equiv_pos_site_id
 _symmetry_equiv_pos_as_xyz
  1  'x, y, z'
loop_
 _atom_site_type_symbol
 _atom_site_label
 _atom_site_symmetry_multiplicity
 _atom_site_fract_x
 _atom_site_fract_y
 _atom_site_fract_z
 _atom_site_occupancy
  Ag  Ag0  1  0.99990000  0.62924000  0.13657000  1
  Ag  Ag1  1  0.99958000  0.56839000  0.63687000  1
  Ag  Ag2  1  0.86366000  0.40577000  0.63683000  1
  Ag  Ag3  1  0.86325000  0.45750000  0.13657000  1
  Ag  Ag4  1  0.62934000  0.00010000  0.80323000  1
  Ag  Ag5  1  0.62924000  0.62934000  0.96990000  1
  Ag  Ag6  1  0.59425000  0.13675000  0.80323000  1
  Ag  Ag7  1  0.59423000  0.45789000  0.97017000  1
  Ag  Ag8  1  0.56881000  0.00042000  0.30353000  1
  Ag  Ag9  1  0.56839000  0.56881000  0.47020000  1
  Ag  Ag10  1  0.54250000  0.40575000  0.46990000  1
  Ag  Ag11  1  0.54211000  0.13634000  0.30350000  1
  Ag  Ag12  1  0.45789000  0.86366000  0.80350000  1
  Ag  Ag13  1  0.45750000  0.59425000  0.96990000  1
  Ag  Ag14  1  0.43161000  0.43119000  0.97020000  1
  Ag  Ag15  1  0.43119000  0.99958000  0.80353000  1
  Ag  Ag16  1  0.40577000  0.54211000  0.47017000  1
  Ag  Ag17  1  0.40575000  0.86325000  0.30323000  1
  Ag  Ag18  1  0.37076000  0.37066000  0.46990000  1
  Ag  Ag19  1  0.37066000  0.99990000  0.30323000  1
  Ag  Ag20  1  0.13675000  0.54250000  0.63657000  1
  Ag  Ag21  1  0.13634000  0.59423000  0.13683000  1
  Ag  Ag22  1  0.00042000  0.43161000  0.13687000  1
  Ag  Ag23  1  0.00010000  0.37076000  0.63657000  1
  H  H24  1  0.98580000  0.33530000  0.84493000  1
  H  H25  1  0.98440000  0.65920000  0.92690000  1
  H  H26  1  0.96910000  0.29990000  0.29500000  1
  H  H27  1  0.96810000  0.29130000  0.08930000  1
  H  H28  1  0.96610000  0.67140000  0.47553000  1
  H  H29  1  0.94290000  0.36920000  0.23517000  1
  H  H30  1  0.92270000  0.26610000  0.95333000  1
  H  H31  1  0.92010000  0.52330000  0.50697000  1
  H  H32  1  0.91960000  0.65110000  0.81720000  1
  H  H33  1  0.91920000  0.46020000  0.92237000  1
  H  H34  1  0.91840000  0.34100000  0.76207000  1
  H  H35  1  0.91550000  0.46700000  0.85517000  1
  H  H36  1  0.90800000  0.55850000  0.01487000  1
  H  H37  1  0.90430000  0.29180000  0.40470000  1
  H  H38  1  0.90300000  0.60220000  0.36713000  1
  H  H39  1  0.88030000  0.43730000  0.35097000  1
  H  H40  1  0.87700000  0.14450000  0.59317000  1
  H  H41  1  0.87670000  0.73390000  0.17847000  1
  H  H42  1  0.87640000  0.44400000  0.41827000  1
  H  H43  1  0.85720000  0.12330000  0.84513000  1
  H  H44  1  0.85550000  0.73250000  0.92650000  1
  H  H45  1  0.79210000  0.47770000  0.93720000  1
  H  H46  1  0.73440000  0.42580000  0.18307000  1
  H  H47  1  0.73390000  0.85720000  0.01180000  1
  H  H48  1  0.73390000  0.65660000  0.28667000  1
  H  H49  1  0.73250000  0.87700000  0.75983000  1
  H  H50  1  0.73150000  0.08040000  0.48387000  1
  H  H51  1  0.73110000  0.38950000  0.67073000  1
  H  H52  1  0.70870000  0.67680000  0.42263000  1
  H  H53  1  0.70820000  0.61250000  0.73803000  1
  H  H54  1  0.70530000  0.03390000  0.14220000  1
  H  H55  1  0.70010000  0.66920000  0.62833000  1
  H  H56  1  0.69920000  0.09700000  0.03380000  1
  H  H57  1  0.69140000  0.26560000  0.84973000  1
  H  H58  1  0.68560000  0.20790000  0.60387000  1
  H  H59  1  0.67680000  0.96810000  0.25597000  1
  H  H60  1  0.67480000  0.01560000  0.59357000  1
  H  H61  1  0.67140000  0.70530000  0.30887000  1
  H  H62  1  0.66920000  0.96910000  0.46167000  1
  H  H63  1  0.66470000  0.65050000  0.17827000  1
  H  H64  1  0.65920000  0.67480000  0.76023000  1
  H  H65  1  0.65900000  0.57740000  0.09540000  1
  H  H66  1  0.65840000  0.26890000  0.33740000  1
  H  H67  1  0.65660000  0.92270000  0.12000000  1
  H  H68  1  0.65110000  0.73150000  0.65053000  1
  H  H69  1  0.65050000  0.98580000  0.01160000  1
  H  H70  1  0.65050000  0.09200000  0.68153000  1
  H  H71  1  0.63080000  0.57370000  0.56850000  1
  H  H72  1  0.61250000  0.90430000  0.57137000  1
  H  H73  1  0.61050000  0.34160000  0.00407000  1
  H  H74  1  0.60320000  0.07990000  0.17363000  1
  H  H75  1  0.60220000  0.69920000  0.20047000  1
  H  H76  1  0.57740000  0.91840000  0.92873000  1
  H  H77  1  0.57420000  0.30860000  0.51640000  1
  H  H78  1  0.57370000  0.94290000  0.40183000  1
  H  H79  1  0.56760000  0.12360000  0.08493000  1
  H  H80  1  0.56270000  0.44300000  0.68430000  1
  H  H81  1  0.55850000  0.65050000  0.84820000  1
  H  H82  1  0.55700000  0.11970000  0.01763000  1
  H  H83  1  0.55600000  0.43240000  0.75160000  1
  H  H84  1  0.55150000  0.08450000  0.52183000  1
  H  H85  1  0.54100000  0.08080000  0.58903000  1
  H  H86  1  0.53980000  0.45900000  0.25570000  1
  H  H87  1  0.53300000  0.44850000  0.18850000  1
  H  H88  1  0.52330000  0.60320000  0.34030000  1
  H  H89  1  0.52230000  0.31440000  0.27053000  1
  H  H90  1  0.47770000  0.68560000  0.77053000  1
  H  H91  1  0.47670000  0.39680000  0.84030000  1
  H  H92  1  0.46700000  0.55150000  0.68850000  1
  H  H93  1  0.46020000  0.54100000  0.75570000  1
  H  H94  1  0.45900000  0.91920000  0.08903000  1
  H  H95  1  0.44850000  0.91550000  0.02183000  1
  H  H96  1  0.44400000  0.56760000  0.25160000  1
  H  H97  1  0.44300000  0.88030000  0.51763000  1
  H  H98  1  0.44150000  0.34950000  0.34820000  1
  H  H99  1  0.43730000  0.55700000  0.18430000  1
  H  H100  1  0.43240000  0.87640000  0.58493000  1
  H  H101  1  0.42630000  0.05710000  0.90183000  1
  H  H102  1  0.42580000  0.69140000  0.01640000  1
  H  H103  1  0.42260000  0.08160000  0.42873000  1
  H  H104  1  0.39780000  0.30080000  0.70047000  1
  H  H105  1  0.39680000  0.92010000  0.67363000  1
  H  H106  1  0.38950000  0.65840000  0.50407000  1
  H  H107  1  0.38750000  0.09570000  0.07137000  1
  H  H108  1  0.36920000  0.42630000  0.06850000  1
  H  H109  1  0.34950000  0.90800000  0.18153000  1
  H  H110  1  0.34950000  0.01420000  0.51160000  1
  H  H111  1  0.34890000  0.26850000  0.15053000  1
  H  H112  1  0.34340000  0.07730000  0.62000000  1
  H  H113  1  0.34160000  0.73110000  0.83740000  1
  H  H114  1  0.34100000  0.42260000  0.59540000  1
  H  H115  1  0.34080000  0.32520000  0.26023000  1
  H  H116  1  0.33530000  0.34950000  0.67827000  1
  H  H117  1  0.33080000  0.03090000  0.96167000  1
  H  H118  1  0.32860000  0.29470000  0.80887000  1
  H  H119  1  0.32520000  0.98440000  0.09357000  1
  H  H120  1  0.32320000  0.03190000  0.75597000  1
  H  H121  1  0.31440000  0.79210000  0.10387000  1
  H  H122  1  0.30860000  0.73440000  0.34973000  1
  H  H123  1  0.30080000  0.90300000  0.53380000  1
  H  H124  1  0.29990000  0.33080000  0.12833000  1
  H  H125  1  0.29470000  0.96610000  0.64220000  1
  H  H126  1  0.29180000  0.38750000  0.23803000  1
  H  H127  1  0.29130000  0.32320000  0.92263000  1
  H  H128  1  0.26890000  0.61050000  0.17073000  1
  H  H129  1  0.26850000  0.91960000  0.98387000  1
  H  H130  1  0.26750000  0.12300000  0.25983000  1
  H  H131  1  0.26610000  0.34340000  0.78667000  1
  H  H132  1  0.26610000  0.14280000  0.51180000  1
  H  H133  1  0.26560000  0.57420000  0.68307000  1
  H  H134  1  0.20790000  0.52230000  0.43720000  1
  H  H135  1  0.14450000  0.26750000  0.42650000  1
  H  H136  1  0.14280000  0.87670000  0.34513000  1
  H  H137  1  0.12360000  0.55600000  0.91827000  1
  H  H138  1  0.12330000  0.26610000  0.67847000  1
  H  H139  1  0.12300000  0.85550000  0.09317000  1
  H  H140  1  0.11970000  0.56270000  0.85097000  1
  H  H141  1  0.09700000  0.39780000  0.86713000  1
  H  H142  1  0.09570000  0.70820000  0.90470000  1
  H  H143  1  0.09200000  0.44150000  0.51487000  1
  H  H144  1  0.08450000  0.53300000  0.35517000  1
  H  H145  1  0.08160000  0.65900000  0.26207000  1
  H  H146  1  0.08080000  0.53980000  0.42237000  1
  H  H147  1  0.08040000  0.34890000  0.31720000  1
  H  H148  1  0.07990000  0.47670000  0.00697000  1
  H  H149  1  0.07730000  0.73390000  0.45333000  1
  H  H150  1  0.05710000  0.63080000  0.73517000  1
  H  H151  1  0.03390000  0.32860000  0.97553000  1
  H  H152  1  0.03190000  0.70870000  0.58930000  1
  H  H153  1  0.03090000  0.70010000  0.79500000  1
  H  H154  1  0.01560000  0.34080000  0.42690000  1
  H  H155  1  0.01420000  0.66470000  0.34493000  1
  C  C156  1  0.99540000  0.33390000  0.87113000  1
  C  C157  1  0.99370000  0.66740000  0.90040000  1
  C  C158  1  0.98540000  0.48380000  0.30287000  1
  C  C159  1  0.98280000  0.48450000  0.34637000  1
  C  C160  1  0.97840000  0.30810000  0.32140000  1
  C  C161  1  0.97820000  0.49260000  0.42697000  1
  C  C162  1  0.97800000  0.61000000  0.54067000  1
  C  C163  1  0.97570000  0.49630000  0.47037000  1
  C  C164  1  0.97570000  0.67000000  0.44943000  1
  C  C165  1  0.97300000  0.47260000  0.22367000  1
  C  C166  1  0.96820000  0.49660000  0.55017000  1
  C  C167  1  0.96700000  0.55540000  0.05167000  1
  C  C168  1  0.96600000  0.65000000  0.01467000  1
  C  C169  1  0.95950000  0.48080000  0.90807000  1
  C  C170  1  0.95920000  0.41100000  0.72047000  1
  C  C171  1  0.95760000  0.29250000  0.93613000  1
  C  C172  1  0.95710000  0.48480000  0.86777000  1
  C  C173  1  0.95490000  0.66250000  0.83470000  1
  C  C174  1  0.95000000  0.29700000  0.72567000  1
  C  C175  1  0.94320000  0.29440000  0.89693000  1
  C  C176  1  0.94100000  0.65030000  0.87420000  1
  C  C177  1  0.93960000  0.30320000  0.38720000  1
  C  C178  1  0.93790000  0.62850000  0.38443000  1
  C  C179  1  0.93290000  0.53400000  0.53427000  1
  C  C180  1  0.92790000  0.40190000  0.24097000  1
  C  C181  1  0.92660000  0.58800000  0.03757000  1
  C  C182  1  0.92570000  0.29100000  0.34770000  1
  C  C183  1  0.92350000  0.63050000  0.42353000  1
  C  C184  1  0.92100000  0.25400000  0.08840000  1
  C  C185  1  0.92040000  0.45780000  0.36527000  1
  C  C186  1  0.91820000  0.46190000  0.40557000  1
  C  C187  1  0.91800000  0.67400000  0.66963000  1
  C  C188  1  0.91630000  0.33730000  0.73357000  1
  C  C189  1  0.91200000  0.24100000  0.04580000  1
  C  C190  1  0.90050000  0.18210000  0.61167000  1
  C  C191  1  0.89830000  0.71830000  0.15957000  1
  C  C192  1  0.88600000  0.73500000  0.11797000  1
  C  C193  1  0.88500000  0.15200000  0.65307000  1
  C  C194  1  0.88260000  0.28980000  0.10100000  1
  C  C195  1  0.88000000  0.70400000  0.68133000  1
  C  C196  1  0.87990000  0.59690000  0.66573000  1
  C  C197  1  0.87140000  0.25410000  0.88263000  1
  C  C198  1  0.87030000  0.62600000  0.88900000  1
  C  C199  1  0.86980000  0.22840000  0.60807000  1
  C  C200  1  0.86960000  0.64190000  0.16377000  1
  C  C201  1  0.85500000  0.37900000  0.22827000  1
  C  C202  1  0.85400000  0.26060000  0.33333333  1
  C  C203  1  0.85100000  0.59150000  0.43773000  1
  C  C204  1  0.84900000  0.11400000  0.78463000  1
  C  C205  1  0.84800000  0.73300000  0.98640000  1
  C  C206  1  0.82400000  0.12000000  0.34800000  1
  C  C207  1  0.82000000  0.10170000  0.82623000  1
  C  C208  1  0.81790000  0.71840000  0.94500000  1
  C  C209  1  0.79420000  0.31080000  0.10980000  1
  C  C210  1  0.79270000  0.52870000  0.17407000  1
  C  C211  1  0.79080000  0.48640000  0.66453000  1
  C  C212  1  0.78840000  0.25980000  0.60117000  1
  C  C213  1  0.78100000  0.32800000  0.82333000  1
  C  C214  1  0.77230000  0.13040000  0.83043000  1
  C  C215  1  0.77160000  0.64140000  0.94140000  1
  C  C216  1  0.75900000  0.67100000  0.37913000  1
  C  C217  1  0.75600000  0.08200000  0.33630000  1
  C  C218  1  0.75570000  0.12970000  0.55567000  1
  C  C219  1  0.74600000  0.46500000  0.92830000  1
  C  C220  1  0.74600000  0.66700000  0.42173000  1
  C  C221  1  0.74590000  0.61730000  0.21597000  1
  C  C222  1  0.74200000  0.44100000  0.89080000  1
  C  C223  1  0.74050000  0.14900000  0.10440000  1
  C  C224  1  0.74020000  0.52860000  0.93450000  1
  C  C225  1  0.73940000  0.59340000  0.66663000  1
  C  C226  1  0.73800000  0.27350000  0.85173000  1
  C  C227  1  0.73600000  0.20730000  0.84073000  1
  C  C228  1  0.73500000  0.84900000  0.95130000  1
  C  C229  1  0.73300000  0.88500000  0.81973000  1
  C  C230  1  0.73000000  0.37200000  0.12000000  1
  C  C231  1  0.72800000  0.32700000  0.30660000  1
  C  C232  1  0.72650000  0.46450000  0.18507000  1
  C  C233  1  0.72300000  0.30000000  0.11070000  1
  C  C234  1  0.72000000  0.42600000  0.66973000  1
  C  C235  1  0.71900000  0.25400000  0.59497000  1
  C  C236  1  0.71840000  0.90050000  0.77833000  1
  C  C237  1  0.71830000  0.82000000  0.99290000  1
  C  C238  1  0.71700000  0.12010000  0.33240000  1
  C  C239  1  0.71020000  0.59280000  0.43433000  1
  C  C240  1  0.70930000  0.05900000  0.54087000  1
  C  C241  1  0.70900000  0.63470000  0.68103000  1
  C  C242  1  0.70760000  0.04510000  0.50137000  1
  C  C243  1  0.70750000  0.66510000  0.26947000  1
  C  C244  1  0.70700000  0.07650000  0.09020000  1
  C  C245  1  0.70600000  0.28000000  0.33640000  1
  C  C246  1  0.70560000  0.64880000  0.23027000  1
  C  C247  1  0.70400000  0.82400000  0.51467000  1
  C  C248  1  0.70300000  0.65300000  0.05900000  1
  C  C249  1  0.70000000  0.42300000  0.44403000  1
  C  C250  1  0.69900000  0.25800000  0.55747000  1
  C  C251  1  0.69680000  0.63640000  0.72053000  1
  C  C252  1  0.69560000  0.20920000  0.33120000  1
  C  C253  1  0.69430000  0.02430000  0.11610000  1
  C  C254  1  0.69190000  0.67030000  0.65473000  1
  C  C255  1  0.69060000  0.06210000  0.05110000  1
  C  C256  1  0.68920000  0.48340000  0.44313000  1
  C  C257  1  0.68400000  0.03400000  0.68133000  1
  C  C258  1  0.67400000  0.75600000  0.50297000  1
  C  C259  1  0.67370000  0.00630000  0.56707000  1
  C  C260  1  0.67300000  0.40100000  0.63993000  1
  C  C261  1  0.67200000  0.45300000  0.15667000  1
  C  C262  1  0.67100000  0.91200000  0.21247000  1
  C  C263  1  0.67030000  0.97840000  0.48807000  1
  C  C264  1  0.67000000  0.69430000  0.28277000  1
  C  C265  1  0.66740000  0.67370000  0.73373000  1
  C  C266  1  0.66700000  0.92100000  0.25507000  1
  C  C267  1  0.66610000  0.66150000  0.20447000  1
  C  C268  1  0.66510000  0.95760000  0.10280000  1
  C  C269  1  0.66270000  0.57900000  0.06690000  1
  C  C270  1  0.66250000  0.70760000  0.66803000  1
  C  C271  1  0.66150000  0.99540000  0.03780000  1
  C  C272  1  0.66140000  0.07340000  0.70423000  1
  C  C273  1  0.65300000  0.95000000  0.89233000  1
  C  C274  1  0.65030000  0.70930000  0.70753000  1
  C  C275  1  0.65000000  0.68400000  0.84800000  1
  C  C276  1  0.64880000  0.94320000  0.06360000  1
  C  C277  1  0.64200000  0.27000000  0.78667000  1
  C  C278  1  0.64190000  0.77230000  0.99710000  1
  C  C279  1  0.64140000  0.86980000  0.77473000  1
  C  C280  1  0.63640000  0.93960000  0.55387000  1
  C  C281  1  0.63470000  0.92570000  0.51437000  1
  C  C282  1  0.63200000  0.02200000  0.20733000  1
  C  C283  1  0.63050000  0.70700000  0.25687000  1
  C  C284  1  0.62850000  0.69060000  0.21777000  1
  C  C285  1  0.62800000  0.35800000  0.45333000  1
  C  C286  1  0.62600000  0.75570000  0.72233000  1
  C  C287  1  0.62100000  0.47600000  0.56160000  1
  C  C288  1  0.61730000  0.87140000  0.04930000  1
  C  C289  1  0.61000000  0.63200000  0.37400000  1
  C  C290  1  0.60110000  0.06710000  0.20093000  1
  C  C291  1  0.59900000  0.27200000  0.97327000  1
  C  C292  1  0.59810000  0.52600000  0.57430000  1
  C  C293  1  0.59690000  0.71700000  0.49907000  1
  C  C294  1  0.59340000  0.85400000  0.49997000  1
  C  C295  1  0.59280000  0.88260000  0.26767000  1
  C  C296  1  0.59150000  0.74050000  0.27107000  1
  C  C297  1  0.58900000  0.54820000  0.05380000  1
  C  C298  1  0.58840000  0.03300000  0.71833000  1
  C  C299  1  0.58800000  0.66140000  0.87090000  1
  C  C300  1  0.57900000  0.91630000  0.90023000  1
  C  C301  1  0.57700000  0.27700000  0.77737000  1
  C  C302  1  0.57400000  0.29400000  0.00307000  1
  C  C303  1  0.55900000  0.30100000  0.22413000  1
  C  C304  1  0.55540000  0.58840000  0.88500000  1
  C  C305  1  0.54820000  0.95920000  0.88713000  1
  C  C306  1  0.54700000  0.21900000  0.49000000  1
  C  C307  1  0.54370000  0.08180000  0.07223000  1
  C  C308  1  0.54220000  0.46260000  0.69860000  1
  C  C309  1  0.53810000  0.45630000  0.73890000  1
  C  C310  1  0.53740000  0.07960000  0.03193000  1
  C  C311  1  0.53550000  0.26200000  0.51840000  1
  C  C312  1  0.53500000  0.28100000  0.26163000  1
  C  C313  1  0.53400000  0.60110000  0.36760000  1
  C  C314  1  0.52870000  0.73600000  0.00740000  1
  C  C315  1  0.52860000  0.78840000  0.76783000  1
  C  C316  1  0.52840000  0.03180000  0.21683000  1
  C  C317  1  0.52770000  0.04290000  0.53443000  1
  C  C318  1  0.52740000  0.50040000  0.55700000  1
  C  C319  1  0.52600000  0.92790000  0.40763000  1
  C  C320  1  0.52400000  0.14500000  0.89493000  1
  C  C321  1  0.52130000  0.04050000  0.57473000  1
  C  C322  1  0.52060000  0.02430000  0.13703000  1
  C  C323  1  0.51920000  0.47870000  0.24140000  1
  C  C324  1  0.51660000  0.20580000  0.77647000  1
  C  C325  1  0.51620000  0.50160000  0.63620000  1
  C  C326  1  0.51550000  0.49830000  0.67970000  1
  C  C327  1  0.51520000  0.47230000  0.20110000  1
  C  C328  1  0.51440000  0.02180000  0.09363000  1
  C  C329  1  0.51360000  0.30440000  0.99787000  1
  C  C330  1  0.50740000  0.48560000  0.76030000  1
  C  C331  1  0.50370000  0.47940000  0.80370000  1
  C  C332  1  0.50340000  0.47160000  0.88350000  1
  C  C333  1  0.50170000  0.01720000  0.01303000  1
  C  C334  1  0.50160000  0.98540000  0.46953000  1
  C  C335  1  0.50040000  0.97300000  0.39033000  1
  C  C336  1  0.49960000  0.02700000  0.89033000  1
  C  C337  1  0.49840000  0.01460000  0.96953000  1
  C  C338  1  0.49830000  0.98280000  0.51303000  1
  C  C339  1  0.49660000  0.52840000  0.38350000  1
  C  C340  1  0.49630000  0.52060000  0.30370000  1
  C  C341  1  0.49260000  0.51440000  0.26030000  1
  C  C342  1  0.48640000  0.69560000  0.49787000  1
  C  C343  1  0.48560000  0.97820000  0.59363000  1
  C  C344  1  0.48480000  0.52770000  0.70110000  1
  C  C345  1  0.48450000  0.50170000  0.17970000  1
  C  C346  1  0.48380000  0.49840000  0.13620000  1
  C  C347  1  0.48340000  0.79420000  0.27647000  1
  C  C348  1  0.48080000  0.52130000  0.74140000  1
  C  C349  1  0.47940000  0.97570000  0.63703000  1
  C  C350  1  0.47870000  0.95950000  0.07473000  1
  C  C351  1  0.47600000  0.85500000  0.39493000  1
  C  C352  1  0.47400000  0.07210000  0.90763000  1
  C  C353  1  0.47260000  0.49960000  0.05700000  1
  C  C354  1  0.47230000  0.95710000  0.03443000  1
  C  C355  1  0.47160000  0.96820000  0.71683000  1
  C  C356  1  0.47140000  0.21160000  0.26783000  1
  C  C357  1  0.47130000  0.26400000  0.50740000  1
  C  C358  1  0.46600000  0.39890000  0.86760000  1
  C  C359  1  0.46500000  0.71900000  0.76163000  1
  C  C360  1  0.46450000  0.73800000  0.01840000  1
  C  C361  1  0.46260000  0.92040000  0.53193000  1
  C  C362  1  0.46190000  0.54370000  0.23890000  1
  C  C363  1  0.45780000  0.53740000  0.19860000  1
  C  C364  1  0.45630000  0.91820000  0.57223000  1
  C  C365  1  0.45300000  0.78100000  0.99000000  1
  C  C366  1  0.45180000  0.04080000  0.38713000  1
  C  C367  1  0.44460000  0.41160000  0.38500000  1
  C  C368  1  0.44100000  0.69900000  0.72413000  1
  C  C369  1  0.42600000  0.70600000  0.50307000  1
  C  C370  1  0.42300000  0.72300000  0.27737000  1
  C  C371  1  0.42100000  0.08370000  0.40023000  1
  C  C372  1  0.41200000  0.33860000  0.37090000  1
  C  C373  1  0.41160000  0.96700000  0.21833000  1
  C  C374  1  0.41100000  0.45180000  0.55380000  1
  C  C375  1  0.40850000  0.25950000  0.77107000  1
  C  C376  1  0.40720000  0.11740000  0.76767000  1
  C  C377  1  0.40660000  0.14600000  0.99997000  1
  C  C378  1  0.40310000  0.28300000  0.99907000  1
  C  C379  1  0.40190000  0.47400000  0.07430000  1
  C  C380  1  0.40100000  0.72800000  0.47327000  1
  C  C381  1  0.39890000  0.93290000  0.70093000  1
  C  C382  1  0.39000000  0.36800000  0.87400000  1
  C  C383  1  0.38270000  0.12860000  0.54930000  1
  C  C384  1  0.37900000  0.52400000  0.06160000  1
  C  C385  1  0.37400000  0.24430000  0.22233000  1
  C  C386  1  0.37200000  0.64200000  0.95333000  1
  C  C387  1  0.37150000  0.30940000  0.71777000  1
  C  C388  1  0.36950000  0.29300000  0.75687000  1
  C  C389  1  0.36800000  0.97800000  0.70733000  1
  C  C390  1  0.36530000  0.07430000  0.01437000  1
  C  C391  1  0.36360000  0.06040000  0.05387000  1
  C  C392  1  0.35860000  0.13020000  0.27473000  1
  C  C393  1  0.35810000  0.22770000  0.49710000  1
  C  C394  1  0.35800000  0.73000000  0.28667000  1
  C  C395  1  0.35120000  0.05680000  0.56360000  1
  C  C396  1  0.35000000  0.31600000  0.34800000  1
  C  C397  1  0.34970000  0.29070000  0.20753000  1
  C  C398  1  0.34700000  0.05000000  0.39233000  1
  C  C399  1  0.33860000  0.92660000  0.20423000  1
  C  C400  1  0.33850000  0.00460000  0.53780000  1
  C  C401  1  0.33750000  0.29240000  0.16803000  1
  C  C402  1  0.33730000  0.42100000  0.56690000  1
  C  C403  1  0.33490000  0.04240000  0.60280000  1
  C  C404  1  0.33390000  0.33850000  0.70447000  1
  C  C405  1  0.33300000  0.07900000  0.75507000  1
  C  C406  1  0.33260000  0.32630000  0.23373000  1
  C  C407  1  0.33000000  0.30570000  0.78277000  1
  C  C408  1  0.32970000  0.02160000  0.98807000  1
  C  C409  1  0.32900000  0.08800000  0.71247000  1
  C  C410  1  0.32800000  0.54700000  0.65667000  1
  C  C411  1  0.32700000  0.59900000  0.13993000  1
  C  C412  1  0.32630000  0.99370000  0.06707000  1
  C  C413  1  0.32600000  0.24400000  0.00297000  1
  C  C414  1  0.31600000  0.96600000  0.18133000  1
  C  C415  1  0.31080000  0.51660000  0.94313000  1
  C  C416  1  0.30940000  0.93790000  0.55110000  1
  C  C417  1  0.30810000  0.32970000  0.15473000  1
  C  C418  1  0.30570000  0.97570000  0.61610000  1
  C  C419  1  0.30440000  0.79080000  0.83120000  1
  C  C420  1  0.30320000  0.36360000  0.22053000  1
  C  C421  1  0.30100000  0.74200000  0.05747000  1
  C  C422  1  0.30000000  0.57700000  0.94403000  1
  C  C423  1  0.29700000  0.34700000  0.55900000  1
  C  C424  1  0.29600000  0.17600000  0.01467000  1
  C  C425  1  0.29440000  0.35120000  0.73027000  1
  C  C426  1  0.29400000  0.72000000  0.83640000  1
  C  C427  1  0.29300000  0.92350000  0.59020000  1
  C  C428  1  0.29250000  0.33490000  0.76947000  1
  C  C429  1  0.29240000  0.95490000  0.00137000  1
  C  C430  1  0.29100000  0.36530000  0.18103000  1
  C  C431  1  0.29070000  0.94100000  0.04087000  1
  C  C432  1  0.28980000  0.40720000  0.93433000  1
  C  C433  1  0.28300000  0.87990000  0.83240000  1
  C  C434  1  0.28170000  0.18000000  0.49290000  1
  C  C435  1  0.28160000  0.09950000  0.27833000  1
  C  C436  1  0.28100000  0.74600000  0.09497000  1
  C  C437  1  0.28000000  0.57400000  0.16973000  1
  C  C438  1  0.27700000  0.70000000  0.61070000  1
  C  C439  1  0.27350000  0.53550000  0.68507000  1
  C  C440  1  0.27200000  0.67300000  0.80660000  1
  C  C441  1  0.27000000  0.62800000  0.62000000  1
  C  C442  1  0.26700000  0.11500000  0.31973000  1
  C  C443  1  0.26500000  0.15100000  0.45130000  1
  C  C444  1  0.26400000  0.79270000  0.34073000  1
  C  C445  1  0.26200000  0.72650000  0.35173000  1
  C  C446  1  0.26060000  0.40660000  0.16663000  1
  C  C447  1  0.25980000  0.47140000  0.43450000  1
  C  C448  1  0.25950000  0.85100000  0.60440000  1
  C  C449  1  0.25800000  0.55900000  0.39080000  1
  C  C450  1  0.25410000  0.38270000  0.71597000  1
  C  C451  1  0.25400000  0.33300000  0.92173000  1
  C  C452  1  0.25400000  0.53500000  0.42830000  1
  C  C453  1  0.24430000  0.87030000  0.05567000  1
  C  C454  1  0.24400000  0.91800000  0.83630000  1
  C  C455  1  0.24100000  0.32900000  0.87913000  1
  C  C456  1  0.22840000  0.35860000  0.44140000  1
  C  C457  1  0.22770000  0.86960000  0.33043000  1
  C  C458  1  0.21900000  0.67200000  0.32333000  1
  C  C459  1  0.21160000  0.74020000  0.10117000  1
  C  C460  1  0.20920000  0.51360000  0.16453000  1
  C  C461  1  0.20730000  0.47130000  0.67407000  1
  C  C462  1  0.20580000  0.68920000  0.60980000  1
  C  C463  1  0.18210000  0.28160000  0.44500000  1
  C  C464  1  0.18000000  0.89830000  0.32623000  1
  C  C465  1  0.17600000  0.88000000  0.84800000  1
  C  C466  1  0.15200000  0.26700000  0.48640000  1
  C  C467  1  0.15100000  0.88600000  0.28463000  1
  C  C468  1  0.14900000  0.40850000  0.93773000  1
  C  C469  1  0.14600000  0.73940000  0.83330000  1
  C  C470  1  0.14500000  0.62100000  0.72827000  1
  C  C471  1  0.13040000  0.35810000  0.66377000  1
  C  C472  1  0.13020000  0.77160000  0.10807000  1
  C  C473  1  0.12970000  0.37400000  0.38900000  1
  C  C474  1  0.12860000  0.74590000  0.38263000  1
  C  C475  1  0.12010000  0.40310000  0.16573000  1
  C  C476  1  0.12000000  0.29600000  0.18133000  1
  C  C477  1  0.11740000  0.71020000  0.60100000  1
  C  C478  1  0.11500000  0.84800000  0.15307000  1
  C  C479  1  0.11400000  0.26500000  0.61797000  1
  C  C480  1  0.10170000  0.28170000  0.65957000  1
  C  C481  1  0.09950000  0.81790000  0.11167000  1
  C  C482  1  0.08800000  0.75900000  0.54580000  1
  C  C483  1  0.08370000  0.66270000  0.23357000  1
  C  C484  1  0.08200000  0.32600000  0.16963000  1
  C  C485  1  0.08180000  0.53810000  0.90557000  1
  C  C486  1  0.07960000  0.54220000  0.86527000  1
  C  C487  1  0.07900000  0.74600000  0.58840000  1
  C  C488  1  0.07650000  0.36950000  0.92353000  1
  C  C489  1  0.07430000  0.70900000  0.84770000  1
  C  C490  1  0.07340000  0.41200000  0.53757000  1
  C  C491  1  0.07210000  0.59810000  0.74097000  1
  C  C492  1  0.06710000  0.46600000  0.03427000  1
  C  C493  1  0.06210000  0.37150000  0.88443000  1
  C  C494  1  0.06040000  0.69680000  0.88720000  1
  C  C495  1  0.05900000  0.34970000  0.37420000  1
  C  C496  1  0.05680000  0.70560000  0.39693000  1
  C  C497  1  0.05000000  0.70300000  0.22567000  1
  C  C498  1  0.04510000  0.33750000  0.33470000  1
  C  C499  1  0.04290000  0.51520000  0.36777000  1
  C  C500  1  0.04240000  0.70750000  0.43613000  1
  C  C501  1  0.04080000  0.58900000  0.22047000  1
  C  C502  1  0.04050000  0.51920000  0.40807000  1
  C  C503  1  0.03400000  0.35000000  0.51467000  1
  C  C504  1  0.03300000  0.44460000  0.55167000  1
  C  C505  1  0.03180000  0.50340000  0.05017000  1
  C  C506  1  0.02700000  0.52740000  0.72367000  1
  C  C507  1  0.02430000  0.33000000  0.94943000  1
  C  C508  1  0.02430000  0.50370000  0.97037000  1
  C  C509  1  0.02200000  0.39000000  0.04067000  1
  C  C510  1  0.02180000  0.50740000  0.92697000  1
  C  C511  1  0.02160000  0.69190000  0.82140000  1
  C  C512  1  0.01720000  0.51550000  0.84637000  1
  C  C513  1  0.01460000  0.51620000  0.80287000  1
  C  C514  1  0.00630000  0.33260000  0.40040000  1
  C  C515  1  0.00460000  0.66610000  0.37113000  1
  N  N516  1  0.99640000  0.52690000  0.02807000  1
  N  N517  1  0.99350000  0.46720000  0.74507000  1
  N  N518  1  0.99230000  0.52400000  0.98667000  1
  N  N519  1  0.99120000  0.46320000  0.78717000  1
  N  N520  1  0.98460000  0.54760000  0.08817000  1
  N  N521  1  0.98220000  0.49340000  0.18627000  1
  N  N522  1  0.97840000  0.48460000  0.58727000  1
  N  N523  1  0.97710000  0.43780000  0.68437000  1
  N  N524  1  0.90690000  0.35440000  0.11330000  1
  N  N525  1  0.90190000  0.55420000  0.65413000  1
  N  N526  1  0.89800000  0.60330000  0.15547000  1
  N  N527  1  0.89590000  0.29440000  0.61787000  1
  N  N528  1  0.86180000  0.61950000  0.92230000  1
  N  N529  1  0.86040000  0.24650000  0.84953000  1
  N  N530  1  0.85430000  0.36640000  0.11900000  1
  N  N531  1  0.85260000  0.53630000  0.16207000  1
  N  N532  1  0.84920000  0.48860000  0.65393000  1
  N  N533  1  0.84760000  0.31300000  0.61347000  1
  N  N534  1  0.81250000  0.26320000  0.09810000  1
  N  N535  1  0.81060000  0.55410000  0.67263000  1
  N  N536  1  0.80910000  0.23410000  0.35500000  1
  N  N537  1  0.80400000  0.56940000  0.41783000  1
  N  N538  1  0.80290000  0.59470000  0.17447000  1
  N  N539  1  0.80180000  0.20620000  0.59917000  1
  N  N540  1  0.79380000  0.59560000  0.93250000  1
  N  N541  1  0.79180000  0.19710000  0.84113000  1
  N  N542  1  0.76590000  0.57500000  0.68833000  1
  N  N543  1  0.76540000  0.19600000  0.08450000  1
  N  N544  1  0.75770000  0.13820000  0.58897000  1
  N  N545  1  0.75350000  0.61390000  0.18287000  1
  N  N546  1  0.74350000  0.18940000  0.33930000  1
  N  N547  1  0.73680000  0.54930000  0.43143000  1
  N  N548  1  0.70560000  0.60150000  0.95120000  1
  N  N549  1  0.70530000  0.10200000  0.82213000  1
  N  N550  1  0.68700000  0.53460000  0.94680000  1
  N  N551  1  0.68370000  0.14740000  0.82873000  1
  N  N552  1  0.65230000  0.09810000  0.32080000  1
  N  N553  1  0.64560000  0.55250000  0.44663000  1
  N  N554  1  0.63940000  0.15080000  0.32060000  1
  N  N555  1  0.63360000  0.48790000  0.45233000  1
  N  N556  1  0.61950000  0.75770000  0.75563000  1
  N  N557  1  0.61390000  0.86040000  0.01620000  1
  N  N558  1  0.60330000  0.70530000  0.98880000  1
  N  N559  1  0.60150000  0.89590000  0.78453000  1
  N  N560  1  0.59560000  0.80180000  0.76583000  1
  N  N561  1  0.59470000  0.79180000  0.00780000  1
  N  N562  1  0.57500000  0.80910000  0.52167000  1
  N  N563  1  0.56940000  0.76540000  0.25117000  1
  N  N564  1  0.56300000  0.01540000  0.75483000  1
  N  N565  1  0.56220000  0.53930000  0.01770000  1
  N  N566  1  0.55420000  0.65230000  0.48747000  1
  N  N567  1  0.55410000  0.74350000  0.50597000  1
  N  N568  1  0.55250000  0.90690000  0.27997000  1
  N  N569  1  0.54930000  0.81250000  0.26477000  1
  N  N570  1  0.54760000  0.56300000  0.92150000  1
  N  N571  1  0.53930000  0.97710000  0.85103000  1
  N  N572  1  0.53680000  0.52800000  0.12050000  1
  N  N573  1  0.53630000  0.68370000  0.99540000  1
  N  N574  1  0.53460000  0.84760000  0.78013000  1
  N  N575  1  0.53280000  0.52630000  0.07840000  1
  N  N576  1  0.53170000  0.00770000  0.65333000  1
  N  N577  1  0.53050000  0.00360000  0.69473000  1
  N  N578  1  0.52800000  0.99120000  0.95383000  1
  N  N579  1  0.52690000  0.53050000  0.86140000  1
  N  N580  1  0.52630000  0.99350000  0.91173000  1
  N  N581  1  0.52400000  0.53170000  0.82000000  1
  N  N582  1  0.51540000  0.49380000  0.92060000  1
  N  N583  1  0.51210000  0.14570000  0.78567000  1
  N  N584  1  0.51140000  0.36060000  0.98727000  1
  N  N585  1  0.51120000  0.01780000  0.85293000  1
  N  N586  1  0.50660000  0.48880000  0.51960000  1
  N  N587  1  0.50620000  0.02160000  0.25393000  1
  N  N588  1  0.49380000  0.97840000  0.75393000  1
  N  N589  1  0.49340000  0.51120000  0.01960000  1
  N  N590  1  0.48880000  0.98220000  0.35293000  1
  N  N591  1  0.48860000  0.63940000  0.48727000  1
  N  N592  1  0.48790000  0.85430000  0.28567000  1
  N  N593  1  0.48460000  0.50620000  0.42060000  1
  N  N594  1  0.47600000  0.46830000  0.32000000  1
  N  N595  1  0.47370000  0.00650000  0.41173000  1
  N  N596  1  0.47310000  0.46950000  0.36140000  1
  N  N597  1  0.47200000  0.00880000  0.45383000  1
  N  N598  1  0.46950000  0.99640000  0.19473000  1
  N  N599  1  0.46830000  0.99230000  0.15333000  1
  N  N600  1  0.46720000  0.47370000  0.57840000  1
  N  N601  1  0.46540000  0.15240000  0.28013000  1
  N  N602  1  0.46370000  0.31630000  0.49540000  1
  N  N603  1  0.46320000  0.47200000  0.62050000  1
  N  N604  1  0.46070000  0.02290000  0.35103000  1
  N  N605  1  0.45240000  0.43700000  0.42150000  1
  N  N606  1  0.45070000  0.18750000  0.76477000  1
  N  N607  1  0.44750000  0.09310000  0.77997000  1
  N  N608  1  0.44590000  0.25650000  0.00597000  1
  N  N609  1  0.44580000  0.34770000  0.98747000  1
  N  N610  1  0.43780000  0.46070000  0.51770000  1
  N  N611  1  0.43700000  0.98460000  0.25483000  1
  N  N612  1  0.43060000  0.23460000  0.75117000  1
  N  N613  1  0.42500000  0.19090000  0.02167000  1
  N  N614  1  0.40530000  0.20820000  0.50780000  1
  N  N615  1  0.40440000  0.19820000  0.26583000  1
  N  N616  1  0.39850000  0.10410000  0.28453000  1
  N  N617  1  0.39670000  0.29470000  0.48880000  1
  N  N618  1  0.38610000  0.13960000  0.51620000  1
  N  N619  1  0.38050000  0.24230000  0.25563000  1
  N  N620  1  0.36640000  0.51210000  0.95233000  1
  N  N621  1  0.36060000  0.84920000  0.82060000  1
  N  N622  1  0.35440000  0.44750000  0.94663000  1
  N  N623  1  0.34770000  0.90190000  0.82080000  1
  N  N624  1  0.31630000  0.85260000  0.32873000  1
  N  N625  1  0.31300000  0.46540000  0.44680000  1
  N  N626  1  0.29470000  0.89800000  0.32213000  1
  N  N627  1  0.29440000  0.39850000  0.45120000  1
  N  N628  1  0.26320000  0.45070000  0.93143000  1
  N  N629  1  0.25650000  0.81060000  0.83930000  1
  N  N630  1  0.24650000  0.38610000  0.68287000  1
  N  N631  1  0.24230000  0.86180000  0.08897000  1
  N  N632  1  0.23460000  0.80400000  0.58450000  1
  N  N633  1  0.23410000  0.42500000  0.18833000  1
  N  N634  1  0.20820000  0.80290000  0.34113000  1
  N  N635  1  0.20620000  0.40440000  0.43250000  1
  N  N636  1  0.19820000  0.79380000  0.09917000  1
  N  N637  1  0.19710000  0.40530000  0.67447000  1
  N  N638  1  0.19600000  0.43060000  0.91783000  1
  N  N639  1  0.19090000  0.76590000  0.85500000  1
  N  N640  1  0.18940000  0.44590000  0.17263000  1
  N  N641  1  0.18750000  0.73680000  0.59810000  1
  N  N642  1  0.15240000  0.68700000  0.11347000  1
  N  N643  1  0.15080000  0.51140000  0.15393000  1
  N  N644  1  0.14740000  0.46370000  0.66207000  1
  N  N645  1  0.14570000  0.63360000  0.61900000  1
  N  N646  1  0.13960000  0.75350000  0.34953000  1
  N  N647  1  0.13820000  0.38050000  0.42230000  1
  N  N648  1  0.10410000  0.70560000  0.11787000  1
  N  N649  1  0.10200000  0.39670000  0.65547000  1
  N  N650  1  0.09810000  0.44580000  0.15413000  1
  N  N651  1  0.09310000  0.64560000  0.61330000  1
  N  N652  1  0.02290000  0.56220000  0.18437000  1
  N  N653  1  0.02160000  0.51540000  0.08727000  1
  N  N654  1  0.01780000  0.50660000  0.68627000  1
  N  N655  1  0.01540000  0.45240000  0.58817000  1
  N  N656  1  0.00880000  0.53680000  0.28717000  1
  N  N657  1  0.00770000  0.47600000  0.48667000  1
  N  N658  1  0.00650000  0.53280000  0.24507000  1
  N  N659  1  0.00360000  0.47310000  0.52807000  1
  O  O660  1  0.98600000  0.70400000  0.67233000  1
  O  O661  1  0.97000000  0.75100000  0.16677000  1
  O  O662  1  0.96700000  0.21500000  0.60267000  1
  O  O663  1  0.92800000  0.41800000  0.28487000  1
  O  O664  1  0.92300000  0.21100000  0.11260000  1
  O  O665  1  0.87400000  0.51200000  0.55967000  1
  O  O666  1  0.86800000  0.57000000  0.05267000  1
  O  O667  1  0.84800000  0.30800000  0.72567000  1
  O  O668  1  0.78900000  0.71200000  0.44593000  1
  O  O669  1  0.78500000  0.75200000  0.93600000  1
  O  O670  1  0.78100000  0.03000000  0.83343000  1
  O  O671  1  0.76000000  0.29200000  0.89073000  1
  O  O672  1  0.75200000  0.96700000  0.76933000  1
  O  O673  1  0.75100000  0.78100000  0.00010000  1
  O  O674  1  0.74100000  0.42700000  0.47873000  1
  O  O675  1  0.72500000  0.30300000  0.37540000  1
  O  O676  1  0.71800000  0.01400000  0.33900000  1
  O  O677  1  0.71700000  0.30100000  0.62447000  1
  O  O678  1  0.71200000  0.92300000  0.27927000  1
  O  O679  1  0.70800000  0.46800000  0.22407000  1
  O  O680  1  0.70400000  0.71800000  0.50567000  1
  O  O681  1  0.70200000  0.13200000  0.71933000  1
  O  O682  1  0.69900000  0.41600000  0.95780000  1
  O  O683  1  0.69700000  0.42200000  0.70873000  1
  O  O684  1  0.69200000  0.54000000  0.05900000  1
  O  O685  1  0.68600000  0.25900000  0.14540000  1
  O  O686  1  0.63800000  0.12600000  0.22633000  1
  O  O687  1  0.58400000  0.28300000  0.29113000  1
  O  O688  1  0.58200000  0.51000000  0.61820000  1
  O  O689  1  0.57800000  0.27500000  0.04207000  1
  O  O690  1  0.57300000  0.31400000  0.81207000  1
  O  O691  1  0.57000000  0.70200000  0.88600000  1
  O  O692  1  0.54000000  0.84800000  0.89233000  1
  O  O693  1  0.53200000  0.24000000  0.55740000  1
  O  O694  1  0.51200000  0.63800000  0.39300000  1
  O  O695  1  0.51000000  0.92800000  0.45153000  1
  O  O696  1  0.49000000  0.07200000  0.95153000  1
  O  O697  1  0.48800000  0.36200000  0.89300000  1
  O  O698  1  0.46800000  0.76000000  0.05740000  1
  O  O699  1  0.46000000  0.15200000  0.39233000  1
  O  O700  1  0.43000000  0.29800000  0.38600000  1
  O  O701  1  0.42700000  0.68600000  0.31207000  1
  O  O702  1  0.42200000  0.72500000  0.54207000  1
  O  O703  1  0.41800000  0.49000000  0.11820000  1
  O  O704  1  0.41600000  0.71700000  0.79113000  1
  O  O705  1  0.36200000  0.87400000  0.72633000  1
  O  O706  1  0.31400000  0.74100000  0.64540000  1
  O  O707  1  0.30800000  0.46000000  0.55900000  1
  O  O708  1  0.30300000  0.57800000  0.20873000  1
  O  O709  1  0.30100000  0.58400000  0.45780000  1
  O  O710  1  0.29800000  0.86800000  0.21933000  1
  O  O711  1  0.29600000  0.28200000  0.00567000  1
  O  O712  1  0.29200000  0.53200000  0.72407000  1
  O  O713  1  0.28800000  0.07700000  0.77927000  1
  O  O714  1  0.28300000  0.69900000  0.12447000  1
  O  O715  1  0.28200000  0.98600000  0.83900000  1
  O  O716  1  0.27500000  0.69700000  0.87540000  1
  O  O717  1  0.25900000  0.57300000  0.97873000  1
  O  O718  1  0.24900000  0.21900000  0.50010000  1
  O  O719  1  0.24800000  0.03300000  0.26933000  1
  O  O720  1  0.24000000  0.70800000  0.39073000  1
  O  O721  1  0.21900000  0.97000000  0.33343000  1
  O  O722  1  0.21500000  0.24800000  0.43600000  1
  O  O723  1  0.21100000  0.28800000  0.94593000  1
  O  O724  1  0.15200000  0.69200000  0.22567000  1
  O  O725  1  0.13200000  0.43000000  0.55267000  1
  O  O726  1  0.12600000  0.48800000  0.05967000  1
  O  O727  1  0.07700000  0.78900000  0.61260000  1
  O  O728  1  0.07200000  0.58200000  0.78487000  1
  O  O729  1  0.03300000  0.78500000  0.10267000  1
  O  O730  1  0.03000000  0.24900000  0.66677000  1
  O  O731  1  0.01400000  0.29600000  0.17233000  1
