# generated using pymatgen
data_Zn5(PO4)4
_symmetry_space_group_name_H-M   'P 1'
_cell_length_a   7.25900000
_cell_length_b   13.40700000
_cell_length_c   18.03100000
_cell_angle_alpha   90.00000000
_cell_angle_beta   90.00000000
_cell_angle_gamma   90.00000000
_symmetry_Int_Tables_number   1
_chemical_formula_structural   Zn5(PO4)4
_chemical_formula_sum   'Zn20 P16 O64'
_cell_volume   1754.80239780
_cell_formula_units_Z   4
loop_
 _symmetry_equiv_pos_site_id
 _symmetry_equiv_pos_as_xyz
  1  'x, y, z'
loop_
 _atom_site_type_symbol
 _atom_site_label
 _atom_site_symmetry_multiplicity
 _atom_site_fract_x
 _atom_site_fract_y
 _atom_site_fract_z
 _atom_site_occupancy
  Zn  Zn0  1  0.00080000  0.62934000  0.72291000  1
  Zn  Zn1  1  0.01350000  0.38506000  0.70659000  1
  Zn  Zn2  1  0.05360000  0.85794000  0.30279000  1
  Zn  Zn3  1  0.05760000  0.11190000  0.31391000  1
  Zn  Zn4  1  0.14280000  0.99846000  0.08123000  1
  Zn  Zn5  1  0.35720000  0.00154000  0.58123000  1
  Zn  Zn6  1  0.44240000  0.88810000  0.81391000  1
  Zn  Zn7  1  0.44640000  0.14206000  0.80279000  1
  Zn  Zn8  1  0.48650000  0.61494000  0.20659000  1
  Zn  Zn9  1  0.49920000  0.37066000  0.22291000  1
  Zn  Zn10  1  0.50080000  0.87066000  0.27709000  1
  Zn  Zn11  1  0.51350000  0.11494000  0.29341000  1
  Zn  Zn12  1  0.55360000  0.64206000  0.69721000  1
  Zn  Zn13  1  0.55760000  0.38810000  0.68609000  1
  Zn  Zn14  1  0.64280000  0.50154000  0.91877000  1
  Zn  Zn15  1  0.85720000  0.49846000  0.41877000  1
  Zn  Zn16  1  0.94240000  0.61190000  0.18609000  1
  Zn  Zn17  1  0.94640000  0.35794000  0.19721000  1
  Zn  Zn18  1  0.98650000  0.88506000  0.79341000  1
  Zn  Zn19  1  0.99920000  0.12934000  0.77709000  1
  P  P20  1  0.18230000  0.01960000  0.90660000  1
  P  P21  1  0.18950000  0.49610000  0.29300000  1
  P  P22  1  0.23960000  0.80920000  0.67090000  1
  P  P23  1  0.24040000  0.78870000  0.15260000  1
  P  P24  1  0.25960000  0.21130000  0.65260000  1
  P  P25  1  0.26040000  0.19080000  0.17090000  1
  P  P26  1  0.31050000  0.50390000  0.79300000  1
  P  P27  1  0.31770000  0.98040000  0.40660000  1
  P  P28  1  0.68230000  0.48040000  0.09340000  1
  P  P29  1  0.68950000  0.00390000  0.70700000  1
  P  P30  1  0.73960000  0.69080000  0.32910000  1
  P  P31  1  0.74040000  0.71130000  0.84740000  1
  P  P32  1  0.75960000  0.28870000  0.34740000  1
  P  P33  1  0.76040000  0.30920000  0.82910000  1
  P  P34  1  0.81050000  0.99610000  0.20700000  1
  P  P35  1  0.81770000  0.51960000  0.59340000  1
  O  O36  1  0.03130000  0.01450000  0.84310000  1
  O  O37  1  0.04340000  0.48880000  0.23060000  1
  O  O38  1  0.06000000  0.73090000  0.15250000  1
  O  O39  1  0.07100000  0.24050000  0.16450000  1
  O  O40  1  0.07300000  0.73580000  0.66090000  1
  O  O41  1  0.08190000  0.02330000  0.97880000  1
  O  O42  1  0.09360000  0.50520000  0.36660000  1
  O  O43  1  0.09400000  0.27910000  0.64230000  1
  O  O44  1  0.19540000  0.59670000  0.79040000  1
  O  O45  1  0.19700000  0.41070000  0.78140000  1
  O  O46  1  0.20100000  0.07190000  0.40130000  1
  O  O47  1  0.20150000  0.88720000  0.39010000  1
  O  O48  1  0.21180000  0.88780000  0.61350000  1
  O  O49  1  0.22630000  0.85210000  0.75050000  1
  O  O50  1  0.23840000  0.86290000  0.09110000  1
  O  O51  1  0.24100000  0.15920000  0.72870000  1
  O  O52  1  0.25900000  0.84080000  0.22870000  1
  O  O53  1  0.26160000  0.13710000  0.59110000  1
  O  O54  1  0.27370000  0.14790000  0.25050000  1
  O  O55  1  0.28820000  0.11220000  0.11350000  1
  O  O56  1  0.29850000  0.11280000  0.89010000  1
  O  O57  1  0.29900000  0.92810000  0.90130000  1
  O  O58  1  0.30300000  0.58930000  0.28140000  1
  O  O59  1  0.30460000  0.40330000  0.29040000  1
  O  O60  1  0.40600000  0.72090000  0.14230000  1
  O  O61  1  0.40640000  0.49480000  0.86660000  1
  O  O62  1  0.41810000  0.97670000  0.47880000  1
  O  O63  1  0.42700000  0.26420000  0.16090000  1
  O  O64  1  0.42900000  0.75950000  0.66450000  1
  O  O65  1  0.44000000  0.26910000  0.65250000  1
  O  O66  1  0.45660000  0.51120000  0.73060000  1
  O  O67  1  0.46870000  0.98550000  0.34310000  1
  O  O68  1  0.53130000  0.48550000  0.15690000  1
  O  O69  1  0.54340000  0.01120000  0.76940000  1
  O  O70  1  0.56000000  0.76910000  0.84750000  1
  O  O71  1  0.57100000  0.25950000  0.83550000  1
  O  O72  1  0.57300000  0.76420000  0.33910000  1
  O  O73  1  0.58190000  0.47670000  0.02120000  1
  O  O74  1  0.59360000  0.99480000  0.63340000  1
  O  O75  1  0.59400000  0.22090000  0.35770000  1
  O  O76  1  0.69540000  0.90330000  0.20960000  1
  O  O77  1  0.69700000  0.08930000  0.21860000  1
  O  O78  1  0.70100000  0.42810000  0.59870000  1
  O  O79  1  0.70150000  0.61280000  0.60990000  1
  O  O80  1  0.71180000  0.61220000  0.38650000  1
  O  O81  1  0.72630000  0.64790000  0.24950000  1
  O  O82  1  0.73840000  0.63710000  0.90890000  1
  O  O83  1  0.74100000  0.34080000  0.27130000  1
  O  O84  1  0.75900000  0.65920000  0.77130000  1
  O  O85  1  0.76160000  0.36290000  0.40890000  1
  O  O86  1  0.77370000  0.35210000  0.74950000  1
  O  O87  1  0.78820000  0.38780000  0.88650000  1
  O  O88  1  0.79850000  0.38720000  0.10990000  1
  O  O89  1  0.79900000  0.57190000  0.09870000  1
  O  O90  1  0.80300000  0.91070000  0.71860000  1
  O  O91  1  0.80460000  0.09670000  0.70960000  1
  O  O92  1  0.90600000  0.77910000  0.85770000  1
  O  O93  1  0.90640000  0.00520000  0.13340000  1
  O  O94  1  0.91810000  0.52330000  0.52120000  1
  O  O95  1  0.92700000  0.23580000  0.83910000  1
  O  O96  1  0.92900000  0.74050000  0.33550000  1
  O  O97  1  0.94000000  0.23090000  0.34750000  1
  O  O98  1  0.95660000  0.98880000  0.26940000  1
  O  O99  1  0.96870000  0.51450000  0.65690000  1
