# generated using pymatgen
data_Cd2H35C43N3O11
_symmetry_space_group_name_H-M   'P 1'
_cell_length_a   16.61440000
_cell_length_b   17.86620000
_cell_length_c   32.78200000
_cell_angle_alpha   90.00000000
_cell_angle_beta   90.00000000
_cell_angle_gamma   90.00000000
_symmetry_Int_Tables_number   1
_chemical_formula_structural   Cd2H35C43N3O11
_chemical_formula_sum   'Cd16 H280 C344 N24 O88'
_cell_volume   9730.88408810
_cell_formula_units_Z   8
loop_
 _symmetry_equiv_pos_site_id
 _symmetry_equiv_pos_as_xyz
  1  'x, y, z'
loop_
 _atom_site_type_symbol
 _atom_site_label
 _atom_site_symmetry_multiplicity
 _atom_site_fract_x
 _atom_site_fract_y
 _atom_site_fract_z
 _atom_site_occupancy
  Cd  Cd0  1  0.79506000  0.29701000  0.83744000  1
  Cd  Cd1  1  0.79506000  0.79701000  0.66256000  1
  Cd  Cd2  1  0.79506000  0.70299000  0.33744000  1
  Cd  Cd3  1  0.79506000  0.20299000  0.16256000  1
  Cd  Cd4  1  0.70278000  0.47252000  0.86935000  1
  Cd  Cd5  1  0.70278000  0.97252000  0.63065000  1
  Cd  Cd6  1  0.70278000  0.52748000  0.36935000  1
  Cd  Cd7  1  0.70278000  0.02748000  0.13065000  1
  Cd  Cd8  1  0.29722000  0.97252000  0.86935000  1
  Cd  Cd9  1  0.29722000  0.47252000  0.63065000  1
  Cd  Cd10  1  0.29722000  0.02748000  0.36935000  1
  Cd  Cd11  1  0.29722000  0.52748000  0.13065000  1
  Cd  Cd12  1  0.20494000  0.79701000  0.83744000  1
  Cd  Cd13  1  0.20494000  0.29701000  0.66256000  1
  Cd  Cd14  1  0.20494000  0.20299000  0.33744000  1
  Cd  Cd15  1  0.20494000  0.70299000  0.16256000  1
  H  H16  1  0.99060000  0.47460000  0.78240000  1
  H  H17  1  0.99060000  0.97460000  0.71760000  1
  H  H18  1  0.99060000  0.52540000  0.28240000  1
  H  H19  1  0.99060000  0.02540000  0.21760000  1
  H  H20  1  0.98990000  0.37260000  0.88810000  1
  H  H21  1  0.98990000  0.87260000  0.61190000  1
  H  H22  1  0.98990000  0.62740000  0.38810000  1
  H  H23  1  0.98990000  0.12740000  0.11190000  1
  H  H24  1  0.97500000  0.64450000  0.88820000  1
  H  H25  1  0.97500000  0.14450000  0.61180000  1
  H  H26  1  0.97500000  0.35550000  0.38820000  1
  H  H27  1  0.97500000  0.85550000  0.11180000  1
  H  H28  1  0.95890000  0.97980000  0.93730000  1
  H  H29  1  0.95890000  0.47980000  0.56270000  1
  H  H30  1  0.95890000  0.02020000  0.43730000  1
  H  H31  1  0.95890000  0.52020000  0.06270000  1
  H  H32  1  0.95590000  0.81050000  0.82730000  1
  H  H33  1  0.95590000  0.31050000  0.67270000  1
  H  H34  1  0.95590000  0.18950000  0.32730000  1
  H  H35  1  0.95590000  0.68950000  0.17270000  1
  H  H36  1  0.95220000  0.86170000  0.92540000  1
  H  H37  1  0.95220000  0.36170000  0.57460000  1
  H  H38  1  0.95220000  0.13830000  0.42540000  1
  H  H39  1  0.95220000  0.63830000  0.07460000  1
  H  H40  1  0.95030000  0.80470000  0.88900000  1
  H  H41  1  0.95030000  0.30470000  0.61100000  1
  H  H42  1  0.95030000  0.19530000  0.38900000  1
  H  H43  1  0.95030000  0.69530000  0.11100000  1
  H  H44  1  0.92250000  0.07420000  0.78450000  1
  H  H45  1  0.92250000  0.57420000  0.71550000  1
  H  H46  1  0.92250000  0.92580000  0.28450000  1
  H  H47  1  0.92250000  0.42580000  0.21550000  1
  H  H48  1  0.91420000  0.05550000  0.92850000  1
  H  H49  1  0.91420000  0.55550000  0.57150000  1
  H  H50  1  0.91420000  0.94450000  0.42850000  1
  H  H51  1  0.91420000  0.44450000  0.07150000  1
  H  H52  1  0.91210000  0.83490000  0.78710000  1
  H  H53  1  0.91210000  0.33490000  0.71290000  1
  H  H54  1  0.91210000  0.16510000  0.28710000  1
  H  H55  1  0.91210000  0.66510000  0.21290000  1
  H  H56  1  0.90760000  0.07140000  0.99900000  1
  H  H57  1  0.90760000  0.57140000  0.50100000  1
  H  H58  1  0.90760000  0.92860000  0.49900000  1
  H  H59  1  0.90760000  0.42860000  0.00100000  1
  H  H60  1  0.89050000  0.53710000  0.88690000  1
  H  H61  1  0.89050000  0.03710000  0.61310000  1
  H  H62  1  0.89050000  0.46290000  0.38690000  1
  H  H63  1  0.89050000  0.96290000  0.11310000  1
  H  H64  1  0.88300000  0.72030000  0.75970000  1
  H  H65  1  0.88300000  0.22030000  0.74030000  1
  H  H66  1  0.88300000  0.27970000  0.25970000  1
  H  H67  1  0.88300000  0.77970000  0.24030000  1
  H  H68  1  0.83980000  0.44570000  0.93900000  1
  H  H69  1  0.83980000  0.94570000  0.56100000  1
  H  H70  1  0.83980000  0.55430000  0.43900000  1
  H  H71  1  0.83980000  0.05430000  0.06100000  1
  H  H72  1  0.81890000  0.60670000  0.75920000  1
  H  H73  1  0.81890000  0.10670000  0.74080000  1
  H  H74  1  0.81890000  0.39330000  0.25920000  1
  H  H75  1  0.81890000  0.89330000  0.24080000  1
  H  H76  1  0.80720000  0.75550000  0.87450000  1
  H  H77  1  0.80720000  0.25550000  0.62550000  1
  H  H78  1  0.80720000  0.24450000  0.37450000  1
  H  H79  1  0.80720000  0.74450000  0.12550000  1
  H  H80  1  0.79730000  0.12930000  0.87980000  1
  H  H81  1  0.79730000  0.62930000  0.62020000  1
  H  H82  1  0.79730000  0.87070000  0.37980000  1
  H  H83  1  0.79730000  0.37070000  0.12020000  1
  H  H84  1  0.79670000  0.93100000  0.75420000  1
  H  H85  1  0.79670000  0.43100000  0.74580000  1
  H  H86  1  0.79670000  0.06900000  0.25420000  1
  H  H87  1  0.79670000  0.56900000  0.24580000  1
  H  H88  1  0.79160000  0.08780000  0.92190000  1
  H  H89  1  0.79160000  0.58780000  0.57810000  1
  H  H90  1  0.79160000  0.91220000  0.42190000  1
  H  H91  1  0.79160000  0.41220000  0.07810000  1
  H  H92  1  0.78960000  0.90250000  0.95050000  1
  H  H93  1  0.78960000  0.40250000  0.54950000  1
  H  H94  1  0.78960000  0.09750000  0.45050000  1
  H  H95  1  0.78960000  0.59750000  0.04950000  1
  H  H96  1  0.78810000  0.84950000  0.77140000  1
  H  H97  1  0.78810000  0.34950000  0.72860000  1
  H  H98  1  0.78810000  0.15050000  0.27140000  1
  H  H99  1  0.78810000  0.65050000  0.22860000  1
  H  H100  1  0.74240000  0.09290000  0.81430000  1
  H  H101  1  0.74240000  0.59290000  0.68570000  1
  H  H102  1  0.74240000  0.90710000  0.31430000  1
  H  H103  1  0.74240000  0.40710000  0.18570000  1
  H  H104  1  0.73980000  0.64360000  0.87350000  1
  H  H105  1  0.73980000  0.14360000  0.62650000  1
  H  H106  1  0.73980000  0.35640000  0.37350000  1
  H  H107  1  0.73980000  0.85640000  0.12650000  1
  H  H108  1  0.72200000  0.02750000  0.78420000  1
  H  H109  1  0.72200000  0.52750000  0.71580000  1
  H  H110  1  0.72200000  0.97250000  0.28420000  1
  H  H111  1  0.72200000  0.47250000  0.21580000  1
  H  H112  1  0.71860000  0.61600000  0.99180000  1
  H  H113  1  0.71860000  0.08590000  0.89160000  1
  H  H114  1  0.71860000  0.58590000  0.60840000  1
  H  H115  1  0.71860000  0.11600000  0.50820000  1
  H  H116  1  0.71860000  0.38400000  0.49180000  1
  H  H117  1  0.71860000  0.91410000  0.39160000  1
  H  H118  1  0.71860000  0.41410000  0.10840000  1
  H  H119  1  0.71860000  0.88400000  0.00820000  1
  H  H120  1  0.71670000  0.90630000  0.77570000  1
  H  H121  1  0.71670000  0.40630000  0.72430000  1
  H  H122  1  0.71670000  0.09370000  0.27570000  1
  H  H123  1  0.71670000  0.59370000  0.22430000  1
  H  H124  1  0.68620000  0.16830000  0.94410000  1
  H  H125  1  0.68620000  0.66830000  0.55590000  1
  H  H126  1  0.68620000  0.83170000  0.44410000  1
  H  H127  1  0.68620000  0.33170000  0.05590000  1
  H  H128  1  0.66940000  0.37870000  0.98990000  1
  H  H129  1  0.66940000  0.87870000  0.51010000  1
  H  H130  1  0.66940000  0.62130000  0.48990000  1
  H  H131  1  0.66940000  0.12130000  0.01010000  1
  H  H132  1  0.63050000  0.92980000  0.84470000  1
  H  H133  1  0.63050000  0.42980000  0.65530000  1
  H  H134  1  0.63050000  0.07020000  0.34470000  1
  H  H135  1  0.63050000  0.57020000  0.15530000  1
  H  H136  1  0.61970000  0.14870000  0.81400000  1
  H  H137  1  0.61970000  0.64870000  0.68600000  1
  H  H138  1  0.61970000  0.85130000  0.31400000  1
  H  H139  1  0.61970000  0.35130000  0.18600000  1
  H  H140  1  0.55780000  0.22830000  0.76790000  1
  H  H141  1  0.55780000  0.72830000  0.73210000  1
  H  H142  1  0.55780000  0.77170000  0.26790000  1
  H  H143  1  0.55780000  0.27170000  0.23210000  1
  H  H144  1  0.55750000  0.45140000  0.76900000  1
  H  H145  1  0.55750000  0.95140000  0.73100000  1
  H  H146  1  0.55750000  0.54860000  0.26900000  1
  H  H147  1  0.55750000  0.04860000  0.23100000  1
  H  H148  1  0.51580000  0.64510000  0.83320000  1
  H  H149  1  0.51580000  0.14510000  0.66680000  1
  H  H150  1  0.51580000  0.35490000  0.33320000  1
  H  H151  1  0.51580000  0.85490000  0.16680000  1
  H  H152  1  0.50250000  0.94470000  0.87440000  1
  H  H153  1  0.50250000  0.44470000  0.62560000  1
  H  H154  1  0.50250000  0.05530000  0.37440000  1
  H  H155  1  0.50250000  0.55530000  0.12560000  1
  H  H156  1  0.49750000  0.44470000  0.87440000  1
  H  H157  1  0.49750000  0.94470000  0.62560000  1
  H  H158  1  0.49750000  0.55530000  0.37440000  1
  H  H159  1  0.49750000  0.05530000  0.12560000  1
  H  H160  1  0.48420000  0.14510000  0.83320000  1
  H  H161  1  0.48420000  0.64510000  0.66680000  1
  H  H162  1  0.48420000  0.85490000  0.33320000  1
  H  H163  1  0.48420000  0.35490000  0.16680000  1
  H  H164  1  0.44250000  0.95140000  0.76900000  1
  H  H165  1  0.44250000  0.45140000  0.73100000  1
  H  H166  1  0.44250000  0.04860000  0.26900000  1
  H  H167  1  0.44250000  0.54860000  0.23100000  1
  H  H168  1  0.44220000  0.72830000  0.76790000  1
  H  H169  1  0.44220000  0.22830000  0.73210000  1
  H  H170  1  0.44220000  0.27170000  0.26790000  1
  H  H171  1  0.44220000  0.77170000  0.23210000  1
  H  H172  1  0.38030000  0.64870000  0.81400000  1
  H  H173  1  0.38030000  0.14870000  0.68600000  1
  H  H174  1  0.38030000  0.35130000  0.31400000  1
  H  H175  1  0.38030000  0.85130000  0.18600000  1
  H  H176  1  0.36950000  0.42980000  0.84470000  1
  H  H177  1  0.36950000  0.92980000  0.65530000  1
  H  H178  1  0.36950000  0.57020000  0.34470000  1
  H  H179  1  0.36950000  0.07020000  0.15530000  1
  H  H180  1  0.33060000  0.87870000  0.98990000  1
  H  H181  1  0.33060000  0.37870000  0.51010000  1
  H  H182  1  0.33060000  0.12130000  0.48990000  1
  H  H183  1  0.33060000  0.62130000  0.01010000  1
  H  H184  1  0.31380000  0.66830000  0.94410000  1
  H  H185  1  0.31380000  0.16830000  0.55590000  1
  H  H186  1  0.31380000  0.33170000  0.44410000  1
  H  H187  1  0.31380000  0.83170000  0.05590000  1
  H  H188  1  0.28330000  0.40630000  0.77570000  1
  H  H189  1  0.28330000  0.90630000  0.72430000  1
  H  H190  1  0.28330000  0.59370000  0.27570000  1
  H  H191  1  0.28330000  0.09370000  0.22430000  1
  H  H192  1  0.28140000  0.11600000  0.99180000  1
  H  H193  1  0.28140000  0.58590000  0.89160000  1
  H  H194  1  0.28140000  0.08590000  0.60840000  1
  H  H195  1  0.28140000  0.61600000  0.50820000  1
  H  H196  1  0.28140000  0.88400000  0.49180000  1
  H  H197  1  0.28140000  0.41410000  0.39160000  1
  H  H198  1  0.28140000  0.91410000  0.10840000  1
  H  H199  1  0.28140000  0.38400000  0.00820000  1
  H  H200  1  0.27800000  0.52750000  0.78420000  1
  H  H201  1  0.27800000  0.02750000  0.71580000  1
  H  H202  1  0.27800000  0.47250000  0.28420000  1
  H  H203  1  0.27800000  0.97250000  0.21580000  1
  H  H204  1  0.26020000  0.14360000  0.87350000  1
  H  H205  1  0.26020000  0.64360000  0.62650000  1
  H  H206  1  0.26020000  0.85640000  0.37350000  1
  H  H207  1  0.26020000  0.35640000  0.12650000  1
  H  H208  1  0.25760000  0.59290000  0.81430000  1
  H  H209  1  0.25760000  0.09290000  0.68570000  1
  H  H210  1  0.25760000  0.40710000  0.31430000  1
  H  H211  1  0.25760000  0.90710000  0.18570000  1
  H  H212  1  0.21190000  0.34950000  0.77140000  1
  H  H213  1  0.21190000  0.84950000  0.72860000  1
  H  H214  1  0.21190000  0.65050000  0.27140000  1
  H  H215  1  0.21190000  0.15050000  0.22860000  1
  H  H216  1  0.21040000  0.40250000  0.95050000  1
  H  H217  1  0.21040000  0.90250000  0.54950000  1
  H  H218  1  0.21040000  0.59750000  0.45050000  1
  H  H219  1  0.21040000  0.09750000  0.04950000  1
  H  H220  1  0.20840000  0.58780000  0.92190000  1
  H  H221  1  0.20840000  0.08780000  0.57810000  1
  H  H222  1  0.20840000  0.41220000  0.42190000  1
  H  H223  1  0.20840000  0.91220000  0.07810000  1
  H  H224  1  0.20330000  0.43100000  0.75420000  1
  H  H225  1  0.20330000  0.93100000  0.74580000  1
  H  H226  1  0.20330000  0.56900000  0.25420000  1
  H  H227  1  0.20330000  0.06900000  0.24580000  1
  H  H228  1  0.20270000  0.62930000  0.87980000  1
  H  H229  1  0.20270000  0.12930000  0.62020000  1
  H  H230  1  0.20270000  0.37070000  0.37980000  1
  H  H231  1  0.20270000  0.87070000  0.12020000  1
  H  H232  1  0.19280000  0.25550000  0.87450000  1
  H  H233  1  0.19280000  0.75550000  0.62550000  1
  H  H234  1  0.19280000  0.74450000  0.37450000  1
  H  H235  1  0.19280000  0.24450000  0.12550000  1
  H  H236  1  0.18110000  0.10670000  0.75920000  1
  H  H237  1  0.18110000  0.60670000  0.74080000  1
  H  H238  1  0.18110000  0.89330000  0.25920000  1
  H  H239  1  0.18110000  0.39330000  0.24080000  1
  H  H240  1  0.16020000  0.94570000  0.93900000  1
  H  H241  1  0.16020000  0.44570000  0.56100000  1
  H  H242  1  0.16020000  0.05430000  0.43900000  1
  H  H243  1  0.16020000  0.55430000  0.06100000  1
  H  H244  1  0.11700000  0.22030000  0.75970000  1
  H  H245  1  0.11700000  0.72030000  0.74030000  1
  H  H246  1  0.11700000  0.77970000  0.25970000  1
  H  H247  1  0.11700000  0.27970000  0.24030000  1
  H  H248  1  0.10950000  0.03710000  0.88690000  1
  H  H249  1  0.10950000  0.53710000  0.61310000  1
  H  H250  1  0.10950000  0.96290000  0.38690000  1
  H  H251  1  0.10950000  0.46290000  0.11310000  1
  H  H252  1  0.09240000  0.57140000  0.99900000  1
  H  H253  1  0.09240000  0.07140000  0.50100000  1
  H  H254  1  0.09240000  0.42860000  0.49900000  1
  H  H255  1  0.09240000  0.92860000  0.00100000  1
  H  H256  1  0.08790000  0.33490000  0.78710000  1
  H  H257  1  0.08790000  0.83490000  0.71290000  1
  H  H258  1  0.08790000  0.66510000  0.28710000  1
  H  H259  1  0.08790000  0.16510000  0.21290000  1
  H  H260  1  0.08580000  0.55550000  0.92850000  1
  H  H261  1  0.08580000  0.05550000  0.57150000  1
  H  H262  1  0.08580000  0.44450000  0.42850000  1
  H  H263  1  0.08580000  0.94450000  0.07150000  1
  H  H264  1  0.07750000  0.57420000  0.78450000  1
  H  H265  1  0.07750000  0.07420000  0.71550000  1
  H  H266  1  0.07750000  0.42580000  0.28450000  1
  H  H267  1  0.07750000  0.92580000  0.21550000  1
  H  H268  1  0.04970000  0.30470000  0.88900000  1
  H  H269  1  0.04970000  0.80470000  0.61100000  1
  H  H270  1  0.04970000  0.69530000  0.38900000  1
  H  H271  1  0.04970000  0.19530000  0.11100000  1
  H  H272  1  0.04780000  0.36170000  0.92540000  1
  H  H273  1  0.04780000  0.86170000  0.57460000  1
  H  H274  1  0.04780000  0.63830000  0.42540000  1
  H  H275  1  0.04780000  0.13830000  0.07460000  1
  H  H276  1  0.04410000  0.31050000  0.82730000  1
  H  H277  1  0.04410000  0.81050000  0.67270000  1
  H  H278  1  0.04410000  0.68950000  0.32730000  1
  H  H279  1  0.04410000  0.18950000  0.17270000  1
  H  H280  1  0.04110000  0.47980000  0.93730000  1
  H  H281  1  0.04110000  0.97980000  0.56270000  1
  H  H282  1  0.04110000  0.52020000  0.43730000  1
  H  H283  1  0.04110000  0.02020000  0.06270000  1
  H  H284  1  0.02500000  0.14450000  0.88820000  1
  H  H285  1  0.02500000  0.64450000  0.61180000  1
  H  H286  1  0.02500000  0.85550000  0.38820000  1
  H  H287  1  0.02500000  0.35550000  0.11180000  1
  H  H288  1  0.01010000  0.87260000  0.88810000  1
  H  H289  1  0.01010000  0.37260000  0.61190000  1
  H  H290  1  0.01010000  0.12740000  0.38810000  1
  H  H291  1  0.01010000  0.62740000  0.11190000  1
  H  H292  1  0.00940000  0.97460000  0.78240000  1
  H  H293  1  0.00940000  0.47460000  0.71760000  1
  H  H294  1  0.00940000  0.02540000  0.28240000  1
  H  H295  1  0.00940000  0.52540000  0.21760000  1
  C  C296  1  0.98830000  0.50770000  0.80431000  1
  C  C297  1  0.98830000  0.00770000  0.69569000  1
  C  C298  1  0.98830000  0.49230000  0.30431000  1
  C  C299  1  0.98830000  0.99230000  0.19569000  1
  C  C300  1  0.97900000  0.60950000  0.86734000  1
  C  C301  1  0.97900000  0.10950000  0.63266000  1
  C  C302  1  0.97900000  0.39050000  0.36734000  1
  C  C303  1  0.97900000  0.89050000  0.13266000  1
  C  C304  1  0.96570000  0.11780000  0.83630000  1
  C  C305  1  0.96570000  0.61780000  0.66370000  1
  C  C306  1  0.96570000  0.88220000  0.33630000  1
  C  C307  1  0.96570000  0.38220000  0.16370000  1
  C  C308  1  0.96040000  0.06770000  0.80504000  1
  C  C309  1  0.96040000  0.56770000  0.69496000  1
  C  C310  1  0.96040000  0.93230000  0.30504000  1
  C  C311  1  0.96040000  0.43230000  0.19496000  1
  C  C312  1  0.95750000  0.85630000  0.89637000  1
  C  C313  1  0.95750000  0.35630000  0.60363000  1
  C  C314  1  0.95750000  0.14370000  0.39637000  1
  C  C315  1  0.95750000  0.64370000  0.10363000  1
  C  C316  1  0.93360000  0.49500000  0.83490000  1
  C  C317  1  0.93360000  0.99500000  0.66510000  1
  C  C318  1  0.93360000  0.50500000  0.33490000  1
  C  C319  1  0.93360000  0.00500000  0.16510000  1
  C  C320  1  0.92780000  0.54500000  0.86620000  1
  C  C321  1  0.92780000  0.04500000  0.63380000  1
  C  C322  1  0.92780000  0.45500000  0.36620000  1
  C  C323  1  0.92780000  0.95500000  0.13380000  1
  C  C324  1  0.90830000  0.18270000  0.83908000  1
  C  C325  1  0.90830000  0.68270000  0.66092000  1
  C  C326  1  0.90830000  0.81730000  0.33908000  1
  C  C327  1  0.90830000  0.31730000  0.16092000  1
  C  C328  1  0.90650000  0.00220000  0.93277000  1
  C  C329  1  0.90650000  0.50220000  0.56723000  1
  C  C330  1  0.90650000  0.99780000  0.43277000  1
  C  C331  1  0.90650000  0.49780000  0.06723000  1
  C  C332  1  0.90370000  0.82100000  0.81536000  1
  C  C333  1  0.90370000  0.32100000  0.68464000  1
  C  C334  1  0.90370000  0.17900000  0.31536000  1
  C  C335  1  0.90370000  0.67900000  0.18464000  1
  C  C336  1  0.89480000  0.90300000  0.87547000  1
  C  C337  1  0.89480000  0.40300000  0.62453000  1
  C  C338  1  0.89480000  0.09700000  0.37547000  1
  C  C339  1  0.89480000  0.59700000  0.12453000  1
  C  C340  1  0.88180000  0.42650000  0.83379000  1
  C  C341  1  0.88180000  0.92650000  0.66621000  1
  C  C342  1  0.88180000  0.57350000  0.33379000  1
  C  C343  1  0.88180000  0.07350000  0.16621000  1
  C  C344  1  0.86950000  0.46650000  0.99851000  1
  C  C345  1  0.86950000  0.96650000  0.50149000  1
  C  C346  1  0.86950000  0.53350000  0.49851000  1
  C  C347  1  0.86950000  0.03350000  0.00149000  1
  C  C348  1  0.86710000  0.96710000  0.89395000  1
  C  C349  1  0.86710000  0.46710000  0.60605000  1
  C  C350  1  0.86710000  0.03290000  0.39395000  1
  C  C351  1  0.86710000  0.53290000  0.10605000  1
  C  C352  1  0.86620000  0.88460000  0.83731000  1
  C  C353  1  0.86620000  0.38460000  0.66269000  1
  C  C354  1  0.86620000  0.11540000  0.33731000  1
  C  C355  1  0.86620000  0.61540000  0.16269000  1
  C  C356  1  0.85480000  0.70450000  0.78264000  1
  C  C357  1  0.85480000  0.20450000  0.71736000  1
  C  C358  1  0.85480000  0.29550000  0.28264000  1
  C  C359  1  0.85480000  0.79550000  0.21736000  1
  C  C360  1  0.82850000  0.47690000  0.96100000  1
  C  C361  1  0.82850000  0.97690000  0.53900000  1
  C  C362  1  0.82850000  0.52310000  0.46100000  1
  C  C363  1  0.82850000  0.02310000  0.03900000  1
  C  C364  1  0.81630000  0.63670000  0.78231000  1
  C  C365  1  0.81630000  0.13670000  0.71769000  1
  C  C366  1  0.81630000  0.36330000  0.28231000  1
  C  C367  1  0.81630000  0.86330000  0.21769000  1
  C  C368  1  0.80980000  0.01580000  0.87420000  1
  C  C369  1  0.80980000  0.51580000  0.62580000  1
  C  C370  1  0.80980000  0.98420000  0.37420000  1
  C  C371  1  0.80980000  0.48420000  0.12580000  1
  C  C372  1  0.80900000  0.92820000  0.81820000  1
  C  C373  1  0.80900000  0.42820000  0.68180000  1
  C  C374  1  0.80900000  0.07180000  0.31820000  1
  C  C375  1  0.80900000  0.57180000  0.18180000  1
  C  C376  1  0.80890000  0.72570000  0.85120000  1
  C  C377  1  0.80890000  0.22570000  0.64880000  1
  C  C378  1  0.80890000  0.27430000  0.35120000  1
  C  C379  1  0.80890000  0.77430000  0.14880000  1
  C  C380  1  0.79860000  0.93330000  0.97290000  1
  C  C381  1  0.79860000  0.43330000  0.52710000  1
  C  C382  1  0.79860000  0.06670000  0.47290000  1
  C  C383  1  0.79860000  0.56670000  0.02710000  1
  C  C384  1  0.78090000  0.99050000  0.83585000  1
  C  C385  1  0.78090000  0.49050000  0.66415000  1
  C  C386  1  0.78090000  0.00950000  0.33585000  1
  C  C387  1  0.78090000  0.50950000  0.16415000  1
  C  C388  1  0.77630000  0.08620000  0.89365000  1
  C  C389  1  0.77630000  0.58620000  0.60635000  1
  C  C390  1  0.77630000  0.91380000  0.39365000  1
  C  C391  1  0.77630000  0.41380000  0.10635000  1
  C  C392  1  0.77420000  0.90110000  0.77566000  1
  C  C393  1  0.77420000  0.40110000  0.72434000  1
  C  C394  1  0.77420000  0.09890000  0.27566000  1
  C  C395  1  0.77420000  0.59890000  0.22434000  1
  C  C396  1  0.77330000  0.61230000  0.81635000  1
  C  C397  1  0.77330000  0.11230000  0.68365000  1
  C  C398  1  0.77330000  0.38770000  0.31635000  1
  C  C399  1  0.77330000  0.88770000  0.18365000  1
  C  C400  1  0.77110000  0.53400000  0.95681000  1
  C  C401  1  0.77110000  0.03400000  0.54319000  1
  C  C402  1  0.77110000  0.46600000  0.45681000  1
  C  C403  1  0.77110000  0.96600000  0.04319000  1
  C  C404  1  0.76940000  0.65860000  0.85080000  1
  C  C405  1  0.76940000  0.15860000  0.64920000  1
  C  C406  1  0.76940000  0.34140000  0.35080000  1
  C  C407  1  0.76940000  0.84140000  0.14920000  1
  C  C408  1  0.75720000  0.57830000  0.99256000  1
  C  C409  1  0.75720000  0.07830000  0.50744000  1
  C  C410  1  0.75720000  0.42170000  0.49256000  1
  C  C411  1  0.75720000  0.92170000  0.00744000  1
  C  C412  1  0.72250000  0.04190000  0.81275000  1
  C  C413  1  0.72250000  0.54190000  0.68725000  1
  C  C414  1  0.72250000  0.95810000  0.31275000  1
  C  C415  1  0.72250000  0.45810000  0.18725000  1
  C  C416  1  0.69360000  0.32160000  0.92220000  1
  C  C417  1  0.69360000  0.82160000  0.57780000  1
  C  C418  1  0.69360000  0.67840000  0.42220000  1
  C  C419  1  0.69360000  0.17840000  0.07780000  1
  C  C420  1  0.68320000  0.27910000  0.96126000  1
  C  C421  1  0.68320000  0.77910000  0.53874000  1
  C  C422  1  0.68320000  0.72090000  0.46126000  1
  C  C423  1  0.68320000  0.22090000  0.03874000  1
  C  C424  1  0.68280000  0.20030000  0.96639000  1
  C  C425  1  0.68280000  0.70030000  0.53361000  1
  C  C426  1  0.68280000  0.79970000  0.46639000  1
  C  C427  1  0.68280000  0.29970000  0.03361000  1
  C  C428  1  0.67710000  0.32780000  0.99420000  1
  C  C429  1  0.67710000  0.82780000  0.50580000  1
  C  C430  1  0.67710000  0.67220000  0.49420000  1
  C  C431  1  0.67710000  0.17220000  0.00580000  1
  C  C432  1  0.64720000  0.34060000  0.79748000  1
  C  C433  1  0.64720000  0.84060000  0.70252000  1
  C  C434  1  0.64720000  0.65940000  0.29748000  1
  C  C435  1  0.64720000  0.15940000  0.20252000  1
  C  C436  1  0.60430000  0.97580000  0.84410000  1
  C  C437  1  0.60430000  0.47580000  0.65590000  1
  C  C438  1  0.60430000  0.02420000  0.34410000  1
  C  C439  1  0.60430000  0.52420000  0.15590000  1
  C  C440  1  0.59710000  0.10500000  0.82440000  1
  C  C441  1  0.59710000  0.60500000  0.67560000  1
  C  C442  1  0.59710000  0.89500000  0.32440000  1
  C  C443  1  0.59710000  0.39500000  0.17560000  1
  C  C444  1  0.57170000  0.34030000  0.77287000  1
  C  C445  1  0.57170000  0.84030000  0.72713000  1
  C  C446  1  0.57170000  0.65970000  0.27287000  1
  C  C447  1  0.57170000  0.15970000  0.22713000  1
  C  C448  1  0.53470000  0.40590000  0.76128000  1
  C  C449  1  0.53470000  0.90590000  0.73872000  1
  C  C450  1  0.53470000  0.59410000  0.26128000  1
  C  C451  1  0.53470000  0.09410000  0.23872000  1
  C  C452  1  0.53440000  0.27380000  0.76080000  1
  C  C453  1  0.53440000  0.77380000  0.73920000  1
  C  C454  1  0.53440000  0.72620000  0.26080000  1
  C  C455  1  0.53440000  0.22620000  0.23920000  1
  C  C456  1  0.52450000  0.98400000  0.85950000  1
  C  C457  1  0.52450000  0.48400000  0.64050000  1
  C  C458  1  0.52450000  0.01600000  0.35950000  1
  C  C459  1  0.52450000  0.51600000  0.14050000  1
  C  C460  1  0.51780000  0.54190000  0.85400000  1
  C  C461  1  0.51780000  0.04190000  0.64600000  1
  C  C462  1  0.51780000  0.45810000  0.35400000  1
  C  C463  1  0.51780000  0.95810000  0.14600000  1
  C  C464  1  0.51580000  0.10270000  0.83690000  1
  C  C465  1  0.51580000  0.60270000  0.66310000  1
  C  C466  1  0.51580000  0.89730000  0.33690000  1
  C  C467  1  0.51580000  0.39730000  0.16310000  1
  C  C468  1  0.48420000  0.60270000  0.83690000  1
  C  C469  1  0.48420000  0.10270000  0.66310000  1
  C  C470  1  0.48420000  0.39730000  0.33690000  1
  C  C471  1  0.48420000  0.89730000  0.16310000  1
  C  C472  1  0.48220000  0.04190000  0.85400000  1
  C  C473  1  0.48220000  0.54190000  0.64600000  1
  C  C474  1  0.48220000  0.95810000  0.35400000  1
  C  C475  1  0.48220000  0.45810000  0.14600000  1
  C  C476  1  0.47550000  0.48400000  0.85950000  1
  C  C477  1  0.47550000  0.98400000  0.64050000  1
  C  C478  1  0.47550000  0.51600000  0.35950000  1
  C  C479  1  0.47550000  0.01600000  0.14050000  1
  C  C480  1  0.46560000  0.77380000  0.76080000  1
  C  C481  1  0.46560000  0.27380000  0.73920000  1
  C  C482  1  0.46560000  0.22620000  0.26080000  1
  C  C483  1  0.46560000  0.72620000  0.23920000  1
  C  C484  1  0.46530000  0.90590000  0.76128000  1
  C  C485  1  0.46530000  0.40590000  0.73872000  1
  C  C486  1  0.46530000  0.09410000  0.26128000  1
  C  C487  1  0.46530000  0.59410000  0.23872000  1
  C  C488  1  0.42830000  0.84030000  0.77287000  1
  C  C489  1  0.42830000  0.34030000  0.72713000  1
  C  C490  1  0.42830000  0.15970000  0.27287000  1
  C  C491  1  0.42830000  0.65970000  0.22713000  1
  C  C492  1  0.40290000  0.60500000  0.82440000  1
  C  C493  1  0.40290000  0.10500000  0.67560000  1
  C  C494  1  0.40290000  0.39500000  0.32440000  1
  C  C495  1  0.40290000  0.89500000  0.17560000  1
  C  C496  1  0.39570000  0.47580000  0.84410000  1
  C  C497  1  0.39570000  0.97580000  0.65590000  1
  C  C498  1  0.39570000  0.52420000  0.34410000  1
  C  C499  1  0.39570000  0.02420000  0.15590000  1
  C  C500  1  0.35280000  0.84060000  0.79748000  1
  C  C501  1  0.35280000  0.34060000  0.70252000  1
  C  C502  1  0.35280000  0.15940000  0.29748000  1
  C  C503  1  0.35280000  0.65940000  0.20252000  1
  C  C504  1  0.32290000  0.82780000  0.99420000  1
  C  C505  1  0.32290000  0.32780000  0.50580000  1
  C  C506  1  0.32290000  0.17220000  0.49420000  1
  C  C507  1  0.32290000  0.67220000  0.00580000  1
  C  C508  1  0.31720000  0.70030000  0.96639000  1
  C  C509  1  0.31720000  0.20030000  0.53361000  1
  C  C510  1  0.31720000  0.29970000  0.46639000  1
  C  C511  1  0.31720000  0.79970000  0.03361000  1
  C  C512  1  0.31680000  0.77910000  0.96126000  1
  C  C513  1  0.31680000  0.27910000  0.53874000  1
  C  C514  1  0.31680000  0.22090000  0.46126000  1
  C  C515  1  0.31680000  0.72090000  0.03874000  1
  C  C516  1  0.30640000  0.82160000  0.92220000  1
  C  C517  1  0.30640000  0.32160000  0.57780000  1
  C  C518  1  0.30640000  0.17840000  0.42220000  1
  C  C519  1  0.30640000  0.67840000  0.07780000  1
  C  C520  1  0.27750000  0.54190000  0.81275000  1
  C  C521  1  0.27750000  0.04190000  0.68725000  1
  C  C522  1  0.27750000  0.45810000  0.31275000  1
  C  C523  1  0.27750000  0.95810000  0.18725000  1
  C  C524  1  0.24280000  0.07830000  0.99256000  1
  C  C525  1  0.24280000  0.57830000  0.50744000  1
  C  C526  1  0.24280000  0.92170000  0.49256000  1
  C  C527  1  0.24280000  0.42170000  0.00744000  1
  C  C528  1  0.23060000  0.15860000  0.85080000  1
  C  C529  1  0.23060000  0.65860000  0.64920000  1
  C  C530  1  0.23060000  0.84140000  0.35080000  1
  C  C531  1  0.23060000  0.34140000  0.14920000  1
  C  C532  1  0.22890000  0.03400000  0.95681000  1
  C  C533  1  0.22890000  0.53400000  0.54319000  1
  C  C534  1  0.22890000  0.96600000  0.45681000  1
  C  C535  1  0.22890000  0.46600000  0.04319000  1
  C  C536  1  0.22670000  0.11230000  0.81635000  1
  C  C537  1  0.22670000  0.61230000  0.68365000  1
  C  C538  1  0.22670000  0.88770000  0.31635000  1
  C  C539  1  0.22670000  0.38770000  0.18365000  1
  C  C540  1  0.22580000  0.40110000  0.77566000  1
  C  C541  1  0.22580000  0.90110000  0.72434000  1
  C  C542  1  0.22580000  0.59890000  0.27566000  1
  C  C543  1  0.22580000  0.09890000  0.22434000  1
  C  C544  1  0.22370000  0.58620000  0.89365000  1
  C  C545  1  0.22370000  0.08620000  0.60635000  1
  C  C546  1  0.22370000  0.41380000  0.39365000  1
  C  C547  1  0.22370000  0.91380000  0.10635000  1
  C  C548  1  0.21910000  0.49050000  0.83585000  1
  C  C549  1  0.21910000  0.99050000  0.66415000  1
  C  C550  1  0.21910000  0.50950000  0.33585000  1
  C  C551  1  0.21910000  0.00950000  0.16415000  1
  C  C552  1  0.20140000  0.43330000  0.97290000  1
  C  C553  1  0.20140000  0.93330000  0.52710000  1
  C  C554  1  0.20140000  0.56670000  0.47290000  1
  C  C555  1  0.20140000  0.06670000  0.02710000  1
  C  C556  1  0.19110000  0.22570000  0.85120000  1
  C  C557  1  0.19110000  0.72570000  0.64880000  1
  C  C558  1  0.19110000  0.77430000  0.35120000  1
  C  C559  1  0.19110000  0.27430000  0.14880000  1
  C  C560  1  0.19100000  0.42820000  0.81820000  1
  C  C561  1  0.19100000  0.92820000  0.68180000  1
  C  C562  1  0.19100000  0.57180000  0.31820000  1
  C  C563  1  0.19100000  0.07180000  0.18180000  1
  C  C564  1  0.19020000  0.51580000  0.87420000  1
  C  C565  1  0.19020000  0.01580000  0.62580000  1
  C  C566  1  0.19020000  0.48420000  0.37420000  1
  C  C567  1  0.19020000  0.98420000  0.12580000  1
  C  C568  1  0.18370000  0.13670000  0.78231000  1
  C  C569  1  0.18370000  0.63670000  0.71769000  1
  C  C570  1  0.18370000  0.86330000  0.28231000  1
  C  C571  1  0.18370000  0.36330000  0.21769000  1
  C  C572  1  0.17150000  0.97690000  0.96100000  1
  C  C573  1  0.17150000  0.47690000  0.53900000  1
  C  C574  1  0.17150000  0.02310000  0.46100000  1
  C  C575  1  0.17150000  0.52310000  0.03900000  1
  C  C576  1  0.14520000  0.20450000  0.78264000  1
  C  C577  1  0.14520000  0.70450000  0.71736000  1
  C  C578  1  0.14520000  0.79550000  0.28264000  1
  C  C579  1  0.14520000  0.29550000  0.21736000  1
  C  C580  1  0.13380000  0.38460000  0.83731000  1
  C  C581  1  0.13380000  0.88460000  0.66269000  1
  C  C582  1  0.13380000  0.61540000  0.33731000  1
  C  C583  1  0.13380000  0.11540000  0.16269000  1
  C  C584  1  0.13290000  0.46710000  0.89395000  1
  C  C585  1  0.13290000  0.96710000  0.60605000  1
  C  C586  1  0.13290000  0.53290000  0.39395000  1
  C  C587  1  0.13290000  0.03290000  0.10605000  1
  C  C588  1  0.13050000  0.96650000  0.99851000  1
  C  C589  1  0.13050000  0.46650000  0.50149000  1
  C  C590  1  0.13050000  0.03350000  0.49851000  1
  C  C591  1  0.13050000  0.53350000  0.00149000  1
  C  C592  1  0.11820000  0.92650000  0.83379000  1
  C  C593  1  0.11820000  0.42650000  0.66621000  1
  C  C594  1  0.11820000  0.07350000  0.33379000  1
  C  C595  1  0.11820000  0.57350000  0.16621000  1
  C  C596  1  0.10520000  0.40300000  0.87547000  1
  C  C597  1  0.10520000  0.90300000  0.62453000  1
  C  C598  1  0.10520000  0.59700000  0.37547000  1
  C  C599  1  0.10520000  0.09700000  0.12453000  1
  C  C600  1  0.09630000  0.32100000  0.81536000  1
  C  C601  1  0.09630000  0.82100000  0.68464000  1
  C  C602  1  0.09630000  0.67900000  0.31536000  1
  C  C603  1  0.09630000  0.17900000  0.18464000  1
  C  C604  1  0.09350000  0.50220000  0.93277000  1
  C  C605  1  0.09350000  0.00220000  0.56723000  1
  C  C606  1  0.09350000  0.49780000  0.43277000  1
  C  C607  1  0.09350000  0.99780000  0.06723000  1
  C  C608  1  0.09170000  0.68270000  0.83908000  1
  C  C609  1  0.09170000  0.18270000  0.66092000  1
  C  C610  1  0.09170000  0.31730000  0.33908000  1
  C  C611  1  0.09170000  0.81730000  0.16092000  1
  C  C612  1  0.07220000  0.04500000  0.86620000  1
  C  C613  1  0.07220000  0.54500000  0.63380000  1
  C  C614  1  0.07220000  0.95500000  0.36620000  1
  C  C615  1  0.07220000  0.45500000  0.13380000  1
  C  C616  1  0.06640000  0.99500000  0.83490000  1
  C  C617  1  0.06640000  0.49500000  0.66510000  1
  C  C618  1  0.06640000  0.00500000  0.33490000  1
  C  C619  1  0.06640000  0.50500000  0.16510000  1
  C  C620  1  0.04250000  0.35630000  0.89637000  1
  C  C621  1  0.04250000  0.85630000  0.60363000  1
  C  C622  1  0.04250000  0.64370000  0.39637000  1
  C  C623  1  0.04250000  0.14370000  0.10363000  1
  C  C624  1  0.03960000  0.56770000  0.80504000  1
  C  C625  1  0.03960000  0.06770000  0.69496000  1
  C  C626  1  0.03960000  0.43230000  0.30504000  1
  C  C627  1  0.03960000  0.93230000  0.19496000  1
  C  C628  1  0.03430000  0.61780000  0.83630000  1
  C  C629  1  0.03430000  0.11780000  0.66370000  1
  C  C630  1  0.03430000  0.38220000  0.33630000  1
  C  C631  1  0.03430000  0.88220000  0.16370000  1
  C  C632  1  0.02100000  0.10950000  0.86734000  1
  C  C633  1  0.02100000  0.60950000  0.63266000  1
  C  C634  1  0.02100000  0.89050000  0.36734000  1
  C  C635  1  0.02100000  0.39050000  0.13266000  1
  C  C636  1  0.01170000  0.00770000  0.80431000  1
  C  C637  1  0.01170000  0.50770000  0.69569000  1
  C  C638  1  0.01170000  0.99230000  0.30431000  1
  C  C639  1  0.01170000  0.49230000  0.19569000  1
  N  N640  1  0.85380000  0.98980000  0.97028000  1
  N  N641  1  0.85380000  0.48980000  0.52972000  1
  N  N642  1  0.85380000  0.01020000  0.47028000  1
  N  N643  1  0.85380000  0.51020000  0.02972000  1
  N  N644  1  0.85190000  0.75010000  0.81707000  1
  N  N645  1  0.85190000  0.25010000  0.68293000  1
  N  N646  1  0.85190000  0.24990000  0.31707000  1
  N  N647  1  0.85190000  0.74990000  0.18293000  1
  N  N648  1  0.64190000  0.04010000  0.82795000  1
  N  N649  1  0.64190000  0.54010000  0.67205000  1
  N  N650  1  0.64190000  0.95990000  0.32795000  1
  N  N651  1  0.64190000  0.45990000  0.17205000  1
  N  N652  1  0.35810000  0.54010000  0.82795000  1
  N  N653  1  0.35810000  0.04010000  0.67205000  1
  N  N654  1  0.35810000  0.45990000  0.32795000  1
  N  N655  1  0.35810000  0.95990000  0.17205000  1
  N  N656  1  0.14810000  0.25010000  0.81707000  1
  N  N657  1  0.14810000  0.75010000  0.68293000  1
  N  N658  1  0.14810000  0.74990000  0.31707000  1
  N  N659  1  0.14810000  0.24990000  0.18293000  1
  N  N660  1  0.14620000  0.48980000  0.97028000  1
  N  N661  1  0.14620000  0.98980000  0.52972000  1
  N  N662  1  0.14620000  0.51020000  0.47028000  1
  N  N663  1  0.14620000  0.01020000  0.02972000  1
  O  O664  1  0.91390000  0.23210000  0.86740000  1
  O  O665  1  0.91390000  0.73210000  0.63260000  1
  O  O666  1  0.91390000  0.76790000  0.36740000  1
  O  O667  1  0.91390000  0.26790000  0.13260000  1
  O  O668  1  0.88930000  0.38040000  0.80696000  1
  O  O669  1  0.88930000  0.88040000  0.69304000  1
  O  O670  1  0.88930000  0.61960000  0.30696000  1
  O  O671  1  0.88930000  0.11960000  0.19304000  1
  O  O672  1  0.85340000  0.19100000  0.81182000  1
  O  O673  1  0.85340000  0.69100000  0.68818000  1
  O  O674  1  0.85340000  0.80900000  0.31182000  1
  O  O675  1  0.85340000  0.30900000  0.18818000  1
  O  O676  1  0.83290000  0.41850000  0.86362000  1
  O  O677  1  0.83290000  0.91850000  0.63638000  1
  O  O678  1  0.83290000  0.58150000  0.36362000  1
  O  O679  1  0.83290000  0.08150000  0.13638000  1
  O  O680  1  0.74330000  0.54620000  0.81896000  1
  O  O681  1  0.74330000  0.04620000  0.68104000  1
  O  O682  1  0.74330000  0.45380000  0.31896000  1
  O  O683  1  0.74330000  0.95380000  0.18104000  1
  O  O684  1  0.73720000  0.54350000  0.92364000  1
  O  O685  1  0.73720000  0.04350000  0.57636000  1
  O  O686  1  0.73720000  0.45650000  0.42364000  1
  O  O687  1  0.73720000  0.95650000  0.07636000  1
  O  O688  1  0.72390000  0.27440000  0.89283000  1
  O  O689  1  0.72390000  0.77440000  0.60717000  1
  O  O690  1  0.72390000  0.72560000  0.39283000  1
  O  O691  1  0.72390000  0.22560000  0.10717000  1
  O  O692  1  0.68620000  0.27980000  0.79813000  1
  O  O693  1  0.68620000  0.77980000  0.70187000  1
  O  O694  1  0.68620000  0.72020000  0.29813000  1
  O  O695  1  0.68620000  0.22020000  0.20187000  1
  O  O696  1  0.67330000  0.38510000  0.91382000  1
  O  O697  1  0.67330000  0.88510000  0.58618000  1
  O  O698  1  0.67330000  0.61490000  0.41382000  1
  O  O699  1  0.67330000  0.11490000  0.08618000  1
  O  O700  1  0.66570000  0.39580000  0.81647000  1
  O  O701  1  0.66570000  0.89580000  0.68353000  1
  O  O702  1  0.66570000  0.60420000  0.31647000  1
  O  O703  1  0.66570000  0.10420000  0.18353000  1
  O  O704  1  0.59020000  0.54350000  0.87018000  1
  O  O705  1  0.59020000  0.04350000  0.62982000  1
  O  O706  1  0.59020000  0.45650000  0.37018000  1
  O  O707  1  0.59020000  0.95650000  0.12982000  1
  O  O708  1  0.40980000  0.04350000  0.87018000  1
  O  O709  1  0.40980000  0.54350000  0.62982000  1
  O  O710  1  0.40980000  0.95650000  0.37018000  1
  O  O711  1  0.40980000  0.45650000  0.12982000  1
  O  O712  1  0.33430000  0.89580000  0.81647000  1
  O  O713  1  0.33430000  0.39580000  0.68353000  1
  O  O714  1  0.33430000  0.10420000  0.31647000  1
  O  O715  1  0.33430000  0.60420000  0.18353000  1
  O  O716  1  0.32670000  0.88510000  0.91382000  1
  O  O717  1  0.32670000  0.38510000  0.58618000  1
  O  O718  1  0.32670000  0.11490000  0.41382000  1
  O  O719  1  0.32670000  0.61490000  0.08618000  1
  O  O720  1  0.31380000  0.77980000  0.79813000  1
  O  O721  1  0.31380000  0.27980000  0.70187000  1
  O  O722  1  0.31380000  0.22020000  0.29813000  1
  O  O723  1  0.31380000  0.72020000  0.20187000  1
  O  O724  1  0.27610000  0.77440000  0.89283000  1
  O  O725  1  0.27610000  0.27440000  0.60717000  1
  O  O726  1  0.27610000  0.22560000  0.39283000  1
  O  O727  1  0.27610000  0.72560000  0.10717000  1
  O  O728  1  0.26280000  0.04350000  0.92364000  1
  O  O729  1  0.26280000  0.54350000  0.57636000  1
  O  O730  1  0.26280000  0.95650000  0.42364000  1
  O  O731  1  0.26280000  0.45650000  0.07636000  1
  O  O732  1  0.25670000  0.04620000  0.81896000  1
  O  O733  1  0.25670000  0.54620000  0.68104000  1
  O  O734  1  0.25670000  0.95380000  0.31896000  1
  O  O735  1  0.25670000  0.45380000  0.18104000  1
  O  O736  1  0.16710000  0.91850000  0.86362000  1
  O  O737  1  0.16710000  0.41850000  0.63638000  1
  O  O738  1  0.16710000  0.08150000  0.36362000  1
  O  O739  1  0.16710000  0.58150000  0.13638000  1
  O  O740  1  0.14660000  0.69100000  0.81182000  1
  O  O741  1  0.14660000  0.19100000  0.68818000  1
  O  O742  1  0.14660000  0.30900000  0.31182000  1
  O  O743  1  0.14660000  0.80900000  0.18818000  1
  O  O744  1  0.11070000  0.88040000  0.80696000  1
  O  O745  1  0.11070000  0.38040000  0.69304000  1
  O  O746  1  0.11070000  0.11960000  0.30696000  1
  O  O747  1  0.11070000  0.61960000  0.19304000  1
  O  O748  1  0.08610000  0.73210000  0.86740000  1
  O  O749  1  0.08610000  0.23210000  0.63260000  1
  O  O750  1  0.08610000  0.26790000  0.36740000  1
  O  O751  1  0.08610000  0.76790000  0.13260000  1
